MODEL 1
REMARK VINA RESULT:      -8.4      0.000      0.000
REMARK  5 active torsions:
REMARK  status: ('A' for Active; 'I' for Inactive)
REMARK    1  A    between atoms: C_4  and  C_5 
REMARK       I    between atoms: C_5  and  N_6 
REMARK    2  A    between atoms: N_6  and  C_7 
REMARK    3  A    between atoms: C_10  and  C_11 
REMARK    4  A    between atoms: C_18  and  N_19 
REMARK       I    between atoms: N_19  and  C_20 
REMARK    5  A    between atoms: C_20  and  C_21 
ROOT
HETATM    1  C   UNL     1     -34.003  40.397 -53.947  1.00  0.00     0.139 A 
HETATM    2  N   UNL     1     -34.305  39.399 -54.761  1.00  0.00    -0.228 NA
HETATM    3  C   UNL     1     -34.865  39.969 -55.883  1.00  0.00     0.088 A 
HETATM    4  C   UNL     1     -34.916  41.348 -55.754  1.00  0.00     0.063 A 
HETATM    5  N   UNL     1     -34.365  41.593 -54.525  1.00  0.00    -0.338 N 
HETATM    6  H   UNL     1     -34.271  42.502 -54.099  1.00  0.00     0.167 HD
HETATM    7  C   UNL     1     -35.362  39.367 -57.052  1.00  0.00     0.063 A 
HETATM    8  C   UNL     1     -35.901  40.183 -58.056  1.00  0.00     0.037 A 
HETATM    9  C   UNL     1     -35.935  41.577 -57.882  1.00  0.00     0.032 A 
HETATM   10  C   UNL     1     -35.442  42.194 -56.726  1.00  0.00     0.034 A 
ENDROOT
BRANCH   1  11
HETATM   11  C   UNL     1     -33.419  40.286 -52.605  1.00  0.00     0.010 A 
HETATM   12  C   UNL     1     -32.062  40.009 -52.403  1.00  0.00     0.017 A 
HETATM   13  C   UNL     1     -31.517  39.965 -51.113  1.00  0.00     0.030 A 
HETATM   14  C   UNL     1     -32.317  40.193 -49.996  1.00  0.00     0.035 A 
HETATM   15  C   UNL     1     -33.681  40.432 -50.186  1.00  0.00     0.030 A 
HETATM   16  C   UNL     1     -34.226  40.478 -51.477  1.00  0.00     0.017 A 
BRANCH  14  17
HETATM   17  N   UNL     1     -31.830  40.207 -48.675  1.00  0.00    -0.321 N 
HETATM   18  C   UNL     1     -31.498  39.126 -47.874  1.00  0.00     0.279 C 
HETATM   19  O   UNL     1     -31.604  37.946 -48.191  1.00  0.00    -0.265 OA
HETATM   20  H   UNL     1     -31.653  41.114 -48.256  1.00  0.00     0.169 HD
BRANCH  18  21
HETATM   21  C   UNL     1     -30.973  39.524 -46.579  1.00  0.00     0.142 A 
HETATM   22  O   UNL     1     -31.478  38.954 -45.438  1.00  0.00    -0.317 OA
HETATM   23  C   UNL     1     -30.815  39.509 -44.389  1.00  0.00     0.143 A 
HETATM   24  C   UNL     1     -29.896  40.431 -44.831  1.00  0.00     0.027 A 
HETATM   25  C   UNL     1     -29.996  40.441 -46.242  1.00  0.00     0.045 A 
ENDBRANCH  18  21
ENDBRANCH  14  17
ENDBRANCH   1  11
BRANCH   8  26
HETATM   26  N   UNL     1     -36.432  39.697 -59.267  1.00  0.00    -0.321 N 
HETATM   27  C   UNL     1     -37.749  39.427 -59.589  1.00  0.00     0.279 C 
HETATM   28  O   UNL     1     -38.713  39.569 -58.844  1.00  0.00    -0.265 OA
HETATM   29  H   UNL     1     -35.776  39.515 -60.019  1.00  0.00     0.169 HD
BRANCH  27  30
HETATM   30  C   UNL     1     -37.890  38.938 -60.952  1.00  0.00     0.142 A 
HETATM   31  O   UNL     1     -36.846  39.092 -61.833  1.00  0.00    -0.317 OA
HETATM   32  C   UNL     1     -37.240  38.556 -63.017  1.00  0.00     0.143 A 
HETATM   33  C   UNL     1     -38.518  38.060 -62.921  1.00  0.00     0.027 A 
HETATM   34  C   UNL     1     -38.938  38.305 -61.592  1.00  0.00     0.045 A 
ENDBRANCH  27  30
ENDBRANCH   8  26
TORSDOF 5
ENDMDL
MODEL 2
REMARK VINA RESULT:      -7.8      2.141     12.553
REMARK  5 active torsions:
REMARK  status: ('A' for Active; 'I' for Inactive)
REMARK    1  A    between atoms: C_4  and  C_5 
REMARK       I    between atoms: C_5  and  N_6 
REMARK    2  A    between atoms: N_6  and  C_7 
REMARK    3  A    between atoms: C_10  and  C_11 
REMARK    4  A    between atoms: C_18  and  N_19 
REMARK       I    between atoms: N_19  and  C_20 
REMARK    5  A    between atoms: C_20  and  C_21 
ROOT
HETATM    1  C   UNL     1     -36.328  39.769 -54.885  1.00  0.00     0.139 A 
HETATM    2  N   UNL     1     -35.682  38.922 -54.100  1.00  0.00    -0.228 NA
HETATM    3  C   UNL     1     -35.235  39.654 -53.023  1.00  0.00     0.088 A 
HETATM    4  C   UNL     1     -35.609  40.983 -53.149  1.00  0.00     0.063 A 
HETATM    5  N   UNL     1     -36.298  41.029 -54.331  1.00  0.00    -0.338 N 
HETATM    6  H   UNL     1     -36.691  41.860 -54.744  1.00  0.00     0.167 HD
HETATM    7  C   UNL     1     -34.496  39.250 -51.897  1.00  0.00     0.063 A 
HETATM    8  C   UNL     1     -34.153  40.208 -50.934  1.00  0.00     0.037 A 
HETATM    9  C   UNL     1     -34.550  41.545 -51.103  1.00  0.00     0.032 A 
HETATM   10  C   UNL     1     -35.290  41.965 -52.216  1.00  0.00     0.034 A 
ENDROOT
BRANCH   1  11
HETATM   11  C   UNL     1     -36.950  39.464 -56.178  1.00  0.00     0.010 A 
HETATM   12  C   UNL     1     -36.797  38.221 -56.805  1.00  0.00     0.017 A 
HETATM   13  C   UNL     1     -37.448  37.935 -58.012  1.00  0.00     0.030 A 
HETATM   14  C   UNL     1     -38.262  38.886 -58.623  1.00  0.00     0.035 A 
HETATM   15  C   UNL     1     -38.389  40.143 -58.024  1.00  0.00     0.030 A 
HETATM   16  C   UNL     1     -37.740  40.429 -56.815  1.00  0.00     0.017 A 
BRANCH  14  17
HETATM   17  N   UNL     1     -38.980  38.654 -59.812  1.00  0.00    -0.321 N 
HETATM   18  C   UNL     1     -39.936  37.683 -60.058  1.00  0.00     0.279 C 
HETATM   19  O   UNL     1     -40.302  36.825 -59.260  1.00  0.00    -0.265 OA
HETATM   20  H   UNL     1     -38.822  39.297 -60.581  1.00  0.00     0.169 HD
BRANCH  18  21
HETATM   21  C   UNL     1     -40.508  37.779 -61.390  1.00  0.00     0.142 A 
HETATM   22  O   UNL     1     -41.836  38.095 -61.537  1.00  0.00    -0.317 OA
HETATM   23  C   UNL     1     -42.095  38.112 -62.871  1.00  0.00     0.143 A 
HETATM   24  C   UNL     1     -40.963  37.808 -63.588  1.00  0.00     0.027 A 
HETATM   25  C   UNL     1     -39.939  37.595 -62.635  1.00  0.00     0.045 A 
ENDBRANCH  18  21
ENDBRANCH  14  17
ENDBRANCH   1  11
BRANCH   8  26
HETATM   26  N   UNL     1     -33.412  39.926 -49.769  1.00  0.00    -0.321 N 
HETATM   27  C   UNL     1     -32.040  39.879 -49.605  1.00  0.00     0.279 C 
HETATM   28  O   UNL     1     -31.206  40.081 -50.481  1.00  0.00    -0.265 OA
HETATM   29  H   UNL     1     -33.937  39.729 -48.925  1.00  0.00     0.169 HD
BRANCH  27  30
HETATM   30  C   UNL     1     -31.664  39.554 -48.238  1.00  0.00     0.142 A 
HETATM   31  O   UNL     1     -30.743  40.340 -47.588  1.00  0.00    -0.317 OA
HETATM   32  C   UNL     1     -30.577  39.818 -46.345  1.00  0.00     0.143 A 
HETATM   33  C   UNL     1     -31.372  38.710 -46.177  1.00  0.00     0.027 A 
HETATM   34  C   UNL     1     -32.072  38.538 -47.395  1.00  0.00     0.045 A 
ENDBRANCH  27  30
ENDBRANCH   8  26
TORSDOF 5
ENDMDL
MODEL 3
REMARK VINA RESULT:      -7.6     22.050     25.916
REMARK  5 active torsions:
REMARK  status: ('A' for Active; 'I' for Inactive)
REMARK    1  A    between atoms: C_4  and  C_5 
REMARK       I    between atoms: C_5  and  N_6 
REMARK    2  A    between atoms: N_6  and  C_7 
REMARK    3  A    between atoms: C_10  and  C_11 
REMARK    4  A    between atoms: C_18  and  N_19 
REMARK       I    between atoms: N_19  and  C_20 
REMARK    5  A    between atoms: C_20  and  C_21 
ROOT
HETATM    1  C   UNL     1     -45.266  60.311 -51.314  1.00  0.00     0.139 A 
HETATM    2  N   UNL     1     -44.474  60.244 -50.256  1.00  0.00    -0.228 NA
HETATM    3  C   UNL     1     -44.998  61.109 -49.322  1.00  0.00     0.088 A 
HETATM    4  C   UNL     1     -46.135  61.729 -49.818  1.00  0.00     0.063 A 
HETATM    5  N   UNL     1     -46.283  61.207 -51.074  1.00  0.00    -0.338 N 
HETATM    6  H   UNL     1     -47.004  61.464 -51.730  1.00  0.00     0.167 HD
HETATM    7  C   UNL     1     -44.550  61.424 -48.027  1.00  0.00     0.063 A 
HETATM    8  C   UNL     1     -45.267  62.364 -47.273  1.00  0.00     0.037 A 
HETATM    9  C   UNL     1     -46.413  62.969 -47.816  1.00  0.00     0.032 A 
HETATM   10  C   UNL     1     -46.875  62.666 -49.102  1.00  0.00     0.034 A 
ENDROOT
BRANCH   1  11
HETATM   11  C   UNL     1     -45.094  59.596 -52.583  1.00  0.00     0.010 A 
HETATM   12  C   UNL     1     -44.714  58.249 -52.635  1.00  0.00     0.017 A 
HETATM   13  C   UNL     1     -44.613  57.573 -53.858  1.00  0.00     0.030 A 
HETATM   14  C   UNL     1     -44.883  58.229 -55.057  1.00  0.00     0.035 A 
HETATM   15  C   UNL     1     -45.226  59.584 -55.017  1.00  0.00     0.030 A 
HETATM   16  C   UNL     1     -45.330  60.260 -53.793  1.00  0.00     0.017 A 
BRANCH  14  17
HETATM   17  N   UNL     1     -44.843  57.604 -56.318  1.00  0.00    -0.321 N 
HETATM   18  C   UNL     1     -43.738  57.358 -57.116  1.00  0.00     0.279 C 
HETATM   19  O   UNL     1     -42.584  57.682 -56.853  1.00  0.00    -0.265 OA
HETATM   20  H   UNL     1     -45.718  57.241 -56.683  1.00  0.00     0.169 HD
BRANCH  18  21
HETATM   21  C   UNL     1     -44.070  56.638 -58.333  1.00  0.00     0.142 A 
HETATM   22  O   UNL     1     -45.229  56.937 -59.004  1.00  0.00    -0.317 OA
HETATM   23  C   UNL     1     -45.285  56.118 -60.087  1.00  0.00     0.143 A 
HETATM   24  C   UNL     1     -44.187  55.292 -60.126  1.00  0.00     0.027 A 
HETATM   25  C   UNL     1     -43.403  55.627 -58.997  1.00  0.00     0.045 A 
ENDBRANCH  18  21
ENDBRANCH  14  17
ENDBRANCH   1  11
BRANCH   8  26
HETATM   26  N   UNL     1     -44.914  62.763 -45.969  1.00  0.00    -0.321 N 
HETATM   27  C   UNL     1     -44.639  61.976 -44.867  1.00  0.00     0.279 C 
HETATM   28  O   UNL     1     -44.660  60.750 -44.837  1.00  0.00    -0.265 OA
HETATM   29  H   UNL     1     -44.845  63.760 -45.795  1.00  0.00     0.169 HD
BRANCH  27  30
HETATM   30  C   UNL     1     -44.309  62.773 -43.695  1.00  0.00     0.142 A 
HETATM   31  O   UNL     1     -45.130  63.815 -43.337  1.00  0.00    -0.317 OA
HETATM   32  C   UNL     1     -44.595  64.382 -42.225  1.00  0.00     0.143 A 
HETATM   33  C   UNL     1     -43.444  63.728 -41.856  1.00  0.00     0.027 A 
HETATM   34  C   UNL     1     -43.258  62.692 -42.801  1.00  0.00     0.045 A 
ENDBRANCH  27  30
ENDBRANCH   8  26
TORSDOF 5
ENDMDL
MODEL 4
REMARK VINA RESULT:      -7.5      2.494     13.240
REMARK  5 active torsions:
REMARK  status: ('A' for Active; 'I' for Inactive)
REMARK    1  A    between atoms: C_4  and  C_5 
REMARK       I    between atoms: C_5  and  N_6 
REMARK    2  A    between atoms: N_6  and  C_7 
REMARK    3  A    between atoms: C_10  and  C_11 
REMARK    4  A    between atoms: C_18  and  N_19 
REMARK       I    between atoms: N_19  and  C_20 
REMARK    5  A    between atoms: C_20  and  C_21 
ROOT
HETATM    1  C   UNL     1     -32.758  39.522 -49.954  1.00  0.00     0.139 A 
HETATM    2  N   UNL     1     -31.649  40.018 -49.430  1.00  0.00    -0.228 NA
HETATM    3  C   UNL     1     -31.559  39.508 -48.154  1.00  0.00     0.088 A 
HETATM    4  C   UNL     1     -32.641  38.684 -47.883  1.00  0.00     0.063 A 
HETATM    5  N   UNL     1     -33.381  38.708 -49.034  1.00  0.00    -0.338 N 
HETATM    6  H   UNL     1     -34.259  38.232 -49.172  1.00  0.00     0.167 HD
HETATM    7  C   UNL     1     -30.582  39.711 -47.164  1.00  0.00     0.063 A 
HETATM    8  C   UNL     1     -30.733  39.076 -45.924  1.00  0.00     0.037 A 
HETATM    9  C   UNL     1     -31.847  38.251 -45.691  1.00  0.00     0.032 A 
HETATM   10  C   UNL     1     -32.828  38.035 -46.666  1.00  0.00     0.034 A 
ENDROOT
BRANCH   1  11
HETATM   11  C   UNL     1     -33.302  39.808 -51.285  1.00  0.00     0.010 A 
HETATM   12  C   UNL     1     -32.493  39.858 -52.427  1.00  0.00     0.017 A 
HETATM   13  C   UNL     1     -33.045  40.076 -53.696  1.00  0.00     0.030 A 
HETATM   14  C   UNL     1     -34.418  40.256 -53.853  1.00  0.00     0.035 A 
HETATM   15  C   UNL     1     -35.228  40.247 -52.713  1.00  0.00     0.030 A 
HETATM   16  C   UNL     1     -34.676  40.025 -51.444  1.00  0.00     0.017 A 
BRANCH  14  17
HETATM   17  N   UNL     1     -35.046  40.437 -55.099  1.00  0.00    -0.321 N 
HETATM   18  C   UNL     1     -35.265  41.622 -55.782  1.00  0.00     0.279 C 
HETATM   19  O   UNL     1     -34.958  42.741 -55.383  1.00  0.00    -0.265 OA
HETATM   20  H   UNL     1     -35.343  39.602 -55.594  1.00  0.00     0.169 HD
BRANCH  18  21
HETATM   21  C   UNL     1     -35.896  41.420 -57.074  1.00  0.00     0.142 A 
HETATM   22  O   UNL     1     -35.697  40.243 -57.751  1.00  0.00    -0.317 OA
HETATM   23  C   UNL     1     -36.393  40.330 -58.915  1.00  0.00     0.143 A 
HETATM   24  C   UNL     1     -37.035  41.542 -59.006  1.00  0.00     0.027 A 
HETATM   25  C   UNL     1     -36.717  42.245 -57.820  1.00  0.00     0.045 A 
ENDBRANCH  18  21
ENDBRANCH  14  17
ENDBRANCH   1  11
BRANCH   8  26
HETATM   26  N   UNL     1     -29.825  39.207 -44.855  1.00  0.00    -0.321 N 
HETATM   27  C   UNL     1     -29.477  40.342 -44.148  1.00  0.00     0.279 C 
HETATM   28  O   UNL     1     -29.915  41.470 -44.343  1.00  0.00    -0.265 OA
HETATM   29  H   UNL     1     -29.353  38.364 -44.545  1.00  0.00     0.169 HD
BRANCH  27  30
HETATM   30  C   UNL     1     -28.500  40.060 -43.108  1.00  0.00     0.142 A 
HETATM   31  O   UNL     1     -27.650  41.058 -42.695  1.00  0.00    -0.317 OA
HETATM   32  C   UNL     1     -26.851  40.531 -41.731  1.00  0.00     0.143 A 
HETATM   33  C   UNL     1     -27.168  39.212 -41.511  1.00  0.00     0.027 A 
HETATM   34  C   UNL     1     -28.229  38.907 -42.397  1.00  0.00     0.045 A 
ENDBRANCH  27  30
ENDBRANCH   8  26
TORSDOF 5
ENDMDL
MODEL 5
REMARK VINA RESULT:      -7.2      2.474      4.123
REMARK  5 active torsions:
REMARK  status: ('A' for Active; 'I' for Inactive)
REMARK    1  A    between atoms: C_4  and  C_5 
REMARK       I    between atoms: C_5  and  N_6 
REMARK    2  A    between atoms: N_6  and  C_7 
REMARK    3  A    between atoms: C_10  and  C_11 
REMARK    4  A    between atoms: C_18  and  N_19 
REMARK       I    between atoms: N_19  and  C_20 
REMARK    5  A    between atoms: C_20  and  C_21 
ROOT
HETATM    1  C   UNL     1     -33.937  39.603 -50.327  1.00  0.00     0.139 A 
HETATM    2  N   UNL     1     -33.587  39.479 -51.596  1.00  0.00    -0.228 NA
HETATM    3  C   UNL     1     -34.657  39.924 -52.340  1.00  0.00     0.088 A 
HETATM    4  C   UNL     1     -35.692  40.326 -51.510  1.00  0.00     0.063 A 
HETATM    5  N   UNL     1     -35.212  40.115 -50.245  1.00  0.00    -0.338 N 
HETATM    6  H   UNL     1     -35.725  40.277 -49.393  1.00  0.00     0.167 HD
HETATM    7  C   UNL     1     -34.819  40.008 -53.734  1.00  0.00     0.063 A 
HETATM    8  C   UNL     1     -36.030  40.494 -54.246  1.00  0.00     0.037 A 
HETATM    9  C   UNL     1     -37.054  40.887 -53.368  1.00  0.00     0.032 A 
HETATM   10  C   UNL     1     -36.909  40.813 -51.977  1.00  0.00     0.034 A 
ENDROOT
BRANCH   1  11
HETATM   11  C   UNL     1     -33.139  39.219 -49.157  1.00  0.00     0.010 A 
HETATM   12  C   UNL     1     -31.962  39.892 -48.803  1.00  0.00     0.017 A 
HETATM   13  C   UNL     1     -31.249  39.543 -47.649  1.00  0.00     0.030 A 
HETATM   14  C   UNL     1     -31.692  38.511 -46.825  1.00  0.00     0.035 A 
HETATM   15  C   UNL     1     -32.844  37.808 -47.192  1.00  0.00     0.030 A 
HETATM   16  C   UNL     1     -33.559  38.159 -48.345  1.00  0.00     0.017 A 
BRANCH  14  17
HETATM   17  N   UNL     1     -31.051  38.134 -45.630  1.00  0.00    -0.321 N 
HETATM   18  C   UNL     1     -31.413  38.446 -44.330  1.00  0.00     0.279 C 
HETATM   19  O   UNL     1     -32.367  39.146 -44.005  1.00  0.00    -0.265 OA
HETATM   20  H   UNL     1     -30.246  37.520 -45.709  1.00  0.00     0.169 HD
BRANCH  18  21
HETATM   21  C   UNL     1     -30.544  37.834 -43.340  1.00  0.00     0.142 A 
HETATM   22  O   UNL     1     -29.185  37.995 -43.437  1.00  0.00    -0.317 OA
HETATM   23  C   UNL     1     -28.629  37.322 -42.396  1.00  0.00     0.143 A 
HETATM   24  C   UNL     1     -29.602  36.724 -41.631  1.00  0.00     0.027 A 
HETATM   25  C   UNL     1     -30.837  37.055 -42.237  1.00  0.00     0.045 A 
ENDBRANCH  18  21
ENDBRANCH  14  17
ENDBRANCH   1  11
BRANCH   8  26
HETATM   26  N   UNL     1     -36.311  40.619 -55.621  1.00  0.00    -0.321 N 
HETATM   27  C   UNL     1     -35.866  41.576 -56.512  1.00  0.00     0.279 C 
HETATM   28  O   UNL     1     -35.125  42.516 -56.245  1.00  0.00    -0.265 OA
HETATM   29  H   UNL     1     -36.920  39.920 -56.033  1.00  0.00     0.169 HD
BRANCH  27  30
HETATM   30  C   UNL     1     -36.381  41.356 -57.854  1.00  0.00     0.142 A 
HETATM   31  O   UNL     1     -36.260  40.111 -58.426  1.00  0.00    -0.317 OA
HETATM   32  C   UNL     1     -36.815  40.183 -59.663  1.00  0.00     0.143 A 
HETATM   33  C   UNL     1     -37.293  41.449 -59.905  1.00  0.00     0.027 A 
HETATM   34  C   UNL     1     -37.015  42.205 -58.742  1.00  0.00     0.045 A 
ENDBRANCH  27  30
ENDBRANCH   8  26
TORSDOF 5
ENDMDL
MODEL 6
REMARK VINA RESULT:      -6.6     21.821     23.275
REMARK  5 active torsions:
REMARK  status: ('A' for Active; 'I' for Inactive)
REMARK    1  A    between atoms: C_4  and  C_5 
REMARK       I    between atoms: C_5  and  N_6 
REMARK    2  A    between atoms: N_6  and  C_7 
REMARK    3  A    between atoms: C_10  and  C_11 
REMARK    4  A    between atoms: C_18  and  N_19 
REMARK       I    between atoms: N_19  and  C_20 
REMARK    5  A    between atoms: C_20  and  C_21 
ROOT
HETATM    1  C   UNL     1     -44.670  59.807 -52.031  1.00  0.00     0.139 A 
HETATM    2  N   UNL     1     -45.443  59.668 -53.096  1.00  0.00    -0.228 NA
HETATM    3  C   UNL     1     -44.773  58.828 -53.956  1.00  0.00     0.088 A 
HETATM    4  C   UNL     1     -43.557  58.444 -53.412  1.00  0.00     0.063 A 
HETATM    5  N   UNL     1     -43.516  59.073 -52.198  1.00  0.00    -0.338 N 
HETATM    6  H   UNL     1     -42.749  59.032 -51.545  1.00  0.00     0.167 HD
HETATM    7  C   UNL     1     -45.140  58.352 -55.228  1.00  0.00     0.063 A 
HETATM    8  C   UNL     1     -44.260  57.504 -55.913  1.00  0.00     0.037 A 
HETATM    9  C   UNL     1     -43.036  57.142 -55.325  1.00  0.00     0.032 A 
HETATM   10  C   UNL     1     -42.655  57.604 -54.059  1.00  0.00     0.034 A 
ENDROOT
BRANCH   1  11
HETATM   11  C   UNL     1     -44.940  60.642 -50.856  1.00  0.00     0.010 A 
HETATM   12  C   UNL     1     -46.101  61.416 -50.741  1.00  0.00     0.017 A 
HETATM   13  C   UNL     1     -46.363  62.160 -49.584  1.00  0.00     0.030 A 
HETATM   14  C   UNL     1     -45.467  62.153 -48.516  1.00  0.00     0.035 A 
HETATM   15  C   UNL     1     -44.286  61.413 -48.638  1.00  0.00     0.030 A 
HETATM   16  C   UNL     1     -44.026  60.666 -49.795  1.00  0.00     0.017 A 
BRANCH  14  17
HETATM   17  N   UNL     1     -45.684  62.841 -47.307  1.00  0.00    -0.321 N 
HETATM   18  C   UNL     1     -46.624  62.572 -46.327  1.00  0.00     0.279 C 
HETATM   19  O   UNL     1     -47.462  61.676 -46.370  1.00  0.00    -0.265 OA
HETATM   20  H   UNL     1     -45.053  63.606 -47.090  1.00  0.00     0.169 HD
BRANCH  18  21
HETATM   21  C   UNL     1     -46.519  63.463 -45.185  1.00  0.00     0.142 A 
HETATM   22  O   UNL     1     -45.288  63.933 -44.801  1.00  0.00    -0.317 OA
HETATM   23  C   UNL     1     -45.486  64.730 -43.718  1.00  0.00     0.143 A 
HETATM   24  C   UNL     1     -46.820  64.780 -43.392  1.00  0.00     0.027 A 
HETATM   25  C   UNL     1     -47.487  63.965 -44.336  1.00  0.00     0.045 A 
ENDBRANCH  18  21
ENDBRANCH  14  17
ENDBRANCH   1  11
BRANCH   8  26
HETATM   26  N   UNL     1     -44.515  56.969 -57.191  1.00  0.00    -0.321 N 
HETATM   27  C   UNL     1     -44.263  57.528 -58.430  1.00  0.00     0.279 C 
HETATM   28  O   UNL     1     -43.759  58.627 -58.631  1.00  0.00    -0.265 OA
HETATM   29  H   UNL     1     -44.939  56.048 -57.229  1.00  0.00     0.169 HD
BRANCH  27  30
HETATM   30  C   UNL     1     -44.671  56.652 -59.517  1.00  0.00     0.142 A 
HETATM   31  O   UNL     1     -45.906  56.825 -60.094  1.00  0.00    -0.317 OA
HETATM   32  C   UNL     1     -46.029  55.886 -61.068  1.00  0.00     0.143 A 
HETATM   33  C   UNL     1     -44.898  55.108 -61.134  1.00  0.00     0.027 A 
HETATM   34  C   UNL     1     -44.022  55.600 -60.136  1.00  0.00     0.045 A 
ENDBRANCH  27  30
ENDBRANCH   8  26
TORSDOF 5
ENDMDL
MODEL 7
REMARK VINA RESULT:      -6.6     17.651     22.405
REMARK  5 active torsions:
REMARK  status: ('A' for Active; 'I' for Inactive)
REMARK    1  A    between atoms: C_4  and  C_5 
REMARK       I    between atoms: C_5  and  N_6 
REMARK    2  A    between atoms: N_6  and  C_7 
REMARK    3  A    between atoms: C_10  and  C_11 
REMARK    4  A    between atoms: C_18  and  N_19 
REMARK       I    between atoms: N_19  and  C_20 
REMARK    5  A    between atoms: C_20  and  C_21 
ROOT
HETATM    1  C   UNL     1     -43.207  56.811 -56.988  1.00  0.00     0.139 A 
HETATM    2  N   UNL     1     -43.203  55.510 -56.747  1.00  0.00    -0.228 NA
HETATM    3  C   UNL     1     -42.444  55.328 -55.612  1.00  0.00     0.088 A 
HETATM    4  C   UNL     1     -41.964  56.543 -55.148  1.00  0.00     0.063 A 
HETATM    5  N   UNL     1     -42.461  57.462 -56.031  1.00  0.00    -0.338 N 
HETATM    6  H   UNL     1     -42.281  58.453 -56.004  1.00  0.00     0.167 HD
HETATM    7  C   UNL     1     -42.114  54.147 -54.923  1.00  0.00     0.063 A 
HETATM    8  C   UNL     1     -41.302  54.234 -53.784  1.00  0.00     0.037 A 
HETATM    9  C   UNL     1     -40.836  55.486 -53.350  1.00  0.00     0.032 A 
HETATM   10  C   UNL     1     -41.157  56.672 -54.021  1.00  0.00     0.034 A 
ENDROOT
BRANCH   1  11
HETATM   11  C   UNL     1     -43.852  57.490 -58.117  1.00  0.00     0.010 A 
HETATM   12  C   UNL     1     -44.484  56.785 -59.149  1.00  0.00     0.017 A 
HETATM   13  C   UNL     1     -45.143  57.458 -60.186  1.00  0.00     0.030 A 
HETATM   14  C   UNL     1     -45.181  58.850 -60.219  1.00  0.00     0.035 A 
HETATM   15  C   UNL     1     -44.519  59.562 -59.214  1.00  0.00     0.030 A 
HETATM   16  C   UNL     1     -43.862  58.889 -58.175  1.00  0.00     0.017 A 
BRANCH  14  17
HETATM   17  N   UNL     1     -45.858  59.592 -61.206  1.00  0.00    -0.321 N 
HETATM   18  C   UNL     1     -47.221  59.805 -61.329  1.00  0.00     0.279 C 
HETATM   19  O   UNL     1     -48.084  59.345 -60.589  1.00  0.00    -0.265 OA
HETATM   20  H   UNL     1     -45.290  60.074 -61.895  1.00  0.00     0.169 HD
BRANCH  18  21
HETATM   21  C   UNL     1     -47.557  60.673 -62.444  1.00  0.00     0.142 A 
HETATM   22  O   UNL     1     -48.751  60.505 -63.100  1.00  0.00    -0.317 OA
HETATM   23  C   UNL     1     -48.798  61.438 -64.087  1.00  0.00     0.143 A 
HETATM   24  C   UNL     1     -47.655  62.201 -64.087  1.00  0.00     0.027 A 
HETATM   25  C   UNL     1     -46.855  61.711 -63.028  1.00  0.00     0.045 A 
ENDBRANCH  18  21
ENDBRANCH  14  17
ENDBRANCH   1  11
BRANCH   8  26
HETATM   26  N   UNL     1     -40.901  53.123 -53.016  1.00  0.00    -0.321 N 
HETATM   27  C   UNL     1     -40.181  52.011 -53.410  1.00  0.00     0.279 C 
HETATM   28  O   UNL     1     -39.756  51.796 -54.539  1.00  0.00    -0.265 OA
HETATM   29  H   UNL     1     -41.165  53.120 -52.036  1.00  0.00     0.169 HD
BRANCH  27  30
HETATM   30  C   UNL     1     -39.965  51.082 -52.312  1.00  0.00     0.142 A 
HETATM   31  O   UNL     1     -40.222  51.490 -51.025  1.00  0.00    -0.317 OA
HETATM   32  C   UNL     1     -39.939  50.442 -50.208  1.00  0.00     0.143 A 
HETATM   33  C   UNL     1     -39.504  49.363 -50.941  1.00  0.00     0.027 A 
HETATM   34  C   UNL     1     -39.521  49.773 -52.296  1.00  0.00     0.045 A 
ENDBRANCH  27  30
ENDBRANCH   8  26
TORSDOF 5
ENDMDL
MODEL 8
REMARK VINA RESULT:      -6.6      1.936      2.616
REMARK  5 active torsions:
REMARK  status: ('A' for Active; 'I' for Inactive)
REMARK    1  A    between atoms: C_4  and  C_5 
REMARK       I    between atoms: C_5  and  N_6 
REMARK    2  A    between atoms: N_6  and  C_7 
REMARK    3  A    between atoms: C_10  and  C_11 
REMARK    4  A    between atoms: C_18  and  N_19 
REMARK       I    between atoms: N_19  and  C_20 
REMARK    5  A    between atoms: C_20  and  C_21 
ROOT
HETATM    1  C   UNL     1     -35.945  39.617 -54.936  1.00  0.00     0.139 A 
HETATM    2  N   UNL     1     -36.606  38.661 -55.567  1.00  0.00    -0.228 NA
HETATM    3  C   UNL     1     -37.126  39.234 -56.706  1.00  0.00     0.088 A 
HETATM    4  C   UNL     1     -36.783  40.575 -56.775  1.00  0.00     0.063 A 
HETATM    5  N   UNL     1     -36.037  40.792 -55.648  1.00  0.00    -0.338 N 
HETATM    6  H   UNL     1     -35.647  41.679 -55.370  1.00  0.00     0.167 HD
HETATM    7  C   UNL     1     -37.910  38.669 -57.728  1.00  0.00     0.063 A 
HETATM    8  C   UNL     1     -38.327  39.483 -58.789  1.00  0.00     0.037 A 
HETATM    9  C   UNL     1     -37.959  40.839 -58.817  1.00  0.00     0.032 A 
HETATM   10  C   UNL     1     -37.177  41.418 -57.811  1.00  0.00     0.034 A 
ENDROOT
BRANCH   1  11
HETATM   11  C   UNL     1     -35.251  39.500 -53.649  1.00  0.00     0.010 A 
HETATM   12  C   UNL     1     -34.433  40.520 -53.147  1.00  0.00     0.017 A 
HETATM   13  C   UNL     1     -33.826  40.407 -51.889  1.00  0.00     0.030 A 
HETATM   14  C   UNL     1     -34.019  39.270 -51.106  1.00  0.00     0.035 A 
HETATM   15  C   UNL     1     -34.802  38.231 -51.617  1.00  0.00     0.030 A 
HETATM   16  C   UNL     1     -35.411  38.345 -52.874  1.00  0.00     0.017 A 
BRANCH  14  17
HETATM   17  N   UNL     1     -33.477  39.106 -49.818  1.00  0.00    -0.321 N 
HETATM   18  C   UNL     1     -32.442  38.273 -49.425  1.00  0.00     0.279 C 
HETATM   19  O   UNL     1     -31.832  37.501 -50.157  1.00  0.00    -0.265 OA
HETATM   20  H   UNL     1     -33.848  39.697 -49.080  1.00  0.00     0.169 HD
BRANCH  18  21
HETATM   21  C   UNL     1     -32.113  38.409 -48.016  1.00  0.00     0.142 A 
HETATM   22  O   UNL     1     -30.912  38.963 -47.650  1.00  0.00    -0.317 OA
HETATM   23  C   UNL     1     -30.870  38.961 -46.292  1.00  0.00     0.143 A 
HETATM   24  C   UNL     1     -32.018  38.413 -45.773  1.00  0.00     0.027 A 
HETATM   25  C   UNL     1     -32.821  38.058 -46.883  1.00  0.00     0.045 A 
ENDBRANCH  18  21
ENDBRANCH  14  17
ENDBRANCH   1  11
BRANCH   8  26
HETATM   26  N   UNL     1     -39.118  39.033 -59.864  1.00  0.00    -0.321 N 
HETATM   27  C   UNL     1     -38.766  38.199 -60.909  1.00  0.00     0.279 C 
HETATM   28  O   UNL     1     -37.662  37.695 -61.082  1.00  0.00    -0.265 OA
HETATM   29  H   UNL     1     -40.080  39.351 -59.894  1.00  0.00     0.169 HD
BRANCH  27  30
HETATM   30  C   UNL     1     -39.874  37.968 -61.821  1.00  0.00     0.142 A 
HETATM   31  O   UNL     1     -39.614  37.568 -63.110  1.00  0.00    -0.317 OA
HETATM   32  C   UNL     1     -40.811  37.428 -63.737  1.00  0.00     0.143 A 
HETATM   33  C   UNL     1     -41.842  37.730 -62.880  1.00  0.00     0.027 A 
HETATM   34  C   UNL     1     -41.241  38.078 -61.646  1.00  0.00     0.045 A 
ENDBRANCH  27  30
ENDBRANCH   8  26
TORSDOF 5
ENDMDL
MODEL 9
REMARK VINA RESULT:      -6.4     18.158     20.144
REMARK  5 active torsions:
REMARK  status: ('A' for Active; 'I' for Inactive)
REMARK    1  A    between atoms: C_4  and  C_5 
REMARK       I    between atoms: C_5  and  N_6 
REMARK    2  A    between atoms: N_6  and  C_7 
REMARK    3  A    between atoms: C_10  and  C_11 
REMARK    4  A    between atoms: C_18  and  N_19 
REMARK       I    between atoms: N_19  and  C_20 
REMARK    5  A    between atoms: C_20  and  C_21 
ROOT
HETATM    1  C   UNL     1     -42.868  56.960 -57.147  1.00  0.00     0.139 A 
HETATM    2  N   UNL     1     -44.057  57.537 -57.177  1.00  0.00    -0.228 NA
HETATM    3  C   UNL     1     -44.063  58.358 -58.283  1.00  0.00     0.088 A 
HETATM    4  C   UNL     1     -42.848  58.289 -58.946  1.00  0.00     0.063 A 
HETATM    5  N   UNL     1     -42.112  57.400 -58.211  1.00  0.00    -0.338 N 
HETATM    6  H   UNL     1     -41.158  57.136 -58.401  1.00  0.00     0.167 HD
HETATM    7  C   UNL     1     -45.073  59.200 -58.781  1.00  0.00     0.063 A 
HETATM    8  C   UNL     1     -44.819  59.952 -59.936  1.00  0.00     0.037 A 
HETATM    9  C   UNL     1     -43.571  59.853 -60.575  1.00  0.00     0.032 A 
HETATM   10  C   UNL     1     -42.555  59.018 -60.095  1.00  0.00     0.034 A 
ENDROOT
BRANCH   1  11
HETATM   11  C   UNL     1     -42.372  56.028 -56.128  1.00  0.00     0.010 A 
HETATM   12  C   UNL     1     -41.420  56.404 -55.173  1.00  0.00     0.017 A 
HETATM   13  C   UNL     1     -41.005  55.513 -54.175  1.00  0.00     0.030 A 
HETATM   14  C   UNL     1     -41.529  54.223 -54.112  1.00  0.00     0.035 A 
HETATM   15  C   UNL     1     -42.451  53.826 -55.085  1.00  0.00     0.030 A 
HETATM   16  C   UNL     1     -42.868  54.719 -56.082  1.00  0.00     0.017 A 
BRANCH  14  17
HETATM   17  N   UNL     1     -41.191  53.289 -53.114  1.00  0.00    -0.321 N 
HETATM   18  C   UNL     1     -40.213  52.310 -53.155  1.00  0.00     0.279 C 
HETATM   19  O   UNL     1     -39.479  52.076 -54.110  1.00  0.00    -0.265 OA
HETATM   20  H   UNL     1     -41.686  53.356 -52.230  1.00  0.00     0.169 HD
BRANCH  18  21
HETATM   21  C   UNL     1     -40.111  51.563 -51.913  1.00  0.00     0.142 A 
HETATM   22  O   UNL     1     -39.625  50.279 -51.931  1.00  0.00    -0.317 OA
HETATM   23  C   UNL     1     -39.645  49.829 -50.649  1.00  0.00     0.143 A 
HETATM   24  C   UNL     1     -40.139  50.794 -49.804  1.00  0.00     0.027 A 
HETATM   25  C   UNL     1     -40.438  51.912 -50.617  1.00  0.00     0.045 A 
ENDBRANCH  18  21
ENDBRANCH  14  17
ENDBRANCH   1  11
BRANCH   8  26
HETATM   26  N   UNL     1     -45.748  60.832 -60.525  1.00  0.00    -0.321 N 
HETATM   27  C   UNL     1     -46.869  60.532 -61.277  1.00  0.00     0.279 C 
HETATM   28  O   UNL     1     -47.254  59.406 -61.572  1.00  0.00    -0.265 OA
HETATM   29  H   UNL     1     -45.593  61.825 -60.388  1.00  0.00     0.169 HD
BRANCH  27  30
HETATM   30  C   UNL     1     -47.576  61.729 -61.704  1.00  0.00     0.142 A 
HETATM   31  O   UNL     1     -46.896  62.702 -62.397  1.00  0.00    -0.317 OA
HETATM   32  C   UNL     1     -47.782  63.695 -62.667  1.00  0.00     0.143 A 
HETATM   33  C   UNL     1     -49.023  63.386 -62.163  1.00  0.00     0.027 A 
HETATM   34  C   UNL     1     -48.892  62.120 -61.542  1.00  0.00     0.045 A 
ENDBRANCH  27  30
ENDBRANCH   8  26
TORSDOF 5
ENDMDL
MODEL 10
REMARK VINA RESULT:      -6.4     19.069     23.866
REMARK  5 active torsions:
REMARK  status: ('A' for Active; 'I' for Inactive)
REMARK    1  A    between atoms: C_4  and  C_5 
REMARK       I    between atoms: C_5  and  N_6 
REMARK    2  A    between atoms: N_6  and  C_7 
REMARK    3  A    between atoms: C_10  and  C_11 
REMARK    4  A    between atoms: C_18  and  N_19 
REMARK       I    between atoms: N_19  and  C_20 
REMARK    5  A    between atoms: C_20  and  C_21 
ROOT
HETATM    1  C   UNL     1     -44.433  57.383 -57.113  1.00  0.00     0.139 A 
HETATM    2  N   UNL     1     -44.355  57.599 -55.810  1.00  0.00    -0.228 NA
HETATM    3  C   UNL     1     -43.456  56.679 -55.317  1.00  0.00     0.088 A 
HETATM    4  C   UNL     1     -42.974  55.875 -56.338  1.00  0.00     0.063 A 
HETATM    5  N   UNL     1     -43.604  56.340 -57.460  1.00  0.00    -0.338 N 
HETATM    6  H   UNL     1     -43.502  55.957 -58.387  1.00  0.00     0.167 HD
HETATM    7  C   UNL     1     -43.006  56.467 -54.002  1.00  0.00     0.063 A 
HETATM    8  C   UNL     1     -42.083  55.441 -53.760  1.00  0.00     0.037 A 
HETATM    9  C   UNL     1     -41.623  54.648 -54.824  1.00  0.00     0.032 A 
HETATM   10  C   UNL     1     -42.057  54.846 -56.141  1.00  0.00     0.034 A 
ENDROOT
BRANCH   1  11
HETATM   11  C   UNL     1     -45.294  58.090 -58.067  1.00  0.00     0.010 A 
HETATM   12  C   UNL     1     -44.885  58.368 -59.377  1.00  0.00     0.017 A 
HETATM   13  C   UNL     1     -45.748  58.993 -60.287  1.00  0.00     0.030 A 
HETATM   14  C   UNL     1     -47.037  59.361 -59.907  1.00  0.00     0.035 A 
HETATM   15  C   UNL     1     -47.439  59.123 -58.589  1.00  0.00     0.030 A 
HETATM   16  C   UNL     1     -46.577  58.494 -57.679  1.00  0.00     0.017 A 
BRANCH  14  17
HETATM   17  N   UNL     1     -47.971  59.953 -60.778  1.00  0.00    -0.321 N 
HETATM   18  C   UNL     1     -48.725  59.343 -61.766  1.00  0.00     0.279 C 
HETATM   19  O   UNL     1     -48.678  58.154 -62.065  1.00  0.00    -0.265 OA
HETATM   20  H   UNL     1     -48.160  60.942 -60.651  1.00  0.00     0.169 HD
BRANCH  18  21
HETATM   21  C   UNL     1     -49.630  60.262 -62.433  1.00  0.00     0.142 A 
HETATM   22  O   UNL     1     -50.937  59.899 -62.639  1.00  0.00    -0.317 OA
HETATM   23  C   UNL     1     -51.542  60.934 -63.279  1.00  0.00     0.143 A 
HETATM   24  C   UNL     1     -50.650  61.958 -63.494  1.00  0.00     0.027 A 
HETATM   25  C   UNL     1     -49.418  61.527 -62.948  1.00  0.00     0.045 A 
ENDBRANCH  18  21
ENDBRANCH  14  17
ENDBRANCH   1  11
BRANCH   8  26
HETATM   26  N   UNL     1     -41.565  55.130 -52.487  1.00  0.00    -0.321 N 
HETATM   27  C   UNL     1     -42.133  54.370 -51.482  1.00  0.00     0.279 C 
HETATM   28  O   UNL     1     -43.228  53.821 -51.531  1.00  0.00    -0.265 OA
HETATM   29  H   UNL     1     -40.650  55.503 -52.258  1.00  0.00     0.169 HD
BRANCH  27  30
HETATM   30  C   UNL     1     -41.274  54.281 -50.312  1.00  0.00     0.142 A 
HETATM   31  O   UNL     1     -41.829  54.389 -49.059  1.00  0.00    -0.317 OA
HETATM   32  C   UNL     1     -40.817  54.274 -48.161  1.00  0.00     0.143 A 
HETATM   33  C   UNL     1     -39.617  54.094 -48.806  1.00  0.00     0.027 A 
HETATM   34  C   UNL     1     -39.909  54.098 -50.192  1.00  0.00     0.045 A 
ENDBRANCH  27  30
ENDBRANCH   8  26
TORSDOF 5
ENDMDL
