MODEL 1
REMARK VINA RESULT:      -8.4      0.000      0.000
REMARK  6 active torsions:
REMARK  status: ('A' for Active; 'I' for Inactive)
REMARK    1  A    between atoms: C_7  and  C_8 
REMARK    2  A    between atoms: C_8  and  C_9 
REMARK       I    between atoms: C_9  and  N_10 
REMARK    3  A    between atoms: N_10  and  C_11 
REMARK    4  A    between atoms: C_11  and  C_12 
REMARK    5  A    between atoms: C_19  and  C_20 
REMARK    6  A    between atoms: C_23  and  O_24 
ROOT
HETATM    1  C   UNL     1     -41.545  57.812 -51.303  1.00  0.00     0.151 C 
HETATM    2  O   UNL     1     -42.989  57.974 -51.417  1.00  0.00    -0.343 OA
HETATM    3  C   UNL     1     -43.261  57.768 -52.739  1.00  0.00     0.075 A 
HETATM    4  C   UNL     1     -42.180  57.331 -53.476  1.00  0.00    -0.021 A 
HETATM    5  C   UNL     1     -41.004  57.172 -52.595  1.00  0.00     0.075 C 
HETATM    6  C   UNL     1     -44.502  57.936 -53.313  1.00  0.00     0.038 A 
HETATM    7  C   UNL     1     -44.642  57.655 -54.677  1.00  0.00     0.016 A 
HETATM    8  C   UNL     1     -43.552  57.207 -55.465  1.00  0.00    -0.005 A 
HETATM    9  C   UNL     1     -42.304  57.046 -54.827  1.00  0.00     0.024 A 
ENDROOT
BRANCH   1  10
HETATM   10  C   UNL     1     -41.256  56.967 -50.054  1.00  0.00     0.155 C 
BRANCH  10  11
HETATM   11  N   UNL     1     -40.619  55.687 -50.311  1.00  0.00    -0.359 N 
HETATM   12  C   UNL     1     -41.264  54.490 -50.088  1.00  0.00     0.219 C 
HETATM   13  O   UNL     1     -42.394  54.415 -49.621  1.00  0.00    -0.274 OA
HETATM   14  H   UNL     1     -39.736  55.686 -50.808  1.00  0.00     0.162 HD
BRANCH  12  15
HETATM   15  C   UNL     1     -40.434  53.288 -50.490  1.00  0.00     0.128 C 
BRANCH  15  16
HETATM   16  C   UNL     1     -40.207  53.210 -52.003  1.00  0.00     0.094 C 
HETATM   17  N   UNL     1     -39.870  51.840 -52.385  1.00  0.00    -0.362 N 
HETATM   18  C   UNL     1     -40.065  51.323 -53.624  1.00  0.00     0.168 C 
HETATM   19  H   UNL     1     -39.211  51.319 -51.818  1.00  0.00     0.162 HD
HETATM   20  N   UNL     1     -40.812  52.042 -54.496  1.00  0.00    -0.363 N 
HETATM   21  S   UNL     1     -39.446  49.840 -54.038  1.00  0.00    -0.041 SA
HETATM   22  C   UNL     1     -41.224  53.417 -54.281  1.00  0.00     0.081 C 
HETATM   23  H   UNL     1     -40.919  51.639 -55.419  1.00  0.00     0.162 HD
HETATM   24  C   UNL     1     -40.220  54.382 -54.908  1.00  0.00     0.032 C 
HETATM   25  C   UNL     1     -41.439  53.673 -52.790  1.00  0.00     0.050 C 
ENDBRANCH  15  16
ENDBRANCH  12  15
ENDBRANCH  10  11
ENDBRANCH   1  10
BRANCH   8  26
HETATM   26  C   UNL     1     -43.700  56.890 -56.900  1.00  0.00     0.089 A 
HETATM   27  N   UNL     1     -44.528  57.698 -57.608  1.00  0.00    -0.147 NA
HETATM   28  N   UNL     1     -44.736  57.491 -58.951  1.00  0.00    -0.124 NA
HETATM   29  C   UNL     1     -44.111  56.473 -59.570  1.00  0.00     0.185 A 
HETATM   30  C   UNL     1     -43.263  55.620 -58.895  1.00  0.00     0.062 A 
HETATM   31  C   UNL     1     -43.055  55.831 -57.533  1.00  0.00     0.038 A 
BRANCH  29  32
HETATM   32  O   UNL     1     -44.297  56.238 -60.916  1.00  0.00    -0.338 OA
HETATM   33  C   UNL     1     -44.940  54.994 -61.177  1.00  0.00     0.211 C 
ENDBRANCH  29  32
ENDBRANCH   8  26
TORSDOF 6
ENDMDL
MODEL 2
REMARK VINA RESULT:      -7.9      3.206      7.005
REMARK  6 active torsions:
REMARK  status: ('A' for Active; 'I' for Inactive)
REMARK    1  A    between atoms: C_7  and  C_8 
REMARK    2  A    between atoms: C_8  and  C_9 
REMARK       I    between atoms: C_9  and  N_10 
REMARK    3  A    between atoms: N_10  and  C_11 
REMARK    4  A    between atoms: C_11  and  C_12 
REMARK    5  A    between atoms: C_19  and  C_20 
REMARK    6  A    between atoms: C_23  and  O_24 
ROOT
HETATM    1  C   UNL     1     -44.364  59.413 -52.552  1.00  0.00     0.151 C 
HETATM    2  O   UNL     1     -43.054  59.683 -53.133  1.00  0.00    -0.343 OA
HETATM    3  C   UNL     1     -42.434  58.467 -53.176  1.00  0.00     0.075 A 
HETATM    4  C   UNL     1     -43.247  57.407 -52.837  1.00  0.00    -0.021 A 
HETATM    5  C   UNL     1     -44.612  57.894 -52.547  1.00  0.00     0.075 C 
HETATM    6  C   UNL     1     -41.123  58.278 -53.554  1.00  0.00     0.038 A 
HETATM    7  C   UNL     1     -40.627  56.968 -53.584  1.00  0.00     0.016 A 
HETATM    8  C   UNL     1     -41.435  55.854 -53.240  1.00  0.00    -0.005 A 
HETATM    9  C   UNL     1     -42.772  56.105 -52.865  1.00  0.00     0.024 A 
ENDROOT
BRANCH   1  10
HETATM   10  C   UNL     1     -45.414  60.185 -53.363  1.00  0.00     0.155 C 
BRANCH  10  11
HETATM   11  N   UNL     1     -45.847  59.534 -54.588  1.00  0.00    -0.359 N 
HETATM   12  C   UNL     1     -45.256  59.795 -55.805  1.00  0.00     0.219 C 
HETATM   13  O   UNL     1     -44.362  60.619 -55.952  1.00  0.00    -0.274 OA
HETATM   14  H   UNL     1     -46.497  58.760 -54.512  1.00  0.00     0.162 HD
BRANCH  12  15
HETATM   15  C   UNL     1     -45.822  58.952 -56.929  1.00  0.00     0.128 C 
BRANCH  15  16
HETATM   16  C   UNL     1     -44.799  57.962 -57.495  1.00  0.00     0.094 C 
HETATM   17  N   UNL     1     -44.043  58.591 -58.576  1.00  0.00    -0.362 N 
HETATM   18  C   UNL     1     -42.802  58.207 -58.964  1.00  0.00     0.168 C 
HETATM   19  H   UNL     1     -44.539  59.147 -59.264  1.00  0.00     0.162 HD
HETATM   20  N   UNL     1     -42.135  57.337 -58.168  1.00  0.00    -0.363 N 
HETATM   21  S   UNL     1     -42.110  58.816 -60.344  1.00  0.00    -0.041 SA
HETATM   22  C   UNL     1     -42.734  56.617 -57.060  1.00  0.00     0.081 C 
HETATM   23  H   UNL     1     -41.220  57.052 -58.498  1.00  0.00     0.162 HD
HETATM   24  C   UNL     1     -43.235  55.248 -57.517  1.00  0.00     0.032 C 
HETATM   25  C   UNL     1     -43.831  57.463 -56.416  1.00  0.00     0.050 C 
ENDBRANCH  15  16
ENDBRANCH  12  15
ENDBRANCH  10  11
ENDBRANCH   1  10
BRANCH   8  26
HETATM   26  C   UNL     1     -40.923  54.470 -53.289  1.00  0.00     0.089 A 
HETATM   27  N   UNL     1     -40.636  53.896 -52.093  1.00  0.00    -0.147 NA
HETATM   28  N   UNL     1     -40.155  52.611 -52.026  1.00  0.00    -0.124 NA
HETATM   29  C   UNL     1     -39.964  51.913 -53.161  1.00  0.00     0.185 A 
HETATM   30  C   UNL     1     -40.235  52.452 -54.402  1.00  0.00     0.062 A 
HETATM   31  C   UNL     1     -40.721  53.757 -54.467  1.00  0.00     0.038 A 
BRANCH  29  32
HETATM   32  O   UNL     1     -39.483  50.621 -53.129  1.00  0.00    -0.338 OA
HETATM   33  C   UNL     1     -39.752  49.901 -54.329  1.00  0.00     0.211 C 
ENDBRANCH  29  32
ENDBRANCH   8  26
TORSDOF 6
ENDMDL
MODEL 3
REMARK VINA RESULT:      -7.8      2.959      7.312
REMARK  6 active torsions:
REMARK  status: ('A' for Active; 'I' for Inactive)
REMARK    1  A    between atoms: C_7  and  C_8 
REMARK    2  A    between atoms: C_8  and  C_9 
REMARK       I    between atoms: C_9  and  N_10 
REMARK    3  A    between atoms: N_10  and  C_11 
REMARK    4  A    between atoms: C_11  and  C_12 
REMARK    5  A    between atoms: C_19  and  C_20 
REMARK    6  A    between atoms: C_23  and  O_24 
ROOT
HETATM    1  C   UNL     1     -44.382  59.309 -52.823  1.00  0.00     0.151 C 
HETATM    2  O   UNL     1     -43.023  59.589 -53.270  1.00  0.00    -0.343 OA
HETATM    3  C   UNL     1     -42.402  58.373 -53.283  1.00  0.00     0.075 A 
HETATM    4  C   UNL     1     -43.244  57.307 -53.049  1.00  0.00    -0.021 A 
HETATM    5  C   UNL     1     -44.630  57.790 -52.878  1.00  0.00     0.075 C 
HETATM    6  C   UNL     1     -41.061  58.189 -53.539  1.00  0.00     0.038 A 
HETATM    7  C   UNL     1     -40.565  56.879 -53.553  1.00  0.00     0.016 A 
HETATM    8  C   UNL     1     -41.402  55.759 -53.315  1.00  0.00    -0.005 A 
HETATM    9  C   UNL     1     -42.768  56.004 -53.063  1.00  0.00     0.024 A 
ENDROOT
BRANCH   1  10
HETATM   10  C   UNL     1     -45.350  60.103 -53.711  1.00  0.00     0.155 C 
BRANCH  10  11
HETATM   11  N   UNL     1     -45.805  59.406 -54.902  1.00  0.00    -0.359 N 
HETATM   12  C   UNL     1     -45.199  59.579 -56.128  1.00  0.00     0.219 C 
HETATM   13  O   UNL     1     -44.272  60.358 -56.313  1.00  0.00    -0.274 OA
HETATM   14  H   UNL     1     -46.485  58.664 -54.789  1.00  0.00     0.162 HD
BRANCH  12  15
HETATM   15  C   UNL     1     -45.795  58.702 -57.210  1.00  0.00     0.128 C 
BRANCH  15  16
HETATM   16  C   UNL     1     -44.744  58.194 -58.201  1.00  0.00     0.094 C 
HETATM   17  N   UNL     1     -45.037  56.811 -58.572  1.00  0.00    -0.362 N 
HETATM   18  C   UNL     1     -44.628  56.227 -59.726  1.00  0.00     0.168 C 
HETATM   19  H   UNL     1     -45.307  56.155 -57.848  1.00  0.00     0.162 HD
HETATM   20  N   UNL     1     -44.107  57.028 -60.686  1.00  0.00    -0.363 N 
HETATM   21  S   UNL     1     -44.802  54.594 -59.966  1.00  0.00    -0.041 SA
HETATM   22  C   UNL     1     -43.747  58.419 -60.486  1.00  0.00     0.081 C 
HETATM   23  H   UNL     1     -43.791  56.557 -61.527  1.00  0.00     0.162 HD
HETATM   24  C   UNL     1     -42.275  58.541 -60.098  1.00  0.00     0.032 C 
HETATM   25  C   UNL     1     -44.683  59.061 -59.464  1.00  0.00     0.050 C 
ENDBRANCH  15  16
ENDBRANCH  12  15
ENDBRANCH  10  11
ENDBRANCH   1  10
BRANCH   8  26
HETATM   26  C   UNL     1     -40.888  54.375 -53.349  1.00  0.00     0.089 A 
HETATM   27  N   UNL     1     -40.537  53.839 -52.153  1.00  0.00    -0.147 NA
HETATM   28  N   UNL     1     -40.048  52.558 -52.072  1.00  0.00    -0.124 NA
HETATM   29  C   UNL     1     -39.914  51.826 -53.194  1.00  0.00     0.185 A 
HETATM   30  C   UNL     1     -40.252  52.326 -54.434  1.00  0.00     0.062 A 
HETATM   31  C   UNL     1     -40.746  53.627 -54.514  1.00  0.00     0.038 A 
BRANCH  29  32
HETATM   32  O   UNL     1     -39.428  50.537 -53.147  1.00  0.00    -0.338 OA
HETATM   33  C   UNL     1     -39.619  49.829 -54.370  1.00  0.00     0.211 C 
ENDBRANCH  29  32
ENDBRANCH   8  26
TORSDOF 6
ENDMDL
MODEL 4
REMARK VINA RESULT:      -7.8      2.901      7.015
REMARK  6 active torsions:
REMARK  status: ('A' for Active; 'I' for Inactive)
REMARK    1  A    between atoms: C_7  and  C_8 
REMARK    2  A    between atoms: C_8  and  C_9 
REMARK       I    between atoms: C_9  and  N_10 
REMARK    3  A    between atoms: N_10  and  C_11 
REMARK    4  A    between atoms: C_11  and  C_12 
REMARK    5  A    between atoms: C_19  and  C_20 
REMARK    6  A    between atoms: C_23  and  O_24 
ROOT
HETATM    1  C   UNL     1     -44.918  59.074 -51.353  1.00  0.00     0.151 C 
HETATM    2  O   UNL     1     -43.528  59.464 -51.150  1.00  0.00    -0.343 OA
HETATM    3  C   UNL     1     -42.828  58.291 -51.182  1.00  0.00     0.075 A 
HETATM    4  C   UNL     1     -43.582  57.195 -51.544  1.00  0.00    -0.021 A 
HETATM    5  C   UNL     1     -44.969  57.613 -51.836  1.00  0.00     0.075 C 
HETATM    6  C   UNL     1     -41.481  58.184 -50.919  1.00  0.00     0.038 A 
HETATM    7  C   UNL     1     -40.886  56.921 -51.023  1.00  0.00     0.016 A 
HETATM    8  C   UNL     1     -41.630  55.771 -51.390  1.00  0.00    -0.005 A 
HETATM    9  C   UNL     1     -43.006  55.938 -51.655  1.00  0.00     0.024 A 
ENDROOT
BRANCH   1  10
HETATM   10  C   UNL     1     -45.547  60.054 -52.354  1.00  0.00     0.155 C 
BRANCH  10  11
HETATM   11  N   UNL     1     -45.660  59.556 -53.714  1.00  0.00    -0.359 N 
HETATM   12  C   UNL     1     -44.663  59.739 -54.647  1.00  0.00     0.219 C 
HETATM   13  O   UNL     1     -43.637  60.368 -54.415  1.00  0.00    -0.274 OA
HETATM   14  H   UNL     1     -46.427  58.929 -53.930  1.00  0.00     0.162 HD
BRANCH  12  15
HETATM   15  C   UNL     1     -44.967  59.078 -55.975  1.00  0.00     0.128 C 
BRANCH  15  16
HETATM   16  C   UNL     1     -44.445  57.640 -56.049  1.00  0.00     0.094 C 
HETATM   17  N   UNL     1     -44.187  57.275 -57.440  1.00  0.00    -0.362 N 
HETATM   18  C   UNL     1     -43.316  56.311 -57.828  1.00  0.00     0.168 C 
HETATM   19  H   UNL     1     -44.865  57.530 -58.149  1.00  0.00     0.162 HD
HETATM   20  N   UNL     1     -42.477  55.807 -56.891  1.00  0.00    -0.363 N 
HETATM   21  S   UNL     1     -43.252  55.800 -59.406  1.00  0.00    -0.041 SA
HETATM   22  C   UNL     1     -42.596  56.057 -55.467  1.00  0.00     0.081 C 
HETATM   23  H   UNL     1     -41.854  55.072 -57.208  1.00  0.00     0.162 HD
HETATM   24  C   UNL     1     -43.419  54.958 -54.796  1.00  0.00     0.032 C 
HETATM   25  C   UNL     1     -43.166  57.453 -55.225  1.00  0.00     0.050 C 
ENDBRANCH  15  16
ENDBRANCH  12  15
ENDBRANCH  10  11
ENDBRANCH   1  10
BRANCH   8  26
HETATM   26  C   UNL     1     -41.004  54.440 -51.522  1.00  0.00     0.089 A 
HETATM   27  N   UNL     1     -40.760  53.778 -50.363  1.00  0.00    -0.147 NA
HETATM   28  N   UNL     1     -40.181  52.532 -50.372  1.00  0.00    -0.124 NA
HETATM   29  C   UNL     1     -39.849  51.962 -51.546  1.00  0.00     0.185 A 
HETATM   30  C   UNL     1     -40.071  52.596 -52.751  1.00  0.00     0.062 A 
HETATM   31  C   UNL     1     -40.657  53.860 -52.739  1.00  0.00     0.038 A 
BRANCH  29  32
HETATM   32  O   UNL     1     -39.267  50.713 -51.590  1.00  0.00    -0.338 OA
HETATM   33  C   UNL     1     -39.810  49.816 -50.624  1.00  0.00     0.211 C 
ENDBRANCH  29  32
ENDBRANCH   8  26
TORSDOF 6
ENDMDL
MODEL 5
REMARK VINA RESULT:      -7.6      3.796      7.010
REMARK  6 active torsions:
REMARK  status: ('A' for Active; 'I' for Inactive)
REMARK    1  A    between atoms: C_7  and  C_8 
REMARK    2  A    between atoms: C_8  and  C_9 
REMARK       I    between atoms: C_9  and  N_10 
REMARK    3  A    between atoms: N_10  and  C_11 
REMARK    4  A    between atoms: C_11  and  C_12 
REMARK    5  A    between atoms: C_19  and  C_20 
REMARK    6  A    between atoms: C_23  and  O_24 
ROOT
HETATM    1  C   UNL     1     -43.275  57.644 -56.384  1.00  0.00     0.151 C 
HETATM    2  O   UNL     1     -42.125  58.382 -55.876  1.00  0.00    -0.343 OA
HETATM    3  C   UNL     1     -42.552  58.925 -54.697  1.00  0.00     0.075 A 
HETATM    4  C   UNL     1     -43.799  58.496 -54.297  1.00  0.00    -0.021 A 
HETATM    5  C   UNL     1     -44.327  57.513 -55.267  1.00  0.00     0.075 C 
HETATM    6  C   UNL     1     -41.812  59.800 -53.933  1.00  0.00     0.038 A 
HETATM    7  C   UNL     1     -42.363  60.252 -52.727  1.00  0.00     0.016 A 
HETATM    8  C   UNL     1     -43.643  59.833 -52.285  1.00  0.00    -0.005 A 
HETATM    9  C   UNL     1     -44.356  58.931 -53.104  1.00  0.00     0.024 A 
ENDROOT
BRANCH   1  10
HETATM   10  C   UNL     1     -42.781  56.285 -56.899  1.00  0.00     0.155 C 
BRANCH  10  11
HETATM   11  N   UNL     1     -41.722  55.677 -56.112  1.00  0.00    -0.359 N 
HETATM   12  C   UNL     1     -41.948  54.592 -55.293  1.00  0.00     0.219 C 
HETATM   13  O   UNL     1     -43.055  54.093 -55.134  1.00  0.00    -0.274 OA
HETATM   14  H   UNL     1     -40.768  55.968 -56.292  1.00  0.00     0.162 HD
BRANCH  12  15
HETATM   15  C   UNL     1     -40.688  54.084 -54.624  1.00  0.00     0.128 C 
BRANCH  15  16
HETATM   16  C   UNL     1     -40.697  54.303 -53.108  1.00  0.00     0.094 C 
HETATM   17  N   UNL     1     -41.905  55.026 -52.717  1.00  0.00    -0.362 N 
HETATM   18  C   UNL     1     -42.458  54.976 -51.480  1.00  0.00     0.168 C 
HETATM   19  H   UNL     1     -42.206  55.818 -53.274  1.00  0.00     0.162 HD
HETATM   20  N   UNL     1     -41.994  54.038 -50.620  1.00  0.00    -0.363 N 
HETATM   21  S   UNL     1     -43.691  56.002 -51.052  1.00  0.00    -0.041 SA
HETATM   22  C   UNL     1     -40.803  53.239 -50.845  1.00  0.00     0.081 C 
HETATM   23  H   UNL     1     -42.412  54.042 -49.697  1.00  0.00     0.162 HD
HETATM   24  C   UNL     1     -39.584  53.903 -50.207  1.00  0.00     0.032 C 
HETATM   25  C   UNL     1     -40.621  52.979 -52.339  1.00  0.00     0.050 C 
ENDBRANCH  15  16
ENDBRANCH  12  15
ENDBRANCH  10  11
ENDBRANCH   1  10
BRANCH   8  26
HETATM   26  C   UNL     1     -44.220  60.290 -51.005  1.00  0.00     0.089 A 
HETATM   27  N   UNL     1     -45.317  59.621 -50.571  1.00  0.00    -0.147 NA
HETATM   28  N   UNL     1     -45.931  59.965 -49.391  1.00  0.00    -0.124 NA
HETATM   29  C   UNL     1     -45.439  60.981 -48.658  1.00  0.00     0.185 A 
HETATM   30  C   UNL     1     -44.330  61.697 -49.058  1.00  0.00     0.062 A 
HETATM   31  C   UNL     1     -43.709  61.346 -50.256  1.00  0.00     0.038 A 
BRANCH  29  32
HETATM   32  O   UNL     1     -46.031  61.351 -47.469  1.00  0.00    -0.338 OA
HETATM   33  C   UNL     1     -45.688  60.487 -46.388  1.00  0.00     0.211 C 
ENDBRANCH  29  32
ENDBRANCH   8  26
TORSDOF 6
ENDMDL
MODEL 6
REMARK VINA RESULT:      -7.5      3.237      8.045
REMARK  6 active torsions:
REMARK  status: ('A' for Active; 'I' for Inactive)
REMARK    1  A    between atoms: C_7  and  C_8 
REMARK    2  A    between atoms: C_8  and  C_9 
REMARK       I    between atoms: C_9  and  N_10 
REMARK    3  A    between atoms: N_10  and  C_11 
REMARK    4  A    between atoms: C_11  and  C_12 
REMARK    5  A    between atoms: C_19  and  C_20 
REMARK    6  A    between atoms: C_23  and  O_24 
ROOT
HETATM    1  C   UNL     1     -42.138  59.129 -55.213  1.00  0.00     0.151 C 
HETATM    2  O   UNL     1     -42.759  58.077 -56.009  1.00  0.00    -0.343 OA
HETATM    3  C   UNL     1     -42.254  56.913 -55.504  1.00  0.00     0.075 A 
HETATM    4  C   UNL     1     -41.497  57.075 -54.363  1.00  0.00    -0.021 A 
HETATM    5  C   UNL     1     -41.470  58.501 -53.977  1.00  0.00     0.075 C 
HETATM    6  C   UNL     1     -42.491  55.667 -56.040  1.00  0.00     0.038 A 
HETATM    7  C   UNL     1     -41.935  54.554 -55.396  1.00  0.00     0.016 A 
HETATM    8  C   UNL     1     -41.150  54.684 -54.222  1.00  0.00    -0.005 A 
HETATM    9  C   UNL     1     -40.943  55.983 -53.712  1.00  0.00     0.024 A 
ENDROOT
BRANCH   1  10
HETATM   10  C   UNL     1     -43.222  60.154 -54.849  1.00  0.00     0.155 C 
BRANCH  10  11
HETATM   11  N   UNL     1     -44.493  59.974 -55.529  1.00  0.00    -0.359 N 
HETATM   12  C   UNL     1     -44.756  60.548 -56.754  1.00  0.00     0.219 C 
HETATM   13  O   UNL     1     -43.965  61.281 -57.334  1.00  0.00    -0.274 OA
HETATM   14  H   UNL     1     -45.138  59.286 -55.159  1.00  0.00     0.162 HD
BRANCH  12  15
HETATM   15  C   UNL     1     -46.116  60.169 -57.304  1.00  0.00     0.128 C 
BRANCH  15  16
HETATM   16  C   UNL     1     -46.026  59.158 -58.451  1.00  0.00     0.094 C 
HETATM   17  N   UNL     1     -44.652  58.678 -58.585  1.00  0.00    -0.362 N 
HETATM   18  C   UNL     1     -44.309  57.490 -59.141  1.00  0.00     0.168 C 
HETATM   19  H   UNL     1     -43.891  59.346 -58.531  1.00  0.00     0.162 HD
HETATM   20  N   UNL     1     -45.301  56.601 -59.389  1.00  0.00    -0.363 N 
HETATM   21  S   UNL     1     -42.723  57.124 -59.465  1.00  0.00    -0.041 SA
HETATM   22  C   UNL     1     -46.716  56.913 -59.314  1.00  0.00     0.081 C 
HETATM   23  H   UNL     1     -45.014  55.733 -59.825  1.00  0.00     0.162 HD
HETATM   24  C   UNL     1     -47.245  57.332 -60.685  1.00  0.00     0.032 C 
HETATM   25  C   UNL     1     -46.966  57.966 -58.236  1.00  0.00     0.050 C 
ENDBRANCH  15  16
ENDBRANCH  12  15
ENDBRANCH  10  11
ENDBRANCH   1  10
BRANCH   8  26
HETATM   26  C   UNL     1     -40.578  53.512 -53.528  1.00  0.00     0.089 A 
HETATM   27  N   UNL     1     -40.378  53.649 -52.193  1.00  0.00    -0.147 NA
HETATM   28  N   UNL     1     -39.853  52.619 -51.451  1.00  0.00    -0.124 NA
HETATM   29  C   UNL     1     -39.530  51.461 -52.057  1.00  0.00     0.185 A 
HETATM   30  C   UNL     1     -39.709  51.274 -53.412  1.00  0.00     0.062 A 
HETATM   31  C   UNL     1     -40.241  52.320 -54.162  1.00  0.00     0.038 A 
BRANCH  29  32
HETATM   32  O   UNL     1     -39.002  50.407 -51.341  1.00  0.00    -0.338 OA
HETATM   33  C   UNL     1     -39.995  49.485 -50.901  1.00  0.00     0.211 C 
ENDBRANCH  29  32
ENDBRANCH   8  26
TORSDOF 6
ENDMDL
MODEL 7
REMARK VINA RESULT:      -7.5      3.333      7.068
REMARK  6 active torsions:
REMARK  status: ('A' for Active; 'I' for Inactive)
REMARK    1  A    between atoms: C_7  and  C_8 
REMARK    2  A    between atoms: C_8  and  C_9 
REMARK       I    between atoms: C_9  and  N_10 
REMARK    3  A    between atoms: N_10  and  C_11 
REMARK    4  A    between atoms: C_11  and  C_12 
REMARK    5  A    between atoms: C_19  and  C_20 
REMARK    6  A    between atoms: C_23  and  O_24 
ROOT
HETATM    1  C   UNL     1     -43.514  58.530 -56.950  1.00  0.00     0.151 C 
HETATM    2  O   UNL     1     -44.476  57.962 -56.014  1.00  0.00    -0.343 OA
HETATM    3  C   UNL     1     -43.816  56.924 -55.421  1.00  0.00     0.075 A 
HETATM    4  C   UNL     1     -42.478  56.848 -55.746  1.00  0.00    -0.021 A 
HETATM    5  C   UNL     1     -42.115  57.963 -56.645  1.00  0.00     0.075 C 
HETATM    6  C   UNL     1     -44.395  56.036 -54.542  1.00  0.00     0.038 A 
HETATM    7  C   UNL     1     -43.587  55.038 -53.983  1.00  0.00     0.016 A 
HETATM    8  C   UNL     1     -42.209  54.928 -54.296  1.00  0.00    -0.005 A 
HETATM    9  C   UNL     1     -41.665  55.868 -55.197  1.00  0.00     0.024 A 
ENDROOT
BRANCH   1  10
HETATM   10  C   UNL     1     -43.575  60.059 -56.828  1.00  0.00     0.155 C 
BRANCH  10  11
HETATM   11  N   UNL     1     -42.912  60.611 -55.659  1.00  0.00    -0.359 N 
HETATM   12  C   UNL     1     -43.603  60.949 -54.516  1.00  0.00     0.219 C 
HETATM   13  O   UNL     1     -44.820  60.853 -54.417  1.00  0.00    -0.274 OA
HETATM   14  H   UNL     1     -41.899  60.602 -55.638  1.00  0.00     0.162 HD
BRANCH  12  15
HETATM   15  C   UNL     1     -42.701  61.439 -53.403  1.00  0.00     0.128 C 
BRANCH  15  16
HETATM   16  C   UNL     1     -42.304  60.323 -52.432  1.00  0.00     0.094 C 
HETATM   17  N   UNL     1     -43.474  59.514 -52.099  1.00  0.00    -0.362 N 
HETATM   18  C   UNL     1     -43.418  58.227 -51.676  1.00  0.00     0.168 C 
HETATM   19  H   UNL     1     -44.351  59.980 -51.893  1.00  0.00     0.162 HD
HETATM   20  N   UNL     1     -42.230  57.583 -51.776  1.00  0.00    -0.363 N 
HETATM   21  S   UNL     1     -44.769  57.456 -51.099  1.00  0.00    -0.041 SA
HETATM   22  C   UNL     1     -40.970  58.234 -52.086  1.00  0.00     0.081 C 
HETATM   23  H   UNL     1     -42.216  56.630 -51.431  1.00  0.00     0.162 HD
HETATM   24  C   UNL     1     -40.238  58.623 -50.803  1.00  0.00     0.032 C 
HETATM   25  C   UNL     1     -41.208  59.422 -53.015  1.00  0.00     0.050 C 
ENDBRANCH  15  16
ENDBRANCH  12  15
ENDBRANCH  10  11
ENDBRANCH   1  10
BRANCH   8  26
HETATM   26  C   UNL     1     -41.348  53.890 -53.693  1.00  0.00     0.089 A 
HETATM   27  N   UNL     1     -41.043  54.055 -52.382  1.00  0.00    -0.147 NA
HETATM   28  N   UNL     1     -40.250  53.147 -51.723  1.00  0.00    -0.124 NA
HETATM   29  C   UNL     1     -39.768  52.081 -52.389  1.00  0.00     0.185 A 
HETATM   30  C   UNL     1     -40.044  51.871 -53.724  1.00  0.00     0.062 A 
HETATM   31  C   UNL     1     -40.848  52.794 -54.390  1.00  0.00     0.038 A 
BRANCH  29  32
HETATM   32  O   UNL     1     -38.970  51.151 -51.758  1.00  0.00    -0.338 OA
HETATM   33  C   UNL     1     -39.716  50.224 -50.972  1.00  0.00     0.211 C 
ENDBRANCH  29  32
ENDBRANCH   8  26
TORSDOF 6
ENDMDL
MODEL 8
REMARK VINA RESULT:      -7.4      3.472      7.822
REMARK  6 active torsions:
REMARK  status: ('A' for Active; 'I' for Inactive)
REMARK    1  A    between atoms: C_7  and  C_8 
REMARK    2  A    between atoms: C_8  and  C_9 
REMARK       I    between atoms: C_9  and  N_10 
REMARK    3  A    between atoms: N_10  and  C_11 
REMARK    4  A    between atoms: C_11  and  C_12 
REMARK    5  A    between atoms: C_19  and  C_20 
REMARK    6  A    between atoms: C_23  and  O_24 
ROOT
HETATM    1  C   UNL     1     -43.874  57.295 -57.646  1.00  0.00     0.151 C 
HETATM    2  O   UNL     1     -44.385  57.436 -56.288  1.00  0.00    -0.343 OA
HETATM    3  C   UNL     1     -43.719  56.486 -55.565  1.00  0.00     0.075 A 
HETATM    4  C   UNL     1     -42.715  55.848 -56.261  1.00  0.00    -0.021 A 
HETATM    5  C   UNL     1     -42.615  56.410 -57.625  1.00  0.00     0.075 C 
HETATM    6  C   UNL     1     -43.979  56.193 -54.244  1.00  0.00     0.038 A 
HETATM    7  C   UNL     1     -43.193  55.218 -53.618  1.00  0.00     0.016 A 
HETATM    8  C   UNL     1     -42.154  54.540 -54.304  1.00  0.00    -0.005 A 
HETATM    9  C   UNL     1     -41.927  54.883 -55.654  1.00  0.00     0.024 A 
ENDROOT
BRANCH   1  10
HETATM   10  C   UNL     1     -43.605  58.701 -58.202  1.00  0.00     0.155 C 
BRANCH  10  11
HETATM   11  N   UNL     1     -43.675  59.773 -57.225  1.00  0.00    -0.359 N 
HETATM   12  C   UNL     1     -42.545  60.383 -56.723  1.00  0.00     0.219 C 
HETATM   13  O   UNL     1     -41.409  60.039 -57.026  1.00  0.00    -0.274 OA
HETATM   14  H   UNL     1     -44.582  60.179 -57.027  1.00  0.00     0.162 HD
BRANCH  12  15
HETATM   15  C   UNL     1     -42.859  61.518 -55.772  1.00  0.00     0.128 C 
BRANCH  15  16
HETATM   16  C   UNL     1     -43.176  61.029 -54.356  1.00  0.00     0.094 C 
HETATM   17  N   UNL     1     -42.263  59.950 -53.986  1.00  0.00    -0.362 N 
HETATM   18  C   UNL     1     -41.947  59.620 -52.709  1.00  0.00     0.168 C 
HETATM   19  H   UNL     1     -42.061  59.223 -54.663  1.00  0.00     0.162 HD
HETATM   20  N   UNL     1     -42.325  60.474 -51.727  1.00  0.00    -0.363 N 
HETATM   21  S   UNL     1     -41.088  58.242 -52.369  1.00  0.00    -0.041 SA
HETATM   22  C   UNL     1     -43.234  61.589 -51.917  1.00  0.00     0.081 C 
HETATM   23  H   UNL     1     -42.094  60.187 -50.782  1.00  0.00     0.162 HD
HETATM   24  C   UNL     1     -44.669  61.170 -51.605  1.00  0.00     0.032 C 
HETATM   25  C   UNL     1     -43.077  62.160 -53.325  1.00  0.00     0.050 C 
ENDBRANCH  15  16
ENDBRANCH  12  15
ENDBRANCH  10  11
ENDBRANCH   1  10
BRANCH   8  26
HETATM   26  C   UNL     1     -41.309  53.525 -53.643  1.00  0.00     0.089 A 
HETATM   27  N   UNL     1     -41.185  53.637 -52.296  1.00  0.00    -0.147 NA
HETATM   28  N   UNL     1     -40.424  52.743 -51.582  1.00  0.00    -0.124 NA
HETATM   29  C   UNL     1     -39.790  51.746 -52.228  1.00  0.00     0.185 A 
HETATM   30  C   UNL     1     -39.880  51.592 -53.595  1.00  0.00     0.062 A 
HETATM   31  C   UNL     1     -40.652  52.500 -54.317  1.00  0.00     0.038 A 
BRANCH  29  32
HETATM   32  O   UNL     1     -39.019  50.832 -51.541  1.00  0.00    -0.338 OA
HETATM   33  C   UNL     1     -39.789  49.782 -50.962  1.00  0.00     0.211 C 
ENDBRANCH  29  32
ENDBRANCH   8  26
TORSDOF 6
ENDMDL
MODEL 9
REMARK VINA RESULT:      -7.2      3.381      7.631
REMARK  6 active torsions:
REMARK  status: ('A' for Active; 'I' for Inactive)
REMARK    1  A    between atoms: C_7  and  C_8 
REMARK    2  A    between atoms: C_8  and  C_9 
REMARK       I    between atoms: C_9  and  N_10 
REMARK    3  A    between atoms: N_10  and  C_11 
REMARK    4  A    between atoms: C_11  and  C_12 
REMARK    5  A    between atoms: C_19  and  C_20 
REMARK    6  A    between atoms: C_23  and  O_24 
ROOT
HETATM    1  C   UNL     1     -43.127  59.399 -52.751  1.00  0.00     0.151 C 
HETATM    2  O   UNL     1     -42.339  59.243 -51.534  1.00  0.00    -0.343 OA
HETATM    3  C   UNL     1     -41.911  57.946 -51.559  1.00  0.00     0.075 A 
HETATM    4  C   UNL     1     -42.194  57.281 -52.733  1.00  0.00    -0.021 A 
HETATM    5  C   UNL     1     -42.873  58.195 -53.676  1.00  0.00     0.075 C 
HETATM    6  C   UNL     1     -41.221  57.337 -50.535  1.00  0.00     0.038 A 
HETATM    7  C   UNL     1     -40.813  56.009 -50.712  1.00  0.00     0.016 A 
HETATM    8  C   UNL     1     -41.089  55.294 -51.904  1.00  0.00    -0.005 A 
HETATM    9  C   UNL     1     -41.794  55.968 -52.924  1.00  0.00     0.024 A 
ENDROOT
BRANCH   1  10
HETATM   10  C   UNL     1     -42.745  60.737 -53.398  1.00  0.00     0.155 C 
BRANCH  10  11
HETATM   11  N   UNL     1     -42.133  60.634 -54.711  1.00  0.00    -0.359 N 
HETATM   12  C   UNL     1     -42.792  61.016 -55.860  1.00  0.00     0.219 C 
HETATM   13  O   UNL     1     -43.947  61.424 -55.864  1.00  0.00    -0.274 OA
HETATM   14  H   UNL     1     -41.144  60.418 -54.760  1.00  0.00     0.162 HD
BRANCH  12  15
HETATM   15  C   UNL     1     -41.938  60.885 -57.103  1.00  0.00     0.128 C 
BRANCH  15  16
HETATM   16  C   UNL     1     -42.314  59.665 -57.950  1.00  0.00     0.094 C 
HETATM   17  N   UNL     1     -43.707  59.297 -57.701  1.00  0.00    -0.362 N 
HETATM   18  C   UNL     1     -44.484  58.611 -58.576  1.00  0.00     0.168 C 
HETATM   19  H   UNL     1     -44.049  59.288 -56.747  1.00  0.00     0.162 HD
HETATM   20  N   UNL     1     -44.017  58.447 -59.837  1.00  0.00    -0.363 N 
HETATM   21  S   UNL     1     -45.973  58.034 -58.125  1.00  0.00    -0.041 SA
HETATM   22  C   UNL     1     -42.661  58.750 -60.254  1.00  0.00     0.081 C 
HETATM   23  H   UNL     1     -44.611  57.911 -60.459  1.00  0.00     0.162 HD
HETATM   24  C   UNL     1     -41.780  57.506 -60.155  1.00  0.00     0.032 C 
HETATM   25  C   UNL     1     -42.114  59.927 -59.448  1.00  0.00     0.050 C 
ENDBRANCH  15  16
ENDBRANCH  12  15
ENDBRANCH  10  11
ENDBRANCH   1  10
BRANCH   8  26
HETATM   26  C   UNL     1     -40.644  53.900 -52.104  1.00  0.00     0.089 A 
HETATM   27  N   UNL     1     -40.772  53.406 -53.361  1.00  0.00    -0.147 NA
HETATM   28  N   UNL     1     -40.386  52.121 -53.656  1.00  0.00    -0.124 NA
HETATM   29  C   UNL     1     -39.877  51.341 -52.684  1.00  0.00     0.185 A 
HETATM   30  C   UNL     1     -39.730  51.794 -51.390  1.00  0.00     0.062 A 
HETATM   31  C   UNL     1     -40.123  53.097 -51.093  1.00  0.00     0.038 A 
BRANCH  29  32
HETATM   32  O   UNL     1     -39.479  50.047 -52.947  1.00  0.00    -0.338 OA
HETATM   33  C   UNL     1     -39.488  49.737 -54.338  1.00  0.00     0.211 C 
ENDBRANCH  29  32
ENDBRANCH   8  26
TORSDOF 6
ENDMDL
MODEL 10
REMARK VINA RESULT:      -7.1      3.883      7.436
REMARK  6 active torsions:
REMARK  status: ('A' for Active; 'I' for Inactive)
REMARK    1  A    between atoms: C_7  and  C_8 
REMARK    2  A    between atoms: C_8  and  C_9 
REMARK       I    between atoms: C_9  and  N_10 
REMARK    3  A    between atoms: N_10  and  C_11 
REMARK    4  A    between atoms: C_11  and  C_12 
REMARK    5  A    between atoms: C_19  and  C_20 
REMARK    6  A    between atoms: C_23  and  O_24 
ROOT
HETATM    1  C   UNL     1     -44.699  57.478 -55.051  1.00  0.00     0.151 C 
HETATM    2  O   UNL     1     -45.023  58.889 -55.221  1.00  0.00    -0.343 OA
HETATM    3  C   UNL     1     -45.160  59.371 -53.950  1.00  0.00     0.075 A 
HETATM    4  C   UNL     1     -44.804  58.475 -52.965  1.00  0.00    -0.021 A 
HETATM    5  C   UNL     1     -44.329  57.217 -53.579  1.00  0.00     0.075 C 
HETATM    6  C   UNL     1     -45.578  60.648 -53.646  1.00  0.00     0.038 A 
HETATM    7  C   UNL     1     -45.639  61.018 -52.297  1.00  0.00     0.016 A 
HETATM    8  C   UNL     1     -45.283  60.121 -51.257  1.00  0.00    -0.005 A 
HETATM    9  C   UNL     1     -44.856  58.828 -51.626  1.00  0.00     0.024 A 
ENDROOT
BRANCH   1  10
HETATM   10  C   UNL     1     -43.561  57.129 -56.021  1.00  0.00     0.155 C 
BRANCH  10  11
HETATM   11  N   UNL     1     -42.469  56.366 -55.440  1.00  0.00    -0.359 N 
HETATM   12  C   UNL     1     -42.347  55.006 -55.623  1.00  0.00     0.219 C 
HETATM   13  O   UNL     1     -43.165  54.338 -56.244  1.00  0.00    -0.274 OA
HETATM   14  H   UNL     1     -41.702  56.877 -55.021  1.00  0.00     0.162 HD
BRANCH  12  15
HETATM   15  C   UNL     1     -41.098  54.434 -54.986  1.00  0.00     0.128 C 
BRANCH  15  16
HETATM   16  C   UNL     1     -41.327  53.987 -53.539  1.00  0.00     0.094 C 
HETATM   17  N   UNL     1     -40.528  52.798 -53.253  1.00  0.00    -0.362 N 
HETATM   18  C   UNL     1     -40.126  52.427 -52.012  1.00  0.00     0.168 C 
HETATM   19  H   UNL     1     -40.493  52.052 -53.939  1.00  0.00     0.162 HD
HETATM   20  N   UNL     1     -40.287  53.321 -51.006  1.00  0.00    -0.363 N 
HETATM   21  S   UNL     1     -39.424  50.948 -51.746  1.00  0.00    -0.041 SA
HETATM   22  C   UNL     1     -41.058  54.545 -51.114  1.00  0.00     0.081 C 
HETATM   23  H   UNL     1     -39.998  53.005 -50.087  1.00  0.00     0.162 HD
HETATM   24  C   UNL     1     -42.496  54.317 -50.651  1.00  0.00     0.032 C 
HETATM   25  C   UNL     1     -40.975  55.094 -52.537  1.00  0.00     0.050 C 
ENDBRANCH  15  16
ENDBRANCH  12  15
ENDBRANCH  10  11
ENDBRANCH   1  10
BRANCH   8  26
HETATM   26  C   UNL     1     -45.326  60.514 -49.834  1.00  0.00     0.089 A 
HETATM   27  N   UNL     1     -45.976  59.664 -49.000  1.00  0.00    -0.147 NA
HETATM   28  N   UNL     1     -46.073  59.933 -47.656  1.00  0.00    -0.124 NA
HETATM   29  C   UNL     1     -45.519  61.056 -47.162  1.00  0.00     0.185 A 
HETATM   30  C   UNL     1     -44.853  61.955 -47.969  1.00  0.00     0.062 A 
HETATM   31  C   UNL     1     -44.757  61.680 -49.332  1.00  0.00     0.038 A 
BRANCH  29  32
HETATM   32  O   UNL     1     -45.599  61.356 -45.819  1.00  0.00    -0.338 OA
HETATM   33  C   UNL     1     -44.480  60.875 -45.078  1.00  0.00     0.211 C 
ENDBRANCH  29  32
ENDBRANCH   8  26
TORSDOF 6
ENDMDL
