MODEL 1
REMARK VINA RESULT:      -8.4      0.000      0.000
REMARK  7 active torsions:
REMARK  status: ('A' for Active; 'I' for Inactive)
REMARK    1  A    between atoms: N_2  and  C_4 
REMARK    2  A    between atoms: N_2  and  C_10 
REMARK    3  A    between atoms: C_10  and  C_11 
REMARK    4  A    between atoms: C_12  and  N_13 
REMARK       I    between atoms: N_13  and  C_14 
REMARK       I    between atoms: C_14  and  N_15 
REMARK    5  A    between atoms: N_15  and  C_16 
REMARK    6  A    between atoms: C_16  and  C_17 
REMARK    7  A    between atoms: C_17  and  C_18 
ROOT
HETATM    1  C   UNL     1     -40.515  53.380 -52.114  1.00  0.00    -0.006 A 
HETATM    2  C   UNL     1     -40.432  53.218 -53.514  1.00  0.00     0.044 A 
HETATM    3  C   UNL     1     -39.893  52.010 -54.015  1.00  0.00     0.030 A 
HETATM    4  C   UNL     1     -39.483  50.971 -53.181  1.00  0.00     0.002 A 
HETATM    5  C   UNL     1     -39.596  51.111 -51.812  1.00  0.00     0.001 A 
HETATM    6  C   UNL     1     -40.101  52.298 -51.288  1.00  0.00     0.011 A 
ENDROOT
BRANCH   2   7
HETATM    7  N   UNL     1     -40.826  54.104 -54.547  1.00  0.00    -0.308 N 
HETATM    8  C   UNL     1     -42.058  54.512 -54.972  1.00  0.00     0.320 C 
HETATM    9  N   UNL     1     -41.987  55.259 -56.122  1.00  0.00    -0.343 N 
HETATM   10  O   UNL     1     -43.130  54.207 -54.467  1.00  0.00    -0.247 OA
HETATM   11  H   UNL     1     -41.115  55.691 -56.392  1.00  0.00     0.164 HD
HETATM   12  H   UNL     1     -40.091  54.349 -55.198  1.00  0.00     0.170 HD
BRANCH   9  13
HETATM   13  C   UNL     1     -43.189  55.715 -56.808  1.00  0.00     0.130 C 
BRANCH  13  14
HETATM   14  C   UNL     1     -42.866  56.452 -58.110  1.00  0.00     0.079 C 
BRANCH  14  15
HETATM   15  C   UNL     1     -43.979  56.339 -59.126  1.00  0.00     0.042 A 
HETATM   16  N   UNL     1     -45.039  57.202 -58.957  1.00  0.00    -0.248 NA
HETATM   17  C   UNL     1     -46.001  57.125 -59.816  1.00  0.00     0.210 A 
HETATM   18  N   UNL     1     -46.022  56.260 -60.868  1.00  0.00    -0.318 N 
HETATM   19  C   UNL     1     -44.995  55.399 -61.105  1.00  0.00     0.248 A 
HETATM   20  H   UNL     1     -46.792  56.245 -61.521  1.00  0.00     0.169 HD
HETATM   21  O   UNL     1     -44.953  54.645 -62.069  1.00  0.00    -0.268 OA
HETATM   22  C   UNL     1     -43.902  55.449 -60.127  1.00  0.00     0.101 A 
ENDBRANCH  14  15
ENDBRANCH  13  14
ENDBRANCH   9  13
ENDBRANCH   2   7
BRANCH   1  23
HETATM   23  C   UNL     1     -40.933  54.622 -51.355  1.00  0.00     0.275 C 
BRANCH  23  24
HETATM   24  N   UNL     1     -42.339  55.168 -51.561  1.00  0.00    -0.067 N 
HETATM   25  C   UNL     1     -43.393  54.305 -50.919  1.00  0.00     0.270 C 
HETATM   26  H   UNL     1     -42.457  55.038 -52.587  1.00  0.00     0.280 HD
BRANCH  24  27
HETATM   27  C   UNL     1     -42.526  56.654 -51.257  1.00  0.00     0.188 C 
HETATM   28  C   UNL     1     -41.429  57.555 -51.855  1.00  0.00     0.033 C 
HETATM   29  C   UNL     1     -41.511  57.711 -53.372  1.00  0.00     0.002 C 
HETATM   30  C   UNL     1     -42.885  58.206 -53.803  1.00  0.00     0.000 C 
HETATM   31  C   UNL     1     -44.000  57.318 -53.264  1.00  0.00     0.002 C 
HETATM   32  C   UNL     1     -43.904  57.150 -51.746  1.00  0.00     0.033 C 
ENDBRANCH  24  27
ENDBRANCH  23  24
ENDBRANCH   1  23
TORSDOF 7
ENDMDL
MODEL 2
REMARK VINA RESULT:      -7.9      1.941      2.302
REMARK  7 active torsions:
REMARK  status: ('A' for Active; 'I' for Inactive)
REMARK    1  A    between atoms: N_2  and  C_4 
REMARK    2  A    between atoms: N_2  and  C_10 
REMARK    3  A    between atoms: C_10  and  C_11 
REMARK    4  A    between atoms: C_12  and  N_13 
REMARK       I    between atoms: N_13  and  C_14 
REMARK       I    between atoms: C_14  and  N_15 
REMARK    5  A    between atoms: N_15  and  C_16 
REMARK    6  A    between atoms: C_16  and  C_17 
REMARK    7  A    between atoms: C_17  and  C_18 
ROOT
HETATM    1  C   UNL     1     -40.558  53.533 -52.482  1.00  0.00    -0.006 A 
HETATM    2  C   UNL     1     -40.447  53.333 -53.874  1.00  0.00     0.044 A 
HETATM    3  C   UNL     1     -39.881  52.120 -54.332  1.00  0.00     0.030 A 
HETATM    4  C   UNL     1     -39.472  51.110 -53.463  1.00  0.00     0.002 A 
HETATM    5  C   UNL     1     -39.613  51.286 -52.100  1.00  0.00     0.001 A 
HETATM    6  C   UNL     1     -40.145  52.480 -51.618  1.00  0.00     0.011 A 
ENDROOT
BRANCH   2   7
HETATM    7  N   UNL     1     -40.834  54.185 -54.939  1.00  0.00    -0.308 N 
HETATM    8  C   UNL     1     -42.063  54.563 -55.397  1.00  0.00     0.320 C 
HETATM    9  N   UNL     1     -41.982  55.279 -56.566  1.00  0.00    -0.343 N 
HETATM   10  O   UNL     1     -43.140  54.256 -54.903  1.00  0.00    -0.247 OA
HETATM   11  H   UNL     1     -41.111  55.716 -56.831  1.00  0.00     0.164 HD
HETATM   12  H   UNL     1     -40.091  54.422 -55.583  1.00  0.00     0.170 HD
BRANCH   9  13
HETATM   13  C   UNL     1     -43.177  55.699 -57.285  1.00  0.00     0.130 C 
BRANCH  13  14
HETATM   14  C   UNL     1     -42.886  56.011 -58.756  1.00  0.00     0.079 C 
BRANCH  14  15
HETATM   15  C   UNL     1     -42.508  57.459 -58.972  1.00  0.00     0.042 A 
HETATM   16  N   UNL     1     -42.261  58.193 -57.833  1.00  0.00    -0.248 NA
HETATM   17  C   UNL     1     -41.933  59.433 -57.994  1.00  0.00     0.210 A 
HETATM   18  N   UNL     1     -41.812  60.042 -59.206  1.00  0.00    -0.318 N 
HETATM   19  C   UNL     1     -42.018  59.367 -60.369  1.00  0.00     0.248 A 
HETATM   20  H   UNL     1     -41.542  61.012 -59.282  1.00  0.00     0.169 HD
HETATM   21  O   UNL     1     -41.867  59.865 -61.477  1.00  0.00    -0.268 OA
HETATM   22  C   UNL     1     -42.418  57.964 -60.211  1.00  0.00     0.101 A 
ENDBRANCH  14  15
ENDBRANCH  13  14
ENDBRANCH   9  13
ENDBRANCH   2   7
BRANCH   1  23
HETATM   23  C   UNL     1     -41.007  54.788 -51.764  1.00  0.00     0.275 C 
BRANCH  23  24
HETATM   24  N   UNL     1     -42.443  55.262 -51.948  1.00  0.00    -0.067 N 
HETATM   25  C   UNL     1     -43.438  54.369 -51.256  1.00  0.00     0.270 C 
HETATM   26  H   UNL     1     -42.580  55.099 -52.967  1.00  0.00     0.280 HD
BRANCH  24  27
HETATM   27  C   UNL     1     -42.691  56.746 -51.678  1.00  0.00     0.188 C 
HETATM   28  C   UNL     1     -41.617  57.676 -52.272  1.00  0.00     0.033 C 
HETATM   29  C   UNL     1     -41.673  57.800 -53.793  1.00  0.00     0.002 C 
HETATM   30  C   UNL     1     -43.055  58.233 -54.262  1.00  0.00     0.000 C 
HETATM   31  C   UNL     1     -44.146  57.314 -53.728  1.00  0.00     0.002 C 
HETATM   32  C   UNL     1     -44.076  57.179 -52.206  1.00  0.00     0.033 C 
ENDBRANCH  24  27
ENDBRANCH  23  24
ENDBRANCH   1  23
TORSDOF 7
ENDMDL
MODEL 3
REMARK VINA RESULT:      -7.6      1.326      2.031
REMARK  7 active torsions:
REMARK  status: ('A' for Active; 'I' for Inactive)
REMARK    1  A    between atoms: N_2  and  C_4 
REMARK    2  A    between atoms: N_2  and  C_10 
REMARK    3  A    between atoms: C_10  and  C_11 
REMARK    4  A    between atoms: C_12  and  N_13 
REMARK       I    between atoms: N_13  and  C_14 
REMARK       I    between atoms: C_14  and  N_15 
REMARK    5  A    between atoms: N_15  and  C_16 
REMARK    6  A    between atoms: C_16  and  C_17 
REMARK    7  A    between atoms: C_17  and  C_18 
ROOT
HETATM    1  C   UNL     1     -42.432  54.529 -52.035  1.00  0.00    -0.006 A 
HETATM    2  C   UNL     1     -41.999  53.948 -53.246  1.00  0.00     0.044 A 
HETATM    3  C   UNL     1     -40.919  53.035 -53.201  1.00  0.00     0.030 A 
HETATM    4  C   UNL     1     -40.303  52.665 -52.008  1.00  0.00     0.002 A 
HETATM    5  C   UNL     1     -40.747  53.202 -50.816  1.00  0.00     0.001 A 
HETATM    6  C   UNL     1     -41.793  54.122 -50.831  1.00  0.00     0.011 A 
ENDROOT
BRANCH   2   7
HETATM    7  N   UNL     1     -42.497  54.132 -54.561  1.00  0.00    -0.308 N 
HETATM    8  C   UNL     1     -42.164  55.023 -55.540  1.00  0.00     0.320 C 
HETATM    9  N   UNL     1     -43.017  54.956 -56.613  1.00  0.00    -0.343 N 
HETATM   10  O   UNL     1     -41.270  55.856 -55.480  1.00  0.00    -0.247 OA
HETATM   11  H   UNL     1     -43.588  54.134 -56.755  1.00  0.00     0.164 HD
HETATM   12  H   UNL     1     -43.360  53.643 -54.759  1.00  0.00     0.170 HD
BRANCH   9  13
HETATM   13  C   UNL     1     -42.909  55.884 -57.731  1.00  0.00     0.130 C 
BRANCH  13  14
HETATM   14  C   UNL     1     -44.139  56.788 -57.851  1.00  0.00     0.079 C 
BRANCH  14  15
HETATM   15  C   UNL     1     -44.945  56.501 -59.097  1.00  0.00     0.042 A 
HETATM   16  N   UNL     1     -46.130  57.191 -59.220  1.00  0.00    -0.248 NA
HETATM   17  C   UNL     1     -46.834  56.964 -60.280  1.00  0.00     0.210 A 
HETATM   18  N   UNL     1     -46.472  56.101 -61.269  1.00  0.00    -0.318 N 
HETATM   19  C   UNL     1     -45.302  55.407 -61.220  1.00  0.00     0.248 A 
HETATM   20  H   UNL     1     -47.051  55.964 -62.086  1.00  0.00     0.169 HD
HETATM   21  O   UNL     1     -44.918  54.663 -62.113  1.00  0.00    -0.268 OA
HETATM   22  C   UNL     1     -44.498  55.628 -60.012  1.00  0.00     0.101 A 
ENDBRANCH  14  15
ENDBRANCH  13  14
ENDBRANCH   9  13
ENDBRANCH   2   7
BRANCH   1  23
HETATM   23  C   UNL     1     -43.472  55.615 -51.854  1.00  0.00     0.275 C 
BRANCH  23  24
HETATM   24  N   UNL     1     -43.305  56.922 -52.618  1.00  0.00    -0.067 N 
HETATM   25  C   UNL     1     -44.434  57.176 -53.581  1.00  0.00     0.270 C 
HETATM   26  H   UNL     1     -42.476  56.705 -53.208  1.00  0.00     0.280 HD
BRANCH  24  27
HETATM   27  C   UNL     1     -42.963  58.147 -51.769  1.00  0.00     0.188 C 
HETATM   28  C   UNL     1     -41.824  57.909 -50.761  1.00  0.00     0.033 C 
HETATM   29  C   UNL     1     -40.442  57.793 -51.402  1.00  0.00     0.002 C 
HETATM   30  C   UNL     1     -40.129  59.006 -52.266  1.00  0.00     0.000 C 
HETATM   31  C   UNL     1     -41.216  59.255 -53.305  1.00  0.00     0.002 C 
HETATM   32  C   UNL     1     -42.601  59.353 -52.662  1.00  0.00     0.033 C 
ENDBRANCH  24  27
ENDBRANCH  23  24
ENDBRANCH   1  23
TORSDOF 7
ENDMDL
MODEL 4
REMARK VINA RESULT:      -7.3      1.972      2.799
REMARK  7 active torsions:
REMARK  status: ('A' for Active; 'I' for Inactive)
REMARK    1  A    between atoms: N_2  and  C_4 
REMARK    2  A    between atoms: N_2  and  C_10 
REMARK    3  A    between atoms: C_10  and  C_11 
REMARK    4  A    between atoms: C_12  and  N_13 
REMARK       I    between atoms: N_13  and  C_14 
REMARK       I    between atoms: C_14  and  N_15 
REMARK    5  A    between atoms: N_15  and  C_16 
REMARK    6  A    between atoms: C_16  and  C_17 
REMARK    7  A    between atoms: C_17  and  C_18 
ROOT
HETATM    1  C   UNL     1     -42.905  54.822 -52.459  1.00  0.00    -0.006 A 
HETATM    2  C   UNL     1     -43.259  54.847 -53.825  1.00  0.00     0.044 A 
HETATM    3  C   UNL     1     -42.534  54.023 -54.718  1.00  0.00     0.030 A 
HETATM    4  C   UNL     1     -41.521  53.167 -54.291  1.00  0.00     0.002 A 
HETATM    5  C   UNL     1     -41.196  53.112 -52.949  1.00  0.00     0.001 A 
HETATM    6  C   UNL     1     -41.876  53.929 -52.050  1.00  0.00     0.011 A 
ENDROOT
BRANCH   2   7
HETATM    7  N   UNL     1     -44.273  55.591 -54.479  1.00  0.00    -0.308 N 
HETATM    8  C   UNL     1     -44.223  56.739 -55.216  1.00  0.00     0.320 C 
HETATM    9  N   UNL     1     -45.475  57.208 -55.529  1.00  0.00    -0.343 N 
HETATM   10  O   UNL     1     -43.210  57.356 -55.517  1.00  0.00    -0.247 OA
HETATM   11  H   UNL     1     -46.272  56.590 -55.483  1.00  0.00     0.164 HD
HETATM   12  H   UNL     1     -45.218  55.338 -54.221  1.00  0.00     0.170 HD
BRANCH   9  13
HETATM   13  C   UNL     1     -45.660  58.474 -56.226  1.00  0.00     0.130 C 
BRANCH  13  14
HETATM   14  C   UNL     1     -46.218  58.278 -57.639  1.00  0.00     0.079 C 
BRANCH  14  15
HETATM   15  C   UNL     1     -45.163  57.805 -58.613  1.00  0.00     0.042 A 
HETATM   16  N   UNL     1     -43.931  58.411 -58.508  1.00  0.00    -0.248 NA
HETATM   17  C   UNL     1     -43.013  58.020 -59.328  1.00  0.00     0.210 A 
HETATM   18  N   UNL     1     -43.188  57.052 -60.270  1.00  0.00    -0.318 N 
HETATM   19  C   UNL     1     -44.373  56.397 -60.408  1.00  0.00     0.248 A 
HETATM   20  H   UNL     1     -42.436  56.771 -60.882  1.00  0.00     0.169 HD
HETATM   21  O   UNL     1     -44.553  55.486 -61.206  1.00  0.00    -0.268 OA
HETATM   22  C   UNL     1     -45.440  56.843 -59.505  1.00  0.00     0.101 A 
ENDBRANCH  14  15
ENDBRANCH  13  14
ENDBRANCH   9  13
ENDBRANCH   2   7
BRANCH   1  23
HETATM   23  C   UNL     1     -43.446  55.701 -51.352  1.00  0.00     0.275 C 
BRANCH  23  24
HETATM   24  N   UNL     1     -43.605  57.193 -51.612  1.00  0.00    -0.067 N 
HETATM   25  C   UNL     1     -44.952  57.714 -51.188  1.00  0.00     0.270 C 
HETATM   26  H   UNL     1     -43.610  57.216 -52.653  1.00  0.00     0.280 HD
BRANCH  24  27
HETATM   27  C   UNL     1     -42.451  58.076 -51.135  1.00  0.00     0.188 C 
HETATM   28  C   UNL     1     -41.064  57.596 -51.601  1.00  0.00     0.033 C 
HETATM   29  C   UNL     1     -40.799  57.813 -53.089  1.00  0.00     0.002 C 
HETATM   30  C   UNL     1     -41.006  59.269 -53.482  1.00  0.00     0.000 C 
HETATM   31  C   UNL     1     -42.384  59.774 -53.073  1.00  0.00     0.002 C 
HETATM   32  C   UNL     1     -42.653  59.539 -51.585  1.00  0.00     0.033 C 
ENDBRANCH  24  27
ENDBRANCH  23  24
ENDBRANCH   1  23
TORSDOF 7
ENDMDL
MODEL 5
REMARK VINA RESULT:      -7.3      1.869      2.615
REMARK  7 active torsions:
REMARK  status: ('A' for Active; 'I' for Inactive)
REMARK    1  A    between atoms: N_2  and  C_4 
REMARK    2  A    between atoms: N_2  and  C_10 
REMARK    3  A    between atoms: C_10  and  C_11 
REMARK    4  A    between atoms: C_12  and  N_13 
REMARK       I    between atoms: N_13  and  C_14 
REMARK       I    between atoms: C_14  and  N_15 
REMARK    5  A    between atoms: N_15  and  C_16 
REMARK    6  A    between atoms: C_16  and  C_17 
REMARK    7  A    between atoms: C_17  and  C_18 
ROOT
HETATM    1  C   UNL     1     -42.282  54.440 -52.572  1.00  0.00    -0.006 A 
HETATM    2  C   UNL     1     -42.372  54.522 -53.978  1.00  0.00     0.044 A 
HETATM    3  C   UNL     1     -41.480  53.742 -54.751  1.00  0.00     0.030 A 
HETATM    4  C   UNL     1     -40.553  52.875 -54.175  1.00  0.00     0.002 A 
HETATM    5  C   UNL     1     -40.486  52.764 -52.800  1.00  0.00     0.001 A 
HETATM    6  C   UNL     1     -41.335  53.537 -52.012  1.00  0.00     0.011 A 
ENDROOT
BRANCH   2   7
HETATM    7  N   UNL     1     -43.256  55.287 -54.780  1.00  0.00    -0.308 N 
HETATM    8  C   UNL     1     -43.094  56.481 -55.422  1.00  0.00     0.320 C 
HETATM    9  N   UNL     1     -44.271  56.945 -55.956  1.00  0.00    -0.343 N 
HETATM   10  O   UNL     1     -42.062  57.136 -55.471  1.00  0.00    -0.247 OA
HETATM   11  H   UNL     1     -45.040  56.309 -56.112  1.00  0.00     0.164 HD
HETATM   12  H   UNL     1     -44.224  54.998 -54.737  1.00  0.00     0.170 HD
BRANCH   9  13
HETATM   13  C   UNL     1     -44.352  58.249 -56.600  1.00  0.00     0.130 C 
BRANCH  13  14
HETATM   14  C   UNL     1     -43.932  58.194 -58.071  1.00  0.00     0.079 C 
BRANCH  14  15
HETATM   15  C   UNL     1     -44.587  57.051 -58.813  1.00  0.00     0.042 A 
HETATM   16  N   UNL     1     -43.843  55.897 -58.920  1.00  0.00    -0.248 NA
HETATM   17  C   UNL     1     -44.384  54.906 -59.547  1.00  0.00     0.210 A 
HETATM   18  N   UNL     1     -45.632  54.934 -60.093  1.00  0.00    -0.318 N 
HETATM   19  C   UNL     1     -46.427  56.034 -60.001  1.00  0.00     0.248 A 
HETATM   20  H   UNL     1     -46.017  54.129 -60.565  1.00  0.00     0.169 HD
HETATM   21  O   UNL     1     -47.572  56.079 -60.432  1.00  0.00    -0.268 OA
HETATM   22  C   UNL     1     -45.823  57.183 -59.316  1.00  0.00     0.101 A 
ENDBRANCH  14  15
ENDBRANCH  13  14
ENDBRANCH   9  13
ENDBRANCH   2   7
BRANCH   1  23
HETATM   23  C   UNL     1     -43.035  55.267 -51.551  1.00  0.00     0.275 C 
BRANCH  23  24
HETATM   24  N   UNL     1     -42.322  56.435 -50.884  1.00  0.00    -0.067 N 
HETATM   25  C   UNL     1     -41.351  55.989 -49.824  1.00  0.00     0.270 C 
HETATM   26  H   UNL     1     -43.108  56.886 -50.373  1.00  0.00     0.280 HD
BRANCH  24  27
HETATM   27  C   UNL     1     -41.727  57.477 -51.831  1.00  0.00     0.188 C 
HETATM   28  C   UNL     1     -42.739  58.535 -52.310  1.00  0.00     0.033 C 
HETATM   29  C   UNL     1     -43.144  59.540 -51.234  1.00  0.00     0.002 C 
HETATM   30  C   UNL     1     -41.925  60.221 -50.627  1.00  0.00     0.000 C 
HETATM   31  C   UNL     1     -40.913  59.208 -50.104  1.00  0.00     0.002 C 
HETATM   32  C   UNL     1     -40.524  58.193 -51.180  1.00  0.00     0.033 C 
ENDBRANCH  24  27
ENDBRANCH  23  24
ENDBRANCH   1  23
TORSDOF 7
ENDMDL
MODEL 6
REMARK VINA RESULT:      -7.3      1.627      1.913
REMARK  7 active torsions:
REMARK  status: ('A' for Active; 'I' for Inactive)
REMARK    1  A    between atoms: N_2  and  C_4 
REMARK    2  A    between atoms: N_2  and  C_10 
REMARK    3  A    between atoms: C_10  and  C_11 
REMARK    4  A    between atoms: C_12  and  N_13 
REMARK       I    between atoms: N_13  and  C_14 
REMARK       I    between atoms: C_14  and  N_15 
REMARK    5  A    between atoms: N_15  and  C_16 
REMARK    6  A    between atoms: C_16  and  C_17 
REMARK    7  A    between atoms: C_17  and  C_18 
ROOT
HETATM    1  C   UNL     1     -40.633  53.687 -52.422  1.00  0.00    -0.006 A 
HETATM    2  C   UNL     1     -40.501  53.423 -53.802  1.00  0.00     0.044 A 
HETATM    3  C   UNL     1     -39.920  52.194 -54.195  1.00  0.00     0.030 A 
HETATM    4  C   UNL     1     -39.516  51.230 -53.273  1.00  0.00     0.002 A 
HETATM    5  C   UNL     1     -39.677  51.469 -51.922  1.00  0.00     0.001 A 
HETATM    6  C   UNL     1     -40.224  52.679 -51.505  1.00  0.00     0.011 A 
ENDROOT
BRANCH   2   7
HETATM    7  N   UNL     1     -40.879  54.220 -54.912  1.00  0.00    -0.308 N 
HETATM    8  C   UNL     1     -42.105  54.566 -55.405  1.00  0.00     0.320 C 
HETATM    9  N   UNL     1     -42.012  55.227 -56.605  1.00  0.00    -0.343 N 
HETATM   10  O   UNL     1     -43.186  54.272 -54.913  1.00  0.00    -0.247 OA
HETATM   11  H   UNL     1     -41.140  55.660 -56.877  1.00  0.00     0.164 HD
HETATM   12  H   UNL     1     -40.128  54.435 -55.554  1.00  0.00     0.170 HD
BRANCH   9  13
HETATM   13  C   UNL     1     -43.199  55.601 -57.360  1.00  0.00     0.130 C 
BRANCH  13  14
HETATM   14  C   UNL     1     -43.423  57.116 -57.371  1.00  0.00     0.079 C 
BRANCH  14  15
HETATM   15  C   UNL     1     -44.682  57.506 -58.110  1.00  0.00     0.042 A 
HETATM   16  N   UNL     1     -44.843  56.952 -59.360  1.00  0.00    -0.248 NA
HETATM   17  C   UNL     1     -45.915  57.268 -60.009  1.00  0.00     0.210 A 
HETATM   18  N   UNL     1     -46.883  58.099 -59.531  1.00  0.00    -0.318 N 
HETATM   19  C   UNL     1     -46.796  58.660 -58.294  1.00  0.00     0.248 A 
HETATM   20  H   UNL     1     -47.709  58.309 -60.072  1.00  0.00     0.169 HD
HETATM   21  O   UNL     1     -47.669  59.368 -57.810  1.00  0.00    -0.268 OA
HETATM   22  C   UNL     1     -45.574  58.336 -57.548  1.00  0.00     0.101 A 
ENDBRANCH  14  15
ENDBRANCH  13  14
ENDBRANCH   9  13
ENDBRANCH   2   7
BRANCH   1  23
HETATM   23  C   UNL     1     -41.102  54.971 -51.771  1.00  0.00     0.275 C 
BRANCH  23  24
HETATM   24  N   UNL     1     -42.571  55.355 -51.883  1.00  0.00    -0.067 N 
HETATM   25  C   UNL     1     -43.475  54.396 -51.155  1.00  0.00     0.270 C 
HETATM   26  H   UNL     1     -42.745  55.190 -52.896  1.00  0.00     0.280 HD
BRANCH  24  27
HETATM   27  C   UNL     1     -42.899  56.819 -51.588  1.00  0.00     0.188 C 
HETATM   28  C   UNL     1     -41.908  57.818 -52.212  1.00  0.00     0.033 C 
HETATM   29  C   UNL     1     -42.030  57.951 -53.728  1.00  0.00     0.002 C 
HETATM   30  C   UNL     1     -43.453  58.302 -54.139  1.00  0.00     0.000 C 
HETATM   31  C   UNL     1     -44.465  57.313 -53.574  1.00  0.00     0.002 C 
HETATM   32  C   UNL     1     -44.328  57.170 -52.057  1.00  0.00     0.033 C 
ENDBRANCH  24  27
ENDBRANCH  23  24
ENDBRANCH   1  23
TORSDOF 7
ENDMDL
MODEL 7
REMARK VINA RESULT:      -7.2      1.507      2.077
REMARK  7 active torsions:
REMARK  status: ('A' for Active; 'I' for Inactive)
REMARK    1  A    between atoms: N_2  and  C_4 
REMARK    2  A    between atoms: N_2  and  C_10 
REMARK    3  A    between atoms: C_10  and  C_11 
REMARK    4  A    between atoms: C_12  and  N_13 
REMARK       I    between atoms: N_13  and  C_14 
REMARK       I    between atoms: C_14  and  N_15 
REMARK    5  A    between atoms: N_15  and  C_16 
REMARK    6  A    between atoms: C_16  and  C_17 
REMARK    7  A    between atoms: C_17  and  C_18 
ROOT
HETATM    1  C   UNL     1     -41.165  55.368 -51.635  1.00  0.00    -0.006 A 
HETATM    2  C   UNL     1     -40.923  54.582 -52.782  1.00  0.00     0.044 A 
HETATM    3  C   UNL     1     -40.354  53.299 -52.605  1.00  0.00     0.030 A 
HETATM    4  C   UNL     1     -40.067  52.777 -51.345  1.00  0.00     0.002 A 
HETATM    5  C   UNL     1     -40.337  53.527 -50.218  1.00  0.00     0.001 A 
HETATM    6  C   UNL     1     -40.875  54.804 -50.362  1.00  0.00     0.011 A 
ENDROOT
BRANCH   2   7
HETATM    7  N   UNL     1     -41.173  54.879 -54.146  1.00  0.00    -0.308 N 
HETATM    8  C   UNL     1     -42.337  54.974 -54.854  1.00  0.00     0.320 C 
HETATM    9  N   UNL     1     -42.112  55.122 -56.200  1.00  0.00    -0.343 N 
HETATM   10  O   UNL     1     -43.467  54.865 -54.398  1.00  0.00    -0.247 OA
HETATM   11  H   UNL     1     -41.211  55.437 -56.531  1.00  0.00     0.164 HD
HETATM   12  H   UNL     1     -40.358  54.847 -54.743  1.00  0.00     0.170 HD
BRANCH   9  13
HETATM   13  C   UNL     1     -43.210  55.143 -57.157  1.00  0.00     0.130 C 
BRANCH  13  14
HETATM   14  C   UNL     1     -42.959  56.128 -58.302  1.00  0.00     0.079 C 
BRANCH  14  15
HETATM   15  C   UNL     1     -44.083  56.133 -59.313  1.00  0.00     0.042 A 
HETATM   16  N   UNL     1     -44.009  55.176 -60.300  1.00  0.00    -0.248 NA
HETATM   17  C   UNL     1     -44.962  55.160 -61.173  1.00  0.00     0.210 A 
HETATM   18  N   UNL     1     -46.021  56.016 -61.168  1.00  0.00    -0.318 N 
HETATM   19  C   UNL     1     -46.165  56.968 -60.206  1.00  0.00     0.248 A 
HETATM   20  H   UNL     1     -46.748  55.957 -61.867  1.00  0.00     0.169 HD
HETATM   21  O   UNL     1     -47.129  57.719 -60.138  1.00  0.00    -0.268 OA
HETATM   22  C   UNL     1     -45.082  57.023 -59.219  1.00  0.00     0.101 A 
ENDBRANCH  14  15
ENDBRANCH  13  14
ENDBRANCH   9  13
ENDBRANCH   2   7
BRANCH   1  23
HETATM   23  C   UNL     1     -41.643  56.805 -51.588  1.00  0.00     0.275 C 
BRANCH  23  24
HETATM   24  N   UNL     1     -43.047  57.126 -52.082  1.00  0.00    -0.067 N 
HETATM   25  C   UNL     1     -44.116  56.651 -51.135  1.00  0.00     0.270 C 
HETATM   26  H   UNL     1     -43.113  56.505 -52.915  1.00  0.00     0.280 HD
BRANCH  24  27
HETATM   27  C   UNL     1     -43.271  58.562 -52.557  1.00  0.00     0.188 C 
HETATM   28  C   UNL     1     -42.133  59.113 -53.436  1.00  0.00     0.033 C 
HETATM   29  C   UNL     1     -42.083  58.510 -54.838  1.00  0.00     0.002 C 
HETATM   30  C   UNL     1     -43.418  58.664 -55.554  1.00  0.00     0.000 C 
HETATM   31  C   UNL     1     -44.568  58.095 -54.733  1.00  0.00     0.002 C 
HETATM   32  C   UNL     1     -44.604  58.689 -53.324  1.00  0.00     0.033 C 
ENDBRANCH  24  27
ENDBRANCH  23  24
ENDBRANCH   1  23
TORSDOF 7
ENDMDL
MODEL 8
REMARK VINA RESULT:      -7.1      1.872      4.511
REMARK  7 active torsions:
REMARK  status: ('A' for Active; 'I' for Inactive)
REMARK    1  A    between atoms: N_2  and  C_4 
REMARK    2  A    between atoms: N_2  and  C_10 
REMARK    3  A    between atoms: C_10  and  C_11 
REMARK    4  A    between atoms: C_12  and  N_13 
REMARK       I    between atoms: N_13  and  C_14 
REMARK       I    between atoms: C_14  and  N_15 
REMARK    5  A    between atoms: N_15  and  C_16 
REMARK    6  A    between atoms: C_16  and  C_17 
REMARK    7  A    between atoms: C_17  and  C_18 
ROOT
HETATM    1  C   UNL     1     -42.255  56.690 -51.976  1.00  0.00    -0.006 A 
HETATM    2  C   UNL     1     -42.248  57.830 -52.809  1.00  0.00     0.044 A 
HETATM    3  C   UNL     1     -41.629  59.006 -52.325  1.00  0.00     0.030 A 
HETATM    4  C   UNL     1     -40.997  59.063 -51.085  1.00  0.00     0.002 A 
HETATM    5  C   UNL     1     -40.968  57.939 -50.282  1.00  0.00     0.001 A 
HETATM    6  C   UNL     1     -41.590  56.773 -50.721  1.00  0.00     0.011 A 
ENDROOT
BRANCH   2   7
HETATM    7  N   UNL     1     -42.779  57.995 -54.112  1.00  0.00    -0.308 N 
HETATM    8  C   UNL     1     -44.057  58.188 -54.554  1.00  0.00     0.320 C 
HETATM    9  N   UNL     1     -44.145  58.134 -55.923  1.00  0.00    -0.343 N 
HETATM   10  O   UNL     1     -45.049  58.317 -53.849  1.00  0.00    -0.247 OA
HETATM   11  H   UNL     1     -43.318  58.260 -56.488  1.00  0.00     0.164 HD
HETATM   12  H   UNL     1     -42.142  57.761 -54.862  1.00  0.00     0.170 HD
BRANCH   9  13
HETATM   13  C   UNL     1     -45.430  58.215 -56.606  1.00  0.00     0.130 C 
BRANCH  13  14
HETATM   14  C   UNL     1     -45.270  58.473 -58.106  1.00  0.00     0.079 C 
BRANCH  14  15
HETATM   15  C   UNL     1     -44.826  57.239 -58.858  1.00  0.00     0.042 A 
HETATM   16  N   UNL     1     -43.753  56.562 -58.323  1.00  0.00    -0.248 NA
HETATM   17  C   UNL     1     -43.358  55.501 -58.947  1.00  0.00     0.210 A 
HETATM   18  N   UNL     1     -43.939  55.018 -60.081  1.00  0.00    -0.318 N 
HETATM   19  C   UNL     1     -45.018  55.627 -60.646  1.00  0.00     0.248 A 
HETATM   20  H   UNL     1     -43.602  54.178 -60.527  1.00  0.00     0.169 HD
HETATM   21  O   UNL     1     -45.598  55.194 -61.632  1.00  0.00    -0.268 OA
HETATM   22  C   UNL     1     -45.467  56.849 -59.969  1.00  0.00     0.101 A 
ENDBRANCH  14  15
ENDBRANCH  13  14
ENDBRANCH   9  13
ENDBRANCH   2   7
BRANCH   1  23
HETATM   23  C   UNL     1     -42.960  55.373 -52.224  1.00  0.00     0.275 C 
BRANCH  23  24
HETATM   24  N   UNL     1     -42.351  54.392 -53.217  1.00  0.00    -0.067 N 
HETATM   25  C   UNL     1     -42.994  54.473 -54.576  1.00  0.00     0.270 C 
HETATM   26  H   UNL     1     -42.658  53.483 -52.815  1.00  0.00     0.280 HD
BRANCH  24  27
HETATM   27  C   UNL     1     -40.824  54.378 -53.284  1.00  0.00     0.188 C 
HETATM   28  C   UNL     1     -40.150  53.802 -52.025  1.00  0.00     0.033 C 
HETATM   29  C   UNL     1     -40.297  52.289 -51.878  1.00  0.00     0.002 C 
HETATM   30  C   UNL     1     -39.795  51.561 -53.117  1.00  0.00     0.000 C 
HETATM   31  C   UNL     1     -40.467  52.075 -54.385  1.00  0.00     0.002 C 
HETATM   32  C   UNL     1     -40.332  53.593 -54.519  1.00  0.00     0.033 C 
ENDBRANCH  24  27
ENDBRANCH  23  24
ENDBRANCH   1  23
TORSDOF 7
ENDMDL
MODEL 9
REMARK VINA RESULT:      -7.0      2.305      3.514
REMARK  7 active torsions:
REMARK  status: ('A' for Active; 'I' for Inactive)
REMARK    1  A    between atoms: N_2  and  C_4 
REMARK    2  A    between atoms: N_2  and  C_10 
REMARK    3  A    between atoms: C_10  and  C_11 
REMARK    4  A    between atoms: C_12  and  N_13 
REMARK       I    between atoms: N_13  and  C_14 
REMARK       I    between atoms: C_14  and  N_15 
REMARK    5  A    between atoms: N_15  and  C_16 
REMARK    6  A    between atoms: C_16  and  C_17 
REMARK    7  A    between atoms: C_17  and  C_18 
ROOT
HETATM    1  C   UNL     1     -43.123  55.475 -54.307  1.00  0.00    -0.006 A 
HETATM    2  C   UNL     1     -42.070  55.592 -55.238  1.00  0.00     0.044 A 
HETATM    3  C   UNL     1     -40.934  54.766 -55.070  1.00  0.00     0.030 A 
HETATM    4  C   UNL     1     -40.840  53.822 -54.049  1.00  0.00     0.002 A 
HETATM    5  C   UNL     1     -41.885  53.678 -53.156  1.00  0.00     0.001 A 
HETATM    6  C   UNL     1     -43.006  54.494 -53.282  1.00  0.00     0.011 A 
ENDROOT
BRANCH   2   7
HETATM    7  N   UNL     1     -41.961  56.436 -56.372  1.00  0.00    -0.308 N 
HETATM    8  C   UNL     1     -42.424  56.302 -57.650  1.00  0.00     0.320 C 
HETATM    9  N   UNL     1     -41.948  57.289 -58.478  1.00  0.00    -0.343 N 
HETATM   10  O   UNL     1     -43.116  55.385 -58.072  1.00  0.00    -0.247 OA
HETATM   11  H   UNL     1     -41.583  58.145 -58.086  1.00  0.00     0.164 HD
HETATM   12  H   UNL     1     -41.285  57.182 -56.281  1.00  0.00     0.170 HD
BRANCH   9  13
HETATM   13  C   UNL     1     -42.234  57.285 -59.907  1.00  0.00     0.130 C 
BRANCH  13  14
HETATM   14  C   UNL     1     -43.385  58.228 -60.267  1.00  0.00     0.079 C 
BRANCH  14  15
HETATM   15  C   UNL     1     -44.734  57.659 -59.890  1.00  0.00     0.042 A 
HETATM   16  N   UNL     1     -45.126  56.533 -60.580  1.00  0.00    -0.248 NA
HETATM   17  C   UNL     1     -46.274  56.027 -60.272  1.00  0.00     0.210 A 
HETATM   18  N   UNL     1     -47.101  56.530 -59.313  1.00  0.00    -0.318 N 
HETATM   19  C   UNL     1     -46.762  57.624 -58.579  1.00  0.00     0.248 A 
HETATM   20  H   UNL     1     -47.986  56.092 -59.100  1.00  0.00     0.169 HD
HETATM   21  O   UNL     1     -47.453  58.073 -57.675  1.00  0.00    -0.268 OA
HETATM   22  C   UNL     1     -45.473  58.233 -58.930  1.00  0.00     0.101 A 
ENDBRANCH  14  15
ENDBRANCH  13  14
ENDBRANCH   9  13
ENDBRANCH   2   7
BRANCH   1  23
HETATM   23  C   UNL     1     -44.367  56.332 -54.211  1.00  0.00     0.275 C 
BRANCH  23  24
HETATM   24  N   UNL     1     -44.208  57.841 -54.073  1.00  0.00    -0.067 N 
HETATM   25  C   UNL     1     -44.839  58.595 -55.212  1.00  0.00     0.270 C 
HETATM   26  H   UNL     1     -43.181  57.946 -54.200  1.00  0.00     0.280 HD
BRANCH  24  27
HETATM   27  C   UNL     1     -44.568  58.423 -52.706  1.00  0.00     0.188 C 
HETATM   28  C   UNL     1     -44.038  57.600 -51.517  1.00  0.00     0.033 C 
HETATM   29  C   UNL     1     -42.527  57.698 -51.317  1.00  0.00     0.002 C 
HETATM   30  C   UNL     1     -42.080  59.148 -51.188  1.00  0.00     0.000 C 
HETATM   31  C   UNL     1     -42.552  59.992 -52.366  1.00  0.00     0.002 C 
HETATM   32  C   UNL     1     -44.063  59.876 -52.574  1.00  0.00     0.033 C 
ENDBRANCH  24  27
ENDBRANCH  23  24
ENDBRANCH   1  23
TORSDOF 7
ENDMDL
MODEL 10
REMARK VINA RESULT:      -7.0      3.131      7.105
REMARK  7 active torsions:
REMARK  status: ('A' for Active; 'I' for Inactive)
REMARK    1  A    between atoms: N_2  and  C_4 
REMARK    2  A    between atoms: N_2  and  C_10 
REMARK    3  A    between atoms: C_10  and  C_11 
REMARK    4  A    between atoms: C_12  and  N_13 
REMARK       I    between atoms: N_13  and  C_14 
REMARK       I    between atoms: C_14  and  N_15 
REMARK    5  A    between atoms: N_15  and  C_16 
REMARK    6  A    between atoms: C_16  and  C_17 
REMARK    7  A    between atoms: C_17  and  C_18 
ROOT
HETATM    1  C   UNL     1     -42.614  57.298 -55.494  1.00  0.00    -0.006 A 
HETATM    2  C   UNL     1     -42.779  55.899 -55.403  1.00  0.00     0.044 A 
HETATM    3  C   UNL     1     -42.975  55.170 -56.600  1.00  0.00     0.030 A 
HETATM    4  C   UNL     1     -42.970  55.777 -57.854  1.00  0.00     0.002 A 
HETATM    5  C   UNL     1     -42.772  57.141 -57.951  1.00  0.00     0.001 A 
HETATM    6  C   UNL     1     -42.600  57.888 -56.789  1.00  0.00     0.011 A 
ENDROOT
BRANCH   2   7
HETATM    7  N   UNL     1     -42.773  55.065 -54.257  1.00  0.00    -0.308 N 
HETATM    8  C   UNL     1     -41.942  55.018 -53.174  1.00  0.00     0.320 C 
HETATM    9  N   UNL     1     -42.204  53.937 -52.369  1.00  0.00    -0.343 N 
HETATM   10  O   UNL     1     -41.011  55.779 -52.949  1.00  0.00    -0.247 OA
HETATM   11  H   UNL     1     -43.094  53.464 -52.431  1.00  0.00     0.164 HD
HETATM   12  H   UNL     1     -43.372  54.253 -54.321  1.00  0.00     0.170 HD
BRANCH   9  13
HETATM   13  C   UNL     1     -41.375  53.635 -51.210  1.00  0.00     0.130 C 
BRANCH  13  14
HETATM   14  C   UNL     1     -39.948  53.246 -51.606  1.00  0.00     0.079 C 
BRANCH  14  15
HETATM   15  C   UNL     1     -39.816  51.771 -51.908  1.00  0.00     0.042 A 
HETATM   16  N   UNL     1     -39.761  50.936 -50.814  1.00  0.00    -0.248 NA
HETATM   17  C   UNL     1     -39.652  49.670 -51.048  1.00  0.00     0.210 A 
HETATM   18  N   UNL     1     -39.598  49.122 -52.294  1.00  0.00    -0.318 N 
HETATM   19  C   UNL     1     -39.672  49.890 -53.416  1.00  0.00     0.248 A 
HETATM   20  H   UNL     1     -39.524  48.124 -52.427  1.00  0.00     0.169 HD
HETATM   21  O   UNL     1     -39.679  49.431 -54.550  1.00  0.00    -0.268 OA
HETATM   22  C   UNL     1     -39.769  51.334 -53.175  1.00  0.00     0.101 A 
ENDBRANCH  14  15
ENDBRANCH  13  14
ENDBRANCH   9  13
ENDBRANCH   2   7
BRANCH   1  23
HETATM   23  C   UNL     1     -42.518  58.290 -54.354  1.00  0.00     0.275 C 
BRANCH  23  24
HETATM   24  N   UNL     1     -43.757  58.554 -53.508  1.00  0.00    -0.067 N 
HETATM   25  C   UNL     1     -45.017  58.047 -54.155  1.00  0.00     0.270 C 
HETATM   26  H   UNL     1     -43.815  59.592 -53.555  1.00  0.00     0.280 HD
BRANCH  24  27
HETATM   27  C   UNL     1     -43.649  58.162 -52.034  1.00  0.00     0.188 C 
HETATM   28  C   UNL     1     -42.348  58.633 -51.357  1.00  0.00     0.033 C 
HETATM   29  C   UNL     1     -42.289  60.138 -51.106  1.00  0.00     0.002 C 
HETATM   30  C   UNL     1     -43.495  60.614 -50.308  1.00  0.00     0.000 C 
HETATM   31  C   UNL     1     -44.806  60.201 -50.965  1.00  0.00     0.002 C 
HETATM   32  C   UNL     1     -44.854  58.695 -51.231  1.00  0.00     0.033 C 
ENDBRANCH  24  27
ENDBRANCH  23  24
ENDBRANCH   1  23
TORSDOF 7
ENDMDL
