MODEL 1
REMARK VINA RESULT:      -8.0      0.000      0.000
REMARK  4 active torsions:
REMARK  status: ('A' for Active; 'I' for Inactive)
REMARK    1  A    between atoms: C_2  and  N_3 
REMARK       I    between atoms: N_3  and  C_4 
REMARK       I    between atoms: C_4  and  N_5 
REMARK    2  A    between atoms: N_5  and  C_6 
REMARK    3  A    between atoms: C_14  and  C_15 
REMARK       I    between atoms: C_15  and  N_16 
REMARK    4  A    between atoms: N_16  and  C_17 
ROOT
HETATM    1  C   UNL     1     -43.168  54.835 -52.604  1.00  0.00     0.031 A 
HETATM    2  C   UNL     1     -42.100  54.502 -53.433  1.00  0.00     0.037 A 
HETATM    3  C   UNL     1     -42.041  55.066 -54.714  1.00  0.00     0.048 A 
HETATM    4  C   UNL     1     -43.026  55.967 -55.174  1.00  0.00     0.055 A 
HETATM    5  C   UNL     1     -44.075  56.312 -54.312  1.00  0.00     0.049 A 
HETATM    6 CL   UNL     1     -45.325  57.445 -54.694  1.00  0.00    -0.083 Cl
HETATM    7  C   UNL     1     -44.142  55.740 -53.037  1.00  0.00     0.027 A 
ENDROOT
BRANCH   2   8
HETATM    8  N   UNL     1     -41.081  53.597 -53.070  1.00  0.00    -0.309 N 
HETATM    9  C   UNL     1     -40.359  53.586 -51.909  1.00  0.00     0.325 C 
HETATM   10  N   UNL     1     -39.543  52.508 -51.696  1.00  0.00    -0.306 N 
HETATM   11  O   UNL     1     -40.353  54.479 -51.063  1.00  0.00    -0.247 OA
HETATM   12  H   UNL     1     -38.932  52.641 -50.899  1.00  0.00     0.171 HD
HETATM   13  H   UNL     1     -40.692  53.041 -53.817  1.00  0.00     0.170 HD
BRANCH  10  14
HETATM   14  C   UNL     1     -39.528  51.258 -52.280  1.00  0.00     0.072 A 
HETATM   15  C   UNL     1     -39.565  50.811 -53.619  1.00  0.00     0.169 A 
HETATM   16  N   UNL     1     -39.537  49.478 -53.716  1.00  0.00    -0.185 NA
HETATM   17  N   UNL     1     -39.523  49.068 -52.439  1.00  0.00    -0.287 N 
HETATM   18  H   UNL     1     -39.516  48.070 -52.253  1.00  0.00     0.188 HD
HETATM   19  C   UNL     1     -39.529  50.097 -51.542  1.00  0.00     0.140 A 
ENDBRANCH  10  14
ENDBRANCH   2   8
BRANCH   4  20
HETATM   20  C   UNL     1     -42.836  56.471 -56.571  1.00  0.00     0.253 C 
HETATM   21  N   UNL     1     -43.597  55.910 -57.570  1.00  0.00    -0.352 N 
HETATM   22  H   UNL     1     -44.223  55.149 -57.335  1.00  0.00     0.163 HD
HETATM   23  O   UNL     1     -41.988  57.330 -56.792  1.00  0.00    -0.268 OA
BRANCH  21  24
HETATM   24  C   UNL     1     -43.423  56.245 -58.979  1.00  0.00     0.084 C 
HETATM   25  C   UNL     1     -43.642  55.012 -59.867  1.00  0.00     0.025 C 
HETATM   26  C   UNL     1     -45.110  54.595 -59.937  1.00  0.00     0.002 C 
HETATM   27  C   UNL     1     -46.003  55.752 -60.371  1.00  0.00     0.000 C 
HETATM   28  C   UNL     1     -45.821  56.974 -59.475  1.00  0.00     0.002 C 
HETATM   29  C   UNL     1     -44.354  57.394 -59.383  1.00  0.00     0.025 C 
ENDBRANCH  21  24
ENDBRANCH   4  20
TORSDOF 4
ENDMDL
MODEL 2
REMARK VINA RESULT:      -7.7      1.869      2.518
REMARK  4 active torsions:
REMARK  status: ('A' for Active; 'I' for Inactive)
REMARK    1  A    between atoms: C_2  and  N_3 
REMARK       I    between atoms: N_3  and  C_4 
REMARK       I    between atoms: C_4  and  N_5 
REMARK    2  A    between atoms: N_5  and  C_6 
REMARK    3  A    between atoms: C_14  and  C_15 
REMARK       I    between atoms: C_15  and  N_16 
REMARK    4  A    between atoms: N_16  and  C_17 
ROOT
HETATM    1  C   UNL     1     -41.810  55.517 -51.997  1.00  0.00     0.031 A 
HETATM    2  C   UNL     1     -41.885  54.800 -53.188  1.00  0.00     0.037 A 
HETATM    3  C   UNL     1     -42.644  55.324 -54.242  1.00  0.00     0.048 A 
HETATM    4  C   UNL     1     -43.318  56.560 -54.128  1.00  0.00     0.055 A 
HETATM    5  C   UNL     1     -43.203  57.280 -52.932  1.00  0.00     0.049 A 
HETATM    6 CL   UNL     1     -43.911  58.833 -52.651  1.00  0.00    -0.083 Cl
HETATM    7  C   UNL     1     -42.455  56.751 -51.873  1.00  0.00     0.027 A 
ENDROOT
BRANCH   2   8
HETATM    8  N   UNL     1     -41.265  53.550 -53.389  1.00  0.00    -0.309 N 
HETATM    9  C   UNL     1     -40.330  53.232 -54.335  1.00  0.00     0.325 C 
HETATM   10  N   UNL     1     -39.735  52.004 -54.231  1.00  0.00    -0.306 N 
HETATM   11  O   UNL     1     -40.011  53.940 -55.288  1.00  0.00    -0.247 OA
HETATM   12  H   UNL     1     -39.173  51.780 -55.044  1.00  0.00     0.171 HD
HETATM   13  H   UNL     1     -41.703  52.758 -52.943  1.00  0.00     0.170 HD
BRANCH  10  14
HETATM   14  C   UNL     1     -39.661  51.124 -53.171  1.00  0.00     0.072 A 
HETATM   15  C   UNL     1     -39.462  51.289 -51.783  1.00  0.00     0.169 A 
HETATM   16  N   UNL     1     -39.455  50.127 -51.123  1.00  0.00    -0.185 NA
HETATM   17  N   UNL     1     -39.608  49.212 -52.092  1.00  0.00    -0.287 N 
HETATM   18  H   UNL     1     -39.619  48.231 -51.831  1.00  0.00     0.188 HD
HETATM   19  C   UNL     1     -39.724  49.759 -53.336  1.00  0.00     0.140 A 
ENDBRANCH  10  14
ENDBRANCH   2   8
BRANCH   4  20
HETATM   20  C   UNL     1     -44.102  56.980 -55.333  1.00  0.00     0.253 C 
HETATM   21  N   UNL     1     -43.522  56.816 -56.570  1.00  0.00    -0.352 N 
HETATM   22  H   UNL     1     -42.575  56.461 -56.620  1.00  0.00     0.163 HD
HETATM   23  O   UNL     1     -45.207  57.492 -55.186  1.00  0.00    -0.268 OA
BRANCH  21  24
HETATM   24  C   UNL     1     -44.144  57.286 -57.802  1.00  0.00     0.084 C 
HETATM   25  C   UNL     1     -43.462  58.564 -58.309  1.00  0.00     0.025 C 
HETATM   26  C   UNL     1     -42.067  58.299 -58.873  1.00  0.00     0.002 C 
HETATM   27  C   UNL     1     -42.093  57.223 -59.954  1.00  0.00     0.000 C 
HETATM   28  C   UNL     1     -42.739  55.934 -59.453  1.00  0.00     0.002 C 
HETATM   29  C   UNL     1     -44.129  56.186 -58.872  1.00  0.00     0.025 C 
ENDBRANCH  21  24
ENDBRANCH   4  20
TORSDOF 4
ENDMDL
MODEL 3
REMARK VINA RESULT:      -7.7      2.036      8.071
REMARK  4 active torsions:
REMARK  status: ('A' for Active; 'I' for Inactive)
REMARK    1  A    between atoms: C_2  and  N_3 
REMARK       I    between atoms: N_3  and  C_4 
REMARK       I    between atoms: C_4  and  N_5 
REMARK    2  A    between atoms: N_5  and  C_6 
REMARK    3  A    between atoms: C_14  and  C_15 
REMARK       I    between atoms: C_15  and  N_16 
REMARK    4  A    between atoms: N_16  and  C_17 
ROOT
HETATM    1  C   UNL     1     -44.157  56.283 -54.329  1.00  0.00     0.031 A 
HETATM    2  C   UNL     1     -43.489  56.004 -55.519  1.00  0.00     0.037 A 
HETATM    3  C   UNL     1     -42.325  55.227 -55.470  1.00  0.00     0.048 A 
HETATM    4  C   UNL     1     -41.825  54.713 -54.253  1.00  0.00     0.055 A 
HETATM    5  C   UNL     1     -42.531  54.979 -53.073  1.00  0.00     0.049 A 
HETATM    6 CL   UNL     1     -42.093  54.376 -51.512  1.00  0.00    -0.083 Cl
HETATM    7  C   UNL     1     -43.687  55.766 -53.118  1.00  0.00     0.027 A 
ENDROOT
BRANCH   2   8
HETATM    8  N   UNL     1     -43.899  56.489 -56.778  1.00  0.00    -0.309 N 
HETATM    9  C   UNL     1     -43.486  57.636 -57.397  1.00  0.00     0.325 C 
HETATM   10  N   UNL     1     -43.883  57.817 -58.694  1.00  0.00    -0.306 N 
HETATM   11  O   UNL     1     -42.825  58.531 -56.874  1.00  0.00    -0.247 OA
HETATM   12  H   UNL     1     -43.670  58.748 -59.034  1.00  0.00     0.171 HD
HETATM   13  H   UNL     1     -44.733  56.074 -57.165  1.00  0.00     0.170 HD
BRANCH  10  14
HETATM   14  C   UNL     1     -44.368  56.921 -59.624  1.00  0.00     0.072 A 
HETATM   15  C   UNL     1     -43.806  55.804 -60.282  1.00  0.00     0.169 A 
HETATM   16  N   UNL     1     -44.662  55.222 -61.128  1.00  0.00    -0.185 NA
HETATM   17  N   UNL     1     -45.760  55.989 -61.043  1.00  0.00    -0.287 N 
HETATM   18  H   UNL     1     -46.561  55.748 -61.619  1.00  0.00     0.188 HD
HETATM   19  C   UNL     1     -45.629  57.025 -60.165  1.00  0.00     0.140 A 
ENDBRANCH  10  14
ENDBRANCH   2   8
BRANCH   4  20
HETATM   20  C   UNL     1     -40.563  53.914 -54.360  1.00  0.00     0.253 C 
HETATM   21  N   UNL     1     -40.433  52.802 -53.561  1.00  0.00    -0.352 N 
HETATM   22  H   UNL     1     -41.170  52.589 -52.900  1.00  0.00     0.163 HD
HETATM   23  O   UNL     1     -39.673  54.291 -55.116  1.00  0.00    -0.268 OA
BRANCH  21  24
HETATM   24  C   UNL     1     -39.209  52.012 -53.502  1.00  0.00     0.084 C 
HETATM   25  C   UNL     1     -38.832  51.691 -52.048  1.00  0.00     0.025 C 
HETATM   26  C   UNL     1     -39.770  50.663 -51.414  1.00  0.00     0.002 C 
HETATM   27  C   UNL     1     -39.860  49.393 -52.253  1.00  0.00     0.000 C 
HETATM   28  C   UNL     1     -40.267  49.694 -53.693  1.00  0.00     0.002 C 
HETATM   29  C   UNL     1     -39.348  50.732 -54.336  1.00  0.00     0.025 C 
ENDBRANCH  21  24
ENDBRANCH   4  20
TORSDOF 4
ENDMDL
MODEL 4
REMARK VINA RESULT:      -7.4      1.314      1.955
REMARK  4 active torsions:
REMARK  status: ('A' for Active; 'I' for Inactive)
REMARK    1  A    between atoms: C_2  and  N_3 
REMARK       I    between atoms: N_3  and  C_4 
REMARK       I    between atoms: C_4  and  N_5 
REMARK    2  A    between atoms: N_5  and  C_6 
REMARK    3  A    between atoms: C_14  and  C_15 
REMARK       I    between atoms: C_15  and  N_16 
REMARK    4  A    between atoms: N_16  and  C_17 
ROOT
HETATM    1  C   UNL     1     -42.762  55.145 -52.468  1.00  0.00     0.031 A 
HETATM    2  C   UNL     1     -41.901  54.460 -53.321  1.00  0.00     0.037 A 
HETATM    3  C   UNL     1     -42.009  54.675 -54.701  1.00  0.00     0.048 A 
HETATM    4  C   UNL     1     -42.956  55.573 -55.240  1.00  0.00     0.055 A 
HETATM    5  C   UNL     1     -43.791  56.275 -54.362  1.00  0.00     0.049 A 
HETATM    6 CL   UNL     1     -44.959  57.454 -54.851  1.00  0.00    -0.083 Cl
HETATM    7  C   UNL     1     -43.693  56.052 -52.983  1.00  0.00     0.027 A 
ENDROOT
BRANCH   2   8
HETATM    8  N   UNL     1     -40.938  53.530 -52.878  1.00  0.00    -0.309 N 
HETATM    9  C   UNL     1     -40.298  53.512 -51.670  1.00  0.00     0.325 C 
HETATM   10  N   UNL     1     -39.533  52.413 -51.389  1.00  0.00    -0.306 N 
HETATM   11  O   UNL     1     -40.322  54.416 -50.837  1.00  0.00    -0.247 OA
HETATM   12  H   UNL     1     -38.974  52.537 -50.553  1.00  0.00     0.171 HD
HETATM   13  H   UNL     1     -40.516  52.952 -53.590  1.00  0.00     0.170 HD
BRANCH  10  14
HETATM   14  C   UNL     1     -39.518  51.155 -51.956  1.00  0.00     0.072 A 
HETATM   15  C   UNL     1     -39.601  50.687 -53.286  1.00  0.00     0.169 A 
HETATM   16  N   UNL     1     -39.551  49.354 -53.366  1.00  0.00    -0.185 NA
HETATM   17  N   UNL     1     -39.476  48.963 -52.085  1.00  0.00    -0.287 N 
HETATM   18  H   UNL     1     -39.441  47.968 -51.886  1.00  0.00     0.188 HD
HETATM   19  C   UNL     1     -39.465  50.004 -51.203  1.00  0.00     0.140 A 
ENDBRANCH  10  14
ENDBRANCH   2   8
BRANCH   4  20
HETATM   20  C   UNL     1     -42.962  55.683 -56.734  1.00  0.00     0.253 C 
HETATM   21  N   UNL     1     -42.583  56.881 -57.294  1.00  0.00    -0.352 N 
HETATM   22  H   UNL     1     -42.358  57.655 -56.682  1.00  0.00     0.163 HD
HETATM   23  O   UNL     1     -43.341  54.731 -57.407  1.00  0.00    -0.268 OA
BRANCH  21  24
HETATM   24  C   UNL     1     -42.652  57.138 -58.728  1.00  0.00     0.084 C 
HETATM   25  C   UNL     1     -44.092  57.453 -59.160  1.00  0.00     0.025 C 
HETATM   26  C   UNL     1     -44.558  58.829 -58.683  1.00  0.00     0.002 C 
HETATM   27  C   UNL     1     -43.598  59.930 -59.120  1.00  0.00     0.000 C 
HETATM   28  C   UNL     1     -42.168  59.646 -58.668  1.00  0.00     0.002 C 
HETATM   29  C   UNL     1     -41.693  58.267 -59.124  1.00  0.00     0.025 C 
ENDBRANCH  21  24
ENDBRANCH   4  20
TORSDOF 4
ENDMDL
MODEL 5
REMARK VINA RESULT:      -7.4      3.612      8.339
REMARK  4 active torsions:
REMARK  status: ('A' for Active; 'I' for Inactive)
REMARK    1  A    between atoms: C_2  and  N_3 
REMARK       I    between atoms: N_3  and  C_4 
REMARK       I    between atoms: C_4  and  N_5 
REMARK    2  A    between atoms: N_5  and  C_6 
REMARK    3  A    between atoms: C_14  and  C_15 
REMARK       I    between atoms: C_15  and  N_16 
REMARK    4  A    between atoms: N_16  and  C_17 
ROOT
HETATM    1  C   UNL     1     -42.378  59.882 -54.725  1.00  0.00     0.031 A 
HETATM    2  C   UNL     1     -42.950  58.637 -54.973  1.00  0.00     0.037 A 
HETATM    3  C   UNL     1     -43.175  57.773 -53.893  1.00  0.00     0.048 A 
HETATM    4  C   UNL     1     -42.849  58.140 -52.569  1.00  0.00     0.055 A 
HETATM    5  C   UNL     1     -42.304  59.410 -52.339  1.00  0.00     0.049 A 
HETATM    6 CL   UNL     1     -41.907  60.038 -50.777  1.00  0.00    -0.083 Cl
HETATM    7  C   UNL     1     -42.067  60.269 -53.419  1.00  0.00     0.027 A 
ENDROOT
BRANCH   2   8
HETATM    8  N   UNL     1     -43.289  58.174 -56.261  1.00  0.00    -0.309 N 
HETATM    9  C   UNL     1     -44.385  58.520 -57.002  1.00  0.00     0.325 C 
HETATM   10  N   UNL     1     -44.420  58.083 -58.299  1.00  0.00    -0.306 N 
HETATM   11  O   UNL     1     -45.355  59.154 -56.589  1.00  0.00    -0.247 OA
HETATM   12  H   UNL     1     -45.321  58.245 -58.734  1.00  0.00     0.171 HD
HETATM   13  H   UNL     1     -42.804  57.350 -56.581  1.00  0.00     0.170 HD
BRANCH  10  14
HETATM   14  C   UNL     1     -43.416  57.615 -59.121  1.00  0.00     0.072 A 
HETATM   15  C   UNL     1     -42.986  56.322 -59.490  1.00  0.00     0.169 A 
HETATM   16  N   UNL     1     -41.943  56.346 -60.326  1.00  0.00    -0.185 NA
HETATM   17  N   UNL     1     -41.677  57.654 -60.462  1.00  0.00    -0.287 N 
HETATM   18  H   UNL     1     -40.899  57.928 -61.053  1.00  0.00     0.188 HD
HETATM   19  C   UNL     1     -42.524  58.453 -59.751  1.00  0.00     0.140 A 
ENDBRANCH  10  14
ENDBRANCH   2   8
BRANCH   4  20
HETATM   20  C   UNL     1     -43.132  57.105 -51.525  1.00  0.00     0.253 C 
HETATM   21  N   UNL     1     -42.122  56.232 -51.190  1.00  0.00    -0.352 N 
HETATM   22  H   UNL     1     -41.243  56.291 -51.690  1.00  0.00     0.163 HD
HETATM   23  O   UNL     1     -44.254  57.035 -51.034  1.00  0.00    -0.268 OA
BRANCH  21  24
HETATM   24  C   UNL     1     -42.315  55.119 -50.269  1.00  0.00     0.084 C 
HETATM   25  C   UNL     1     -42.392  53.786 -51.026  1.00  0.00     0.025 C 
HETATM   26  C   UNL     1     -41.039  53.353 -51.589  1.00  0.00     0.002 C 
HETATM   27  C   UNL     1     -39.968  53.308 -50.505  1.00  0.00     0.000 C 
HETATM   28  C   UNL     1     -39.856  54.639 -49.766  1.00  0.00     0.002 C 
HETATM   29  C   UNL     1     -41.205  55.092 -49.210  1.00  0.00     0.025 C 
ENDBRANCH  21  24
ENDBRANCH   4  20
TORSDOF 4
ENDMDL
MODEL 6
REMARK VINA RESULT:      -7.3      3.245      5.175
REMARK  4 active torsions:
REMARK  status: ('A' for Active; 'I' for Inactive)
REMARK    1  A    between atoms: C_2  and  N_3 
REMARK       I    between atoms: N_3  and  C_4 
REMARK       I    between atoms: C_4  and  N_5 
REMARK    2  A    between atoms: N_5  and  C_6 
REMARK    3  A    between atoms: C_14  and  C_15 
REMARK       I    between atoms: C_15  and  N_16 
REMARK    4  A    between atoms: N_16  and  C_17 
ROOT
HETATM    1  C   UNL     1     -43.007  54.275 -53.934  1.00  0.00     0.031 A 
HETATM    2  C   UNL     1     -41.812  54.595 -53.296  1.00  0.00     0.037 A 
HETATM    3  C   UNL     1     -41.490  55.945 -53.107  1.00  0.00     0.048 A 
HETATM    4  C   UNL     1     -42.352  56.980 -53.535  1.00  0.00     0.055 A 
HETATM    5  C   UNL     1     -43.564  56.634 -54.147  1.00  0.00     0.049 A 
HETATM    6 CL   UNL     1     -44.756  57.772 -54.671  1.00  0.00    -0.083 Cl
HETATM    7  C   UNL     1     -43.880  55.285 -54.347  1.00  0.00     0.027 A 
ENDROOT
BRANCH   2   8
HETATM    8  N   UNL     1     -40.879  53.634 -52.853  1.00  0.00    -0.309 N 
HETATM    9  C   UNL     1     -40.309  53.544 -51.613  1.00  0.00     0.325 C 
HETATM   10  N   UNL     1     -39.566  52.425 -51.353  1.00  0.00    -0.306 N 
HETATM   11  O   UNL     1     -40.376  54.401 -50.734  1.00  0.00    -0.247 OA
HETATM   12  H   UNL     1     -39.054  52.499 -50.481  1.00  0.00     0.171 HD
HETATM   13  H   UNL     1     -40.421  53.093 -53.571  1.00  0.00     0.170 HD
BRANCH  10  14
HETATM   14  C   UNL     1     -39.524  51.201 -51.987  1.00  0.00     0.072 A 
HETATM   15  C   UNL     1     -39.547  50.808 -53.343  1.00  0.00     0.169 A 
HETATM   16  N   UNL     1     -39.493  49.481 -53.495  1.00  0.00    -0.185 NA
HETATM   17  N   UNL     1     -39.475  49.019 -52.235  1.00  0.00    -0.287 N 
HETATM   18  H   UNL     1     -39.448  48.015 -52.091  1.00  0.00     0.188 HD
HETATM   19  C   UNL     1     -39.504  50.010 -51.297  1.00  0.00     0.140 A 
ENDBRANCH  10  14
ENDBRANCH   2   8
BRANCH   4  20
HETATM   20  C   UNL     1     -41.864  58.372 -53.279  1.00  0.00     0.253 C 
HETATM   21  N   UNL     1     -42.506  59.114 -52.314  1.00  0.00    -0.352 N 
HETATM   22  H   UNL     1     -43.309  58.712 -51.846  1.00  0.00     0.163 HD
HETATM   23  O   UNL     1     -40.945  58.824 -53.955  1.00  0.00    -0.268 OA
BRANCH  21  24
HETATM   24  C   UNL     1     -42.189  60.513 -52.054  1.00  0.00     0.084 C 
HETATM   25  C   UNL     1     -43.062  61.443 -52.909  1.00  0.00     0.025 C 
HETATM   26  C   UNL     1     -44.517  61.473 -52.441  1.00  0.00     0.002 C 
HETATM   27  C   UNL     1     -44.624  61.824 -50.961  1.00  0.00     0.000 C 
HETATM   28  C   UNL     1     -43.787  60.886 -50.096  1.00  0.00     0.002 C 
HETATM   29  C   UNL     1     -42.333  60.833 -50.560  1.00  0.00     0.025 C 
ENDBRANCH  21  24
ENDBRANCH   4  20
TORSDOF 4
ENDMDL
MODEL 7
REMARK VINA RESULT:      -7.1      3.917      7.788
REMARK  4 active torsions:
REMARK  status: ('A' for Active; 'I' for Inactive)
REMARK    1  A    between atoms: C_2  and  N_3 
REMARK       I    between atoms: N_3  and  C_4 
REMARK       I    between atoms: C_4  and  N_5 
REMARK    2  A    between atoms: N_5  and  C_6 
REMARK    3  A    between atoms: C_14  and  C_15 
REMARK       I    between atoms: C_15  and  N_16 
REMARK    4  A    between atoms: N_16  and  C_17 
ROOT
HETATM    1  C   UNL     1     -42.840  54.751 -54.376  1.00  0.00     0.031 A 
HETATM    2  C   UNL     1     -43.550  55.885 -54.759  1.00  0.00     0.037 A 
HETATM    3  C   UNL     1     -44.055  56.731 -53.763  1.00  0.00     0.048 A 
HETATM    4  C   UNL     1     -43.850  56.468 -52.391  1.00  0.00     0.055 A 
HETATM    5  C   UNL     1     -43.106  55.338 -52.029  1.00  0.00     0.049 A 
HETATM    6 CL   UNL     1     -42.710  54.905 -50.402  1.00  0.00    -0.083 Cl
HETATM    7  C   UNL     1     -42.611  54.484 -53.022  1.00  0.00     0.027 A 
ENDROOT
BRANCH   2   8
HETATM    8  N   UNL     1     -43.823  56.220 -56.101  1.00  0.00    -0.309 N 
HETATM    9  C   UNL     1     -43.051  56.977 -56.939  1.00  0.00     0.325 C 
HETATM   10  N   UNL     1     -43.427  57.025 -58.254  1.00  0.00    -0.306 N 
HETATM   11  O   UNL     1     -42.076  57.646 -56.601  1.00  0.00    -0.247 OA
HETATM   12  H   UNL     1     -42.905  57.719 -58.777  1.00  0.00     0.171 HD
HETATM   13  H   UNL     1     -44.773  56.079 -56.412  1.00  0.00     0.170 HD
BRANCH  10  14
HETATM   14  C   UNL     1     -44.263  56.206 -58.984  1.00  0.00     0.072 A 
HETATM   15  C   UNL     1     -44.091  54.951 -59.609  1.00  0.00     0.169 A 
HETATM   16  N   UNL     1     -45.198  54.528 -60.226  1.00  0.00    -0.185 NA
HETATM   17  N   UNL     1     -46.070  55.529 -60.032  1.00  0.00    -0.287 N 
HETATM   18  H   UNL     1     -47.000  55.442 -60.430  1.00  0.00     0.188 HD
HETATM   19  C   UNL     1     -45.553  56.561 -59.304  1.00  0.00     0.140 A 
ENDBRANCH  10  14
ENDBRANCH   2   8
BRANCH   4  20
HETATM   20  C   UNL     1     -44.464  57.454 -51.446  1.00  0.00     0.253 C 
HETATM   21  N   UNL     1     -44.152  58.784 -51.608  1.00  0.00    -0.352 N 
HETATM   22  H   UNL     1     -43.487  59.043 -52.326  1.00  0.00     0.163 HD
HETATM   23  O   UNL     1     -45.186  57.052 -50.539  1.00  0.00    -0.268 OA
BRANCH  21  24
HETATM   24  C   UNL     1     -44.604  59.818 -50.685  1.00  0.00     0.084 C 
HETATM   25  C   UNL     1     -43.530  60.901 -50.505  1.00  0.00     0.025 C 
HETATM   26  C   UNL     1     -43.376  61.784 -51.743  1.00  0.00     0.002 C 
HETATM   27  C   UNL     1     -44.707  62.395 -52.166  1.00  0.00     0.000 C 
HETATM   28  C   UNL     1     -45.776  61.327 -52.382  1.00  0.00     0.002 C 
HETATM   29  C   UNL     1     -45.931  60.425 -51.158  1.00  0.00     0.025 C 
ENDBRANCH  21  24
ENDBRANCH   4  20
TORSDOF 4
ENDMDL
MODEL 8
REMARK VINA RESULT:      -7.1      1.909      2.457
REMARK  4 active torsions:
REMARK  status: ('A' for Active; 'I' for Inactive)
REMARK    1  A    between atoms: C_2  and  N_3 
REMARK       I    between atoms: N_3  and  C_4 
REMARK       I    between atoms: C_4  and  N_5 
REMARK    2  A    between atoms: N_5  and  C_6 
REMARK    3  A    between atoms: C_14  and  C_15 
REMARK       I    between atoms: C_15  and  N_16 
REMARK    4  A    between atoms: N_16  and  C_17 
ROOT
HETATM    1  C   UNL     1     -42.880  54.767 -50.941  1.00  0.00     0.031 A 
HETATM    2  C   UNL     1     -41.911  54.787 -51.940  1.00  0.00     0.037 A 
HETATM    3  C   UNL     1     -41.920  55.838 -52.866  1.00  0.00     0.048 A 
HETATM    4  C   UNL     1     -42.876  56.876 -52.801  1.00  0.00     0.055 A 
HETATM    5  C   UNL     1     -43.823  56.852 -51.769  1.00  0.00     0.049 A 
HETATM    6 CL   UNL     1     -45.019  58.074 -51.508  1.00  0.00    -0.083 Cl
HETATM    7  C   UNL     1     -43.822  55.796 -50.851  1.00  0.00     0.027 A 
ENDROOT
BRANCH   2   8
HETATM    8  N   UNL     1     -40.930  53.786 -52.099  1.00  0.00    -0.309 N 
HETATM    9  C   UNL     1     -39.993  53.393 -51.183  1.00  0.00     0.325 C 
HETATM   10  N   UNL     1     -39.257  52.281 -51.488  1.00  0.00    -0.306 N 
HETATM   11  O   UNL     1     -39.733  53.977 -50.132  1.00  0.00    -0.247 OA
HETATM   12  H   UNL     1     -38.488  52.141 -50.842  1.00  0.00     0.171 HD
HETATM   13  H   UNL     1     -40.753  53.481 -53.044  1.00  0.00     0.170 HD
BRANCH  10  14
HETATM   14  C   UNL     1     -39.478  51.275 -52.407  1.00  0.00     0.072 A 
HETATM   15  C   UNL     1     -39.560  49.869 -52.307  1.00  0.00     0.169 A 
HETATM   16  N   UNL     1     -39.787  49.283 -53.487  1.00  0.00    -0.185 NA
HETATM   17  N   UNL     1     -39.811  50.309 -54.350  1.00  0.00    -0.287 N 
HETATM   18  H   UNL     1     -39.958  50.107 -55.334  1.00  0.00     0.188 HD
HETATM   19  C   UNL     1     -39.619  51.521 -53.753  1.00  0.00     0.140 A 
ENDBRANCH  10  14
ENDBRANCH   2   8
BRANCH   4  20
HETATM   20  C   UNL     1     -42.768  57.920 -53.869  1.00  0.00     0.253 C 
HETATM   21  N   UNL     1     -43.151  57.579 -55.146  1.00  0.00    -0.352 N 
HETATM   22  H   UNL     1     -43.448  56.627 -55.327  1.00  0.00     0.163 HD
HETATM   23  O   UNL     1     -42.307  59.022 -53.592  1.00  0.00    -0.268 OA
BRANCH  21  24
HETATM   24  C   UNL     1     -42.990  58.475 -56.284  1.00  0.00     0.084 C 
HETATM   25  C   UNL     1     -42.396  57.732 -57.489  1.00  0.00     0.025 C 
HETATM   26  C   UNL     1     -43.392  56.766 -58.130  1.00  0.00     0.002 C 
HETATM   27  C   UNL     1     -44.694  57.466 -58.503  1.00  0.00     0.000 C 
HETATM   28  C   UNL     1     -45.314  58.181 -57.305  1.00  0.00     0.002 C 
HETATM   29  C   UNL     1     -44.325  59.141 -56.644  1.00  0.00     0.025 C 
ENDBRANCH  21  24
ENDBRANCH   4  20
TORSDOF 4
ENDMDL
MODEL 9
REMARK VINA RESULT:      -7.1      4.121      6.635
REMARK  4 active torsions:
REMARK  status: ('A' for Active; 'I' for Inactive)
REMARK    1  A    between atoms: C_2  and  N_3 
REMARK       I    between atoms: N_3  and  C_4 
REMARK       I    between atoms: C_4  and  N_5 
REMARK    2  A    between atoms: N_5  and  C_6 
REMARK    3  A    between atoms: C_14  and  C_15 
REMARK       I    between atoms: C_15  and  N_16 
REMARK    4  A    between atoms: N_16  and  C_17 
ROOT
HETATM    1  C   UNL     1     -41.820  56.573 -52.418  1.00  0.00     0.031 A 
HETATM    2  C   UNL     1     -43.050  56.907 -52.980  1.00  0.00     0.037 A 
HETATM    3  C   UNL     1     -43.349  56.446 -54.268  1.00  0.00     0.048 A 
HETATM    4  C   UNL     1     -42.444  55.645 -54.998  1.00  0.00     0.055 A 
HETATM    5  C   UNL     1     -41.226  55.294 -54.401  1.00  0.00     0.049 A 
HETATM    6 CL   UNL     1     -40.036  54.272 -55.130  1.00  0.00    -0.083 Cl
HETATM    7  C   UNL     1     -40.920  55.765 -53.119  1.00  0.00     0.027 A 
ENDROOT
BRANCH   2   8
HETATM    8  N   UNL     1     -44.008  57.718 -52.337  1.00  0.00    -0.309 N 
HETATM    9  C   UNL     1     -44.652  57.462 -51.158  1.00  0.00     0.325 C 
HETATM   10  N   UNL     1     -45.411  58.473 -50.635  1.00  0.00    -0.306 N 
HETATM   11  O   UNL     1     -44.636  56.391 -50.554  1.00  0.00    -0.247 OA
HETATM   12  H   UNL     1     -45.974  58.164 -49.850  1.00  0.00     0.171 HD
HETATM   13  H   UNL     1     -44.424  58.447 -52.898  1.00  0.00     0.170 HD
BRANCH  10  14
HETATM   14  C   UNL     1     -45.417  59.827 -50.898  1.00  0.00     0.072 A 
HETATM   15  C   UNL     1     -44.593  60.900 -50.491  1.00  0.00     0.169 A 
HETATM   16  N   UNL     1     -44.988  62.072 -50.998  1.00  0.00    -0.185 NA
HETATM   17  N   UNL     1     -46.088  61.759 -51.698  1.00  0.00    -0.287 N 
HETATM   18  H   UNL     1     -46.585  62.506 -52.173  1.00  0.00     0.188 HD
HETATM   19  C   UNL     1     -46.393  60.430 -51.659  1.00  0.00     0.140 A 
ENDBRANCH  10  14
ENDBRANCH   2   8
BRANCH   4  20
HETATM   20  C   UNL     1     -42.898  55.243 -56.367  1.00  0.00     0.253 C 
HETATM   21  N   UNL     1     -42.722  56.141 -57.395  1.00  0.00    -0.352 N 
HETATM   22  H   UNL     1     -42.335  57.052 -57.184  1.00  0.00     0.163 HD
HETATM   23  O   UNL     1     -43.447  54.158 -56.527  1.00  0.00    -0.268 OA
BRANCH  21  24
HETATM   24  C   UNL     1     -43.221  55.903 -58.745  1.00  0.00     0.084 C 
HETATM   25  C   UNL     1     -44.499  56.712 -59.008  1.00  0.00     0.025 C 
HETATM   26  C   UNL     1     -44.224  58.209 -59.152  1.00  0.00     0.002 C 
HETATM   27  C   UNL     1     -43.168  58.487 -60.216  1.00  0.00     0.000 C 
HETATM   28  C   UNL     1     -41.879  57.714 -59.948  1.00  0.00     0.002 C 
HETATM   29  C   UNL     1     -42.139  56.217 -59.786  1.00  0.00     0.025 C 
ENDBRANCH  21  24
ENDBRANCH   4  20
TORSDOF 4
ENDMDL
MODEL 10
REMARK VINA RESULT:      -7.0      4.773      7.042
REMARK  4 active torsions:
REMARK  status: ('A' for Active; 'I' for Inactive)
REMARK    1  A    between atoms: C_2  and  N_3 
REMARK       I    between atoms: N_3  and  C_4 
REMARK       I    between atoms: C_4  and  N_5 
REMARK    2  A    between atoms: N_5  and  C_6 
REMARK    3  A    between atoms: C_14  and  C_15 
REMARK       I    between atoms: C_15  and  N_16 
REMARK    4  A    between atoms: N_16  and  C_17 
ROOT
HETATM    1  C   UNL     1     -43.002  56.428 -51.745  1.00  0.00     0.031 A 
HETATM    2  C   UNL     1     -43.607  57.653 -52.010  1.00  0.00     0.037 A 
HETATM    3  C   UNL     1     -44.122  57.887 -53.291  1.00  0.00     0.048 A 
HETATM    4  C   UNL     1     -44.053  56.909 -54.309  1.00  0.00     0.055 A 
HETATM    5  C   UNL     1     -43.468  55.672 -54.011  1.00  0.00     0.049 A 
HETATM    6 CL   UNL     1     -43.359  54.348 -55.119  1.00  0.00    -0.083 Cl
HETATM    7  C   UNL     1     -42.941  55.442 -52.735  1.00  0.00     0.027 A 
ENDROOT
BRANCH   2   8
HETATM    8  N   UNL     1     -43.705  58.697 -51.066  1.00  0.00    -0.309 N 
HETATM    9  C   UNL     1     -42.764  59.648 -50.784  1.00  0.00     0.325 C 
HETATM   10  N   UNL     1     -43.145  60.670 -49.957  1.00  0.00    -0.306 N 
HETATM   11  O   UNL     1     -41.599  59.638 -51.178  1.00  0.00    -0.247 OA
HETATM   12  H   UNL     1     -42.360  61.245 -49.673  1.00  0.00     0.171 HD
HETATM   13  H   UNL     1     -44.440  58.610 -50.381  1.00  0.00     0.170 HD
BRANCH  10  14
HETATM   14  C   UNL     1     -44.398  61.113 -49.587  1.00  0.00     0.072 A 
HETATM   15  C   UNL     1     -45.205  60.902 -48.448  1.00  0.00     0.169 A 
HETATM   16  N   UNL     1     -46.378  61.540 -48.524  1.00  0.00    -0.185 NA
HETATM   17  N   UNL     1     -46.340  62.128 -49.729  1.00  0.00    -0.287 N 
HETATM   18  H   UNL     1     -47.144  62.671 -50.025  1.00  0.00     0.188 HD
HETATM   19  C   UNL     1     -45.180  61.893 -50.408  1.00  0.00     0.140 A 
ENDBRANCH  10  14
ENDBRANCH   2   8
BRANCH   4  20
HETATM   20  C   UNL     1     -44.632  57.312 -55.630  1.00  0.00     0.253 C 
HETATM   21  N   UNL     1     -43.902  57.040 -56.764  1.00  0.00    -0.352 N 
HETATM   22  H   UNL     1     -42.986  56.621 -56.664  1.00  0.00     0.163 HD
HETATM   23  O   UNL     1     -45.705  57.903 -55.663  1.00  0.00    -0.268 OA
BRANCH  21  24
HETATM   24  C   UNL     1     -44.314  57.480 -58.092  1.00  0.00     0.084 C 
HETATM   25  C   UNL     1     -43.450  58.654 -58.573  1.00  0.00     0.025 C 
HETATM   26  C   UNL     1     -42.027  58.225 -58.933  1.00  0.00     0.002 C 
HETATM   27  C   UNL     1     -42.023  57.086 -59.947  1.00  0.00     0.000 C 
HETATM   28  C   UNL     1     -42.851  55.898 -59.465  1.00  0.00     0.002 C 
HETATM   29  C   UNL     1     -44.272  56.314 -59.088  1.00  0.00     0.025 C 
ENDBRANCH  21  24
ENDBRANCH   4  20
TORSDOF 4
ENDMDL
