MODEL 1
REMARK VINA RESULT:      -7.4      0.000      0.000
REMARK  5 active torsions:
REMARK  status: ('A' for Active; 'I' for Inactive)
REMARK    1  A    between atoms: C_2  and  C_3 
REMARK    2  A    between atoms: C_3  and  N_4 
REMARK       I    between atoms: N_4  and  C_5 
REMARK    3  A    between atoms: C_5  and  C_6 
REMARK    4  A    between atoms: C_10  and  N_11 
REMARK       I    between atoms: N_11  and  C_12 
REMARK       I    between atoms: C_12  and  N_13 
REMARK    5  A    between atoms: N_13  and  C_14 
ROOT
HETATM    1  C   UNL     1     -41.109  53.945 -53.060  1.00  0.00     0.053 A 
HETATM    2  C   UNL     1     -42.407  54.423 -52.841  1.00  0.00     0.051 A 
HETATM    3 CL   UNL     1     -43.400  53.907 -51.521  1.00  0.00    -0.083 Cl
HETATM    4  C   UNL     1     -42.970  55.357 -53.723  1.00  0.00     0.054 A 
HETATM    5  C   UNL     1     -42.253  55.826 -54.828  1.00  0.00     0.038 A 
HETATM    6  C   UNL     1     -40.991  55.286 -55.090  1.00  0.00     0.030 A 
HETATM    7  C   UNL     1     -40.423  54.356 -54.214  1.00  0.00     0.021 A 
ENDROOT
BRANCH   5   8
HETATM    8  N   UNL     1     -42.711  56.844 -55.691  1.00  0.00    -0.309 N 
HETATM    9  C   UNL     1     -43.174  56.684 -56.991  1.00  0.00     0.325 C 
HETATM   10  N   UNL     1     -43.654  57.883 -57.483  1.00  0.00    -0.305 N 
HETATM   11  O   UNL     1     -43.183  55.623 -57.599  1.00  0.00    -0.247 OA
HETATM   12  H   UNL     1     -43.265  58.726 -57.094  1.00  0.00     0.171 HD
HETATM   13  H   UNL     1     -42.941  57.725 -55.255  1.00  0.00     0.170 HD
BRANCH  10  14
HETATM   14  C   UNL     1     -44.445  58.046 -58.610  1.00  0.00     0.086 A 
HETATM   15  C   UNL     1     -45.856  58.108 -58.816  1.00  0.00     0.079 A 
HETATM   16  C   UNL     1     -46.979  58.032 -57.847  1.00  0.00     0.075 C 
HETATM   17  N   UNL     1     -46.152  58.313 -60.109  1.00  0.00    -0.177 NA
HETATM   18  N   UNL     1     -44.964  58.390 -60.713  1.00  0.00    -0.280 N 
HETATM   19  H   UNL     1     -44.951  58.551 -61.714  1.00  0.00     0.189 HD
HETATM   20  C   UNL     1     -43.901  58.258 -59.864  1.00  0.00     0.052 A 
HETATM   21  C   UNL     1     -42.507  58.353 -60.354  1.00  0.00     0.072 C 
ENDBRANCH  10  14
ENDBRANCH   5   8
BRANCH   1  22
HETATM   22  C   UNL     1     -40.350  53.064 -52.131  1.00  0.00     0.253 C 
HETATM   23  N   UNL     1     -40.012  51.816 -52.599  1.00  0.00    -0.357 N 
HETATM   24  H   UNL     1     -40.244  51.565 -53.553  1.00  0.00     0.162 HD
HETATM   25  O   UNL     1     -40.141  53.431 -50.979  1.00  0.00    -0.268 OA
BRANCH  23  26
HETATM   26  C   UNL     1     -39.485  50.779 -51.738  1.00  0.00     0.122 C 
BRANCH  26  27
HETATM   27  C   UNL     1     -39.464  49.415 -52.429  1.00  0.00     0.015 C 
HETATM   28  C   UNL     1     -39.586  49.520 -53.944  1.00  0.00     0.006 C 
ENDBRANCH  26  27
ENDBRANCH  23  26
ENDBRANCH   1  22
TORSDOF 5
ENDMDL
MODEL 2
REMARK VINA RESULT:      -7.3      2.121      2.918
REMARK  5 active torsions:
REMARK  status: ('A' for Active; 'I' for Inactive)
REMARK    1  A    between atoms: C_2  and  C_3 
REMARK    2  A    between atoms: C_3  and  N_4 
REMARK       I    between atoms: N_4  and  C_5 
REMARK    3  A    between atoms: C_5  and  C_6 
REMARK    4  A    between atoms: C_10  and  N_11 
REMARK       I    between atoms: N_11  and  C_12 
REMARK       I    between atoms: C_12  and  N_13 
REMARK    5  A    between atoms: N_13  and  C_14 
ROOT
HETATM    1  C   UNL     1     -41.122  53.630 -52.793  1.00  0.00     0.053 A 
HETATM    2  C   UNL     1     -41.350  52.984 -54.014  1.00  0.00     0.051 A 
HETATM    3 CL   UNL     1     -40.689  51.435 -54.408  1.00  0.00    -0.083 Cl
HETATM    4  C   UNL     1     -42.140  53.599 -54.997  1.00  0.00     0.054 A 
HETATM    5  C   UNL     1     -42.708  54.857 -54.780  1.00  0.00     0.038 A 
HETATM    6  C   UNL     1     -42.410  55.535 -53.594  1.00  0.00     0.030 A 
HETATM    7  C   UNL     1     -41.627  54.926 -52.609  1.00  0.00     0.021 A 
ENDROOT
BRANCH   5   8
HETATM    8  N   UNL     1     -43.600  55.486 -55.675  1.00  0.00    -0.309 N 
HETATM    9  C   UNL     1     -43.286  56.470 -56.604  1.00  0.00     0.325 C 
HETATM   10  N   UNL     1     -44.386  56.757 -57.391  1.00  0.00    -0.305 N 
HETATM   11  O   UNL     1     -42.184  56.984 -56.726  1.00  0.00    -0.247 OA
HETATM   12  H   UNL     1     -45.293  56.593 -56.987  1.00  0.00     0.171 HD
HETATM   13  H   UNL     1     -44.485  55.022 -55.817  1.00  0.00     0.170 HD
BRANCH  10  14
HETATM   14  C   UNL     1     -44.374  57.459 -58.586  1.00  0.00     0.086 A 
HETATM   15  C   UNL     1     -44.383  58.850 -58.906  1.00  0.00     0.079 A 
HETATM   16  C   UNL     1     -44.393  60.045 -58.025  1.00  0.00     0.075 C 
HETATM   17  N   UNL     1     -44.331  59.047 -60.233  1.00  0.00    -0.177 NA
HETATM   18  N   UNL     1     -44.277  57.817 -60.748  1.00  0.00    -0.280 N 
HETATM   19  H   UNL     1     -44.226  57.728 -61.758  1.00  0.00     0.189 HD
HETATM   20  C   UNL     1     -44.279  56.822 -59.811  1.00  0.00     0.052 A 
HETATM   21  C   UNL     1     -44.189  55.396 -60.200  1.00  0.00     0.072 C 
ENDBRANCH  10  14
ENDBRANCH   5   8
BRANCH   1  22
HETATM   22  C   UNL     1     -40.423  53.031 -51.622  1.00  0.00     0.253 C 
HETATM   23  N   UNL     1     -41.074  53.098 -50.413  1.00  0.00    -0.357 N 
HETATM   24  H   UNL     1     -42.002  53.501 -50.371  1.00  0.00     0.162 HD
HETATM   25  O   UNL     1     -39.284  52.594 -51.752  1.00  0.00    -0.268 OA
BRANCH  23  26
HETATM   26  C   UNL     1     -40.424  52.772 -49.161  1.00  0.00     0.122 C 
BRANCH  26  27
HETATM   27  C   UNL     1     -40.399  53.961 -48.201  1.00  0.00     0.015 C 
HETATM   28  C   UNL     1     -41.089  55.193 -48.770  1.00  0.00     0.006 C 
ENDBRANCH  26  27
ENDBRANCH  23  26
ENDBRANCH   1  22
TORSDOF 5
ENDMDL
MODEL 3
REMARK VINA RESULT:      -7.1      1.893      2.358
REMARK  5 active torsions:
REMARK  status: ('A' for Active; 'I' for Inactive)
REMARK    1  A    between atoms: C_2  and  C_3 
REMARK    2  A    between atoms: C_3  and  N_4 
REMARK       I    between atoms: N_4  and  C_5 
REMARK    3  A    between atoms: C_5  and  C_6 
REMARK    4  A    between atoms: C_10  and  N_11 
REMARK       I    between atoms: N_11  and  C_12 
REMARK       I    between atoms: C_12  and  N_13 
REMARK    5  A    between atoms: N_13  and  C_14 
ROOT
HETATM    1  C   UNL     1     -41.617  54.506 -52.384  1.00  0.00     0.053 A 
HETATM    2  C   UNL     1     -41.434  55.864 -52.670  1.00  0.00     0.051 A 
HETATM    3 CL   UNL     1     -41.113  57.056 -51.457  1.00  0.00    -0.083 Cl
HETATM    4  C   UNL     1     -41.521  56.322 -53.993  1.00  0.00     0.054 A 
HETATM    5  C   UNL     1     -41.790  55.439 -55.043  1.00  0.00     0.038 A 
HETATM    6  C   UNL     1     -42.054  54.100 -54.745  1.00  0.00     0.030 A 
HETATM    7  C   UNL     1     -41.966  53.636 -53.429  1.00  0.00     0.021 A 
ENDROOT
BRANCH   5   8
HETATM    8  N   UNL     1     -41.782  55.808 -56.405  1.00  0.00    -0.309 N 
HETATM    9  C   UNL     1     -42.779  56.496 -57.084  1.00  0.00     0.325 C 
HETATM   10  N   UNL     1     -42.372  56.790 -58.372  1.00  0.00    -0.305 N 
HETATM   11  O   UNL     1     -43.853  56.823 -56.597  1.00  0.00    -0.247 OA
HETATM   12  H   UNL     1     -41.690  56.176 -58.787  1.00  0.00     0.171 HD
HETATM   13  H   UNL     1     -40.885  55.778 -56.868  1.00  0.00     0.170 HD
BRANCH  10  14
HETATM   14  C   UNL     1     -42.969  57.700 -59.230  1.00  0.00     0.086 A 
HETATM   15  C   UNL     1     -42.803  59.102 -59.442  1.00  0.00     0.079 A 
HETATM   16  C   UNL     1     -41.888  60.076 -58.794  1.00  0.00     0.075 C 
HETATM   17  N   UNL     1     -43.600  59.544 -60.426  1.00  0.00    -0.177 NA
HETATM   18  N   UNL     1     -44.250  58.455 -60.842  1.00  0.00    -0.280 N 
HETATM   19  H   UNL     1     -44.915  58.561 -61.601  1.00  0.00     0.189 HD
HETATM   20  C   UNL     1     -43.900  57.314 -60.177  1.00  0.00     0.052 A 
HETATM   21  C   UNL     1     -44.494  56.004 -60.530  1.00  0.00     0.072 C 
ENDBRANCH  10  14
ENDBRANCH   5   8
BRANCH   1  22
HETATM   22  C   UNL     1     -41.416  53.874 -51.051  1.00  0.00     0.253 C 
HETATM   23  N   UNL     1     -40.514  52.838 -50.987  1.00  0.00    -0.357 N 
HETATM   24  H   UNL     1     -39.997  52.579 -51.819  1.00  0.00     0.162 HD
HETATM   25  O   UNL     1     -42.109  54.224 -50.101  1.00  0.00    -0.268 OA
BRANCH  23  26
HETATM   26  C   UNL     1     -40.389  51.986 -49.824  1.00  0.00     0.122 C 
BRANCH  26  27
HETATM   27  C   UNL     1     -40.301  50.508 -50.202  1.00  0.00     0.015 C 
HETATM   28  C   UNL     1     -39.438  50.264 -51.433  1.00  0.00     0.006 C 
ENDBRANCH  26  27
ENDBRANCH  23  26
ENDBRANCH   1  22
TORSDOF 5
ENDMDL
MODEL 4
REMARK VINA RESULT:      -7.0      2.771      9.185
REMARK  5 active torsions:
REMARK  status: ('A' for Active; 'I' for Inactive)
REMARK    1  A    between atoms: C_2  and  C_3 
REMARK    2  A    between atoms: C_3  and  N_4 
REMARK       I    between atoms: N_4  and  C_5 
REMARK    3  A    between atoms: C_5  and  C_6 
REMARK    4  A    between atoms: C_10  and  N_11 
REMARK       I    between atoms: N_11  and  C_12 
REMARK       I    between atoms: C_12  and  N_13 
REMARK    5  A    between atoms: N_13  and  C_14 
ROOT
HETATM    1  C   UNL     1     -44.210  57.035 -58.316  1.00  0.00     0.053 A 
HETATM    2  C   UNL     1     -43.703  55.730 -58.302  1.00  0.00     0.051 A 
HETATM    3 CL   UNL     1     -44.038  54.566 -59.537  1.00  0.00    -0.083 Cl
HETATM    4  C   UNL     1     -42.889  55.304 -57.241  1.00  0.00     0.054 A 
HETATM    5  C   UNL     1     -42.571  56.166 -56.188  1.00  0.00     0.038 A 
HETATM    6  C   UNL     1     -43.145  57.440 -56.163  1.00  0.00     0.030 A 
HETATM    7  C   UNL     1     -43.955  57.872 -57.218  1.00  0.00     0.021 A 
ENDROOT
BRANCH   5   8
HETATM    8  N   UNL     1     -41.672  55.845 -55.149  1.00  0.00    -0.309 N 
HETATM    9  C   UNL     1     -41.880  54.927 -54.127  1.00  0.00     0.325 C 
HETATM   10  N   UNL     1     -40.734  54.784 -53.367  1.00  0.00    -0.305 N 
HETATM   11  O   UNL     1     -42.921  54.311 -53.946  1.00  0.00    -0.247 OA
HETATM   12  H   UNL     1     -40.103  55.568 -53.338  1.00  0.00     0.171 HD
HETATM   13  H   UNL     1     -40.713  56.126 -55.289  1.00  0.00     0.170 HD
BRANCH  10  14
HETATM   14  C   UNL     1     -40.475  53.766 -52.462  1.00  0.00     0.086 A 
HETATM   15  C   UNL     1     -40.110  52.393 -52.609  1.00  0.00     0.079 A 
HETATM   16  C   UNL     1     -39.864  51.583 -53.830  1.00  0.00     0.075 C 
HETATM   17  N   UNL     1     -39.934  51.805 -51.416  1.00  0.00    -0.177 NA
HETATM   18  N   UNL     1     -40.168  52.775 -50.530  1.00  0.00    -0.280 N 
HETATM   19  H   UNL     1     -40.084  52.547 -49.545  1.00  0.00     0.189 HD
HETATM   20  C   UNL     1     -40.477  53.979 -51.096  1.00  0.00     0.052 A 
HETATM   21  C   UNL     1     -40.733  55.178 -50.265  1.00  0.00     0.072 C 
ENDBRANCH  10  14
ENDBRANCH   5   8
BRANCH   1  22
HETATM   22  C   UNL     1     -44.966  57.650 -59.442  1.00  0.00     0.253 C 
HETATM   23  N   UNL     1     -46.327  57.455 -59.453  1.00  0.00    -0.357 N 
HETATM   24  H   UNL     1     -46.762  56.951 -58.689  1.00  0.00     0.162 HD
HETATM   25  O   UNL     1     -44.358  58.214 -60.347  1.00  0.00    -0.268 OA
BRANCH  23  26
HETATM   26  C   UNL     1     -47.151  57.790 -60.595  1.00  0.00     0.122 C 
BRANCH  26  27
HETATM   27  C   UNL     1     -47.635  56.546 -61.339  1.00  0.00     0.015 C 
HETATM   28  C   UNL     1     -48.650  56.867 -62.428  1.00  0.00     0.006 C 
ENDBRANCH  26  27
ENDBRANCH  23  26
ENDBRANCH   1  22
TORSDOF 5
ENDMDL
MODEL 5
REMARK VINA RESULT:      -6.8      2.769      8.730
REMARK  5 active torsions:
REMARK  status: ('A' for Active; 'I' for Inactive)
REMARK    1  A    between atoms: C_2  and  C_3 
REMARK    2  A    between atoms: C_3  and  N_4 
REMARK       I    between atoms: N_4  and  C_5 
REMARK    3  A    between atoms: C_5  and  C_6 
REMARK    4  A    between atoms: C_10  and  N_11 
REMARK       I    between atoms: N_11  and  C_12 
REMARK       I    between atoms: C_12  and  N_13 
REMARK    5  A    between atoms: N_13  and  C_14 
ROOT
HETATM    1  C   UNL     1     -44.136  57.637 -57.265  1.00  0.00     0.053 A 
HETATM    2  C   UNL     1     -44.284  58.336 -56.061  1.00  0.00     0.051 A 
HETATM    3 CL   UNL     1     -45.408  59.634 -55.847  1.00  0.00    -0.083 Cl
HETATM    4  C   UNL     1     -43.489  58.005 -54.953  1.00  0.00     0.054 A 
HETATM    5  C   UNL     1     -42.542  56.980 -55.029  1.00  0.00     0.038 A 
HETATM    6  C   UNL     1     -42.339  56.340 -56.255  1.00  0.00     0.030 A 
HETATM    7  C   UNL     1     -43.129  56.663 -57.361  1.00  0.00     0.021 A 
ENDROOT
BRANCH   5   8
HETATM    8  N   UNL     1     -41.788  56.519 -53.929  1.00  0.00    -0.309 N 
HETATM    9  C   UNL     1     -42.001  55.350 -53.209  1.00  0.00     0.325 C 
HETATM   10  N   UNL     1     -40.992  55.163 -52.283  1.00  0.00    -0.305 N 
HETATM   11  O   UNL     1     -42.933  54.580 -53.394  1.00  0.00    -0.247 OA
HETATM   12  H   UNL     1     -40.522  55.988 -51.946  1.00  0.00     0.171 HD
HETATM   13  H   UNL     1     -40.883  56.948 -53.799  1.00  0.00     0.170 HD
BRANCH  10  14
HETATM   14  C   UNL     1     -40.715  53.988 -51.602  1.00  0.00     0.086 A 
HETATM   15  C   UNL     1     -40.298  52.688 -52.020  1.00  0.00     0.079 A 
HETATM   16  C   UNL     1     -39.998  52.158 -53.375  1.00  0.00     0.075 C 
HETATM   17  N   UNL     1     -40.124  51.870 -50.970  1.00  0.00    -0.177 NA
HETATM   18  N   UNL     1     -40.411  52.627 -49.909  1.00  0.00    -0.280 N 
HETATM   19  H   UNL     1     -40.339  52.202 -48.991  1.00  0.00     0.189 HD
HETATM   20  C   UNL     1     -40.753  53.913 -50.222  1.00  0.00     0.052 A 
HETATM   21  C   UNL     1     -41.068  54.904 -49.168  1.00  0.00     0.072 C 
ENDBRANCH  10  14
ENDBRANCH   5   8
BRANCH   1  22
HETATM   22  C   UNL     1     -45.005  57.796 -58.463  1.00  0.00     0.253 C 
HETATM   23  N   UNL     1     -45.828  56.739 -58.774  1.00  0.00    -0.357 N 
HETATM   24  H   UNL     1     -45.847  55.929 -58.166  1.00  0.00     0.162 HD
HETATM   25  O   UNL     1     -44.895  58.795 -59.167  1.00  0.00    -0.268 OA
BRANCH  23  26
HETATM   26  C   UNL     1     -46.549  56.658 -60.027  1.00  0.00     0.122 C 
BRANCH  26  27
HETATM   27  C   UNL     1     -45.875  55.706 -61.015  1.00  0.00     0.015 C 
HETATM   28  C   UNL     1     -44.921  54.731 -60.338  1.00  0.00     0.006 C 
ENDBRANCH  26  27
ENDBRANCH  23  26
ENDBRANCH   1  22
TORSDOF 5
ENDMDL
MODEL 6
REMARK VINA RESULT:      -6.8      1.658      2.300
REMARK  5 active torsions:
REMARK  status: ('A' for Active; 'I' for Inactive)
REMARK    1  A    between atoms: C_2  and  C_3 
REMARK    2  A    between atoms: C_3  and  N_4 
REMARK       I    between atoms: N_4  and  C_5 
REMARK    3  A    between atoms: C_5  and  C_6 
REMARK    4  A    between atoms: C_10  and  N_11 
REMARK       I    between atoms: N_11  and  C_12 
REMARK       I    between atoms: C_12  and  N_13 
REMARK    5  A    between atoms: N_13  and  C_14 
ROOT
HETATM    1  C   UNL     1     -41.735  53.959 -53.591  1.00  0.00     0.053 A 
HETATM    2  C   UNL     1     -42.912  54.603 -53.192  1.00  0.00     0.051 A 
HETATM    3 CL   UNL     1     -43.580  54.465 -51.602  1.00  0.00    -0.083 Cl
HETATM    4  C   UNL     1     -43.622  55.398 -54.105  1.00  0.00     0.054 A 
HETATM    5  C   UNL     1     -43.172  55.561 -55.418  1.00  0.00     0.038 A 
HETATM    6  C   UNL     1     -42.043  54.851 -55.836  1.00  0.00     0.030 A 
HETATM    7  C   UNL     1     -41.330  54.060 -54.932  1.00  0.00     0.021 A 
ENDROOT
BRANCH   5   8
HETATM    8  N   UNL     1     -43.770  56.431 -56.355  1.00  0.00    -0.309 N 
HETATM    9  C   UNL     1     -43.337  57.706 -56.697  1.00  0.00     0.325 C 
HETATM   10  N   UNL     1     -44.094  58.208 -57.738  1.00  0.00    -0.305 N 
HETATM   11  O   UNL     1     -42.398  58.285 -56.170  1.00  0.00    -0.247 OA
HETATM   12  H   UNL     1     -45.034  57.858 -57.832  1.00  0.00     0.171 HD
HETATM   13  H   UNL     1     -44.424  56.008 -56.998  1.00  0.00     0.170 HD
BRANCH  10  14
HETATM   14  C   UNL     1     -43.776  59.305 -58.524  1.00  0.00     0.086 A 
HETATM   15  C   UNL     1     -42.916  59.489 -59.649  1.00  0.00     0.079 A 
HETATM   16  C   UNL     1     -42.060  58.521 -60.380  1.00  0.00     0.075 C 
HETATM   17  N   UNL     1     -42.964  60.753 -60.099  1.00  0.00    -0.177 NA
HETATM   18  N   UNL     1     -43.838  61.359 -59.293  1.00  0.00    -0.280 N 
HETATM   19  H   UNL     1     -44.035  62.340 -59.459  1.00  0.00     0.189 HD
HETATM   20  C   UNL     1     -44.375  60.538 -58.341  1.00  0.00     0.052 A 
HETATM   21  C   UNL     1     -45.390  61.032 -57.382  1.00  0.00     0.072 C 
ENDBRANCH  10  14
ENDBRANCH   5   8
BRANCH   1  22
HETATM   22  C   UNL     1     -40.822  53.204 -52.689  1.00  0.00     0.253 C 
HETATM   23  N   UNL     1     -40.214  52.089 -53.217  1.00  0.00    -0.357 N 
HETATM   24  H   UNL     1     -40.369  51.853 -54.189  1.00  0.00     0.162 HD
HETATM   25  O   UNL     1     -40.716  53.537 -51.513  1.00  0.00    -0.268 OA
BRANCH  23  26
HETATM   26  C   UNL     1     -39.492  51.137 -52.399  1.00  0.00     0.122 C 
BRANCH  26  27
HETATM   27  C   UNL     1     -39.524  49.730 -52.995  1.00  0.00     0.015 C 
HETATM   28  C   UNL     1     -39.783  49.730 -54.495  1.00  0.00     0.006 C 
ENDBRANCH  26  27
ENDBRANCH  23  26
ENDBRANCH   1  22
TORSDOF 5
ENDMDL
MODEL 7
REMARK VINA RESULT:      -6.7     15.362     17.067
REMARK  5 active torsions:
REMARK  status: ('A' for Active; 'I' for Inactive)
REMARK    1  A    between atoms: C_2  and  C_3 
REMARK    2  A    between atoms: C_3  and  N_4 
REMARK       I    between atoms: N_4  and  C_5 
REMARK    3  A    between atoms: C_5  and  C_6 
REMARK    4  A    between atoms: C_10  and  N_11 
REMARK       I    between atoms: N_11  and  C_12 
REMARK       I    between atoms: C_12  and  N_13 
REMARK    5  A    between atoms: N_13  and  C_14 
ROOT
HETATM    1  C   UNL     1     -35.849  41.680 -55.299  1.00  0.00     0.053 A 
HETATM    2  C   UNL     1     -34.871  41.159 -56.155  1.00  0.00     0.051 A 
HETATM    3 CL   UNL     1     -33.245  40.838 -55.659  1.00  0.00    -0.083 Cl
HETATM    4  C   UNL     1     -35.185  40.883 -57.495  1.00  0.00     0.054 A 
HETATM    5  C   UNL     1     -36.467  41.120 -57.997  1.00  0.00     0.038 A 
HETATM    6  C   UNL     1     -37.417  41.717 -57.163  1.00  0.00     0.030 A 
HETATM    7  C   UNL     1     -37.112  41.992 -55.827  1.00  0.00     0.021 A 
ENDROOT
BRANCH   5   8
HETATM    8  N   UNL     1     -36.885  40.764 -59.297  1.00  0.00    -0.309 N 
HETATM    9  C   UNL     1     -37.230  39.493 -59.738  1.00  0.00     0.325 C 
HETATM   10  N   UNL     1     -37.708  39.546 -61.034  1.00  0.00    -0.305 N 
HETATM   11  O   UNL     1     -37.151  38.477 -59.062  1.00  0.00    -0.247 OA
HETATM   12  H   UNL     1     -37.382  40.304 -61.612  1.00  0.00     0.171 HD
HETATM   13  H   UNL     1     -37.182  41.525 -59.891  1.00  0.00     0.170 HD
BRANCH  10  14
HETATM   14  C   UNL     1     -38.405  38.543 -61.690  1.00  0.00     0.086 A 
HETATM   15  C   UNL     1     -39.648  37.888 -61.437  1.00  0.00     0.079 A 
HETATM   16  C   UNL     1     -40.645  38.089 -60.355  1.00  0.00     0.075 C 
HETATM   17  N   UNL     1     -39.926  36.985 -62.390  1.00  0.00    -0.177 NA
HETATM   18  N   UNL     1     -38.897  37.067 -63.235  1.00  0.00    -0.280 N 
HETATM   19  H   UNL     1     -38.903  36.462 -64.050  1.00  0.00     0.189 HD
HETATM   20  C   UNL     1     -37.961  37.998 -62.880  1.00  0.00     0.052 A 
HETATM   21  C   UNL     1     -36.768  38.250 -63.721  1.00  0.00     0.072 C 
ENDBRANCH  10  14
ENDBRANCH   5   8
BRANCH   1  22
HETATM   22  C   UNL     1     -35.685  41.885 -53.834  1.00  0.00     0.253 C 
HETATM   23  N   UNL     1     -35.564  40.755 -53.060  1.00  0.00    -0.357 N 
HETATM   24  H   UNL     1     -35.544  39.847 -53.509  1.00  0.00     0.162 HD
HETATM   25  O   UNL     1     -35.757  43.018 -53.367  1.00  0.00    -0.268 OA
BRANCH  23  26
HETATM   26  C   UNL     1     -35.633  40.791 -51.615  1.00  0.00     0.122 C 
BRANCH  26  27
HETATM   27  C   UNL     1     -34.292  41.171 -50.986  1.00  0.00     0.015 C 
HETATM   28  C   UNL     1     -33.632  40.008 -50.258  1.00  0.00     0.006 C 
ENDBRANCH  26  27
ENDBRANCH  23  26
ENDBRANCH   1  22
TORSDOF 5
ENDMDL
MODEL 8
REMARK VINA RESULT:      -6.7      5.910      7.423
REMARK  5 active torsions:
REMARK  status: ('A' for Active; 'I' for Inactive)
REMARK    1  A    between atoms: C_2  and  C_3 
REMARK    2  A    between atoms: C_3  and  N_4 
REMARK       I    between atoms: N_4  and  C_5 
REMARK    3  A    between atoms: C_5  and  C_6 
REMARK    4  A    between atoms: C_10  and  N_11 
REMARK       I    between atoms: N_11  and  C_12 
REMARK       I    between atoms: C_12  and  N_13 
REMARK    5  A    between atoms: N_13  and  C_14 
ROOT
HETATM    1  C   UNL     1     -42.715  55.584 -53.067  1.00  0.00     0.053 A 
HETATM    2  C   UNL     1     -43.314  55.421 -51.813  1.00  0.00     0.051 A 
HETATM    3 CL   UNL     1     -43.717  53.877 -51.144  1.00  0.00    -0.083 Cl
HETATM    4  C   UNL     1     -43.631  56.545 -51.034  1.00  0.00     0.054 A 
HETATM    5  C   UNL     1     -43.358  57.837 -51.492  1.00  0.00     0.038 A 
HETATM    6  C   UNL     1     -42.836  57.999 -52.778  1.00  0.00     0.030 A 
HETATM    7  C   UNL     1     -42.515  56.884 -53.557  1.00  0.00     0.021 A 
ENDROOT
BRANCH   5   8
HETATM    8  N   UNL     1     -43.546  59.003 -50.720  1.00  0.00    -0.309 N 
HETATM    9  C   UNL     1     -44.722  59.732 -50.591  1.00  0.00     0.325 C 
HETATM   10  N   UNL     1     -44.566  60.738 -49.657  1.00  0.00    -0.305 N 
HETATM   11  O   UNL     1     -45.757  59.493 -51.197  1.00  0.00    -0.247 OA
HETATM   12  H   UNL     1     -43.633  61.091 -49.517  1.00  0.00     0.171 HD
HETATM   13  H   UNL     1     -42.841  59.193 -50.023  1.00  0.00     0.170 HD
BRANCH  10  14
HETATM   14  C   UNL     1     -45.585  61.466 -49.063  1.00  0.00     0.086 A 
HETATM   15  C   UNL     1     -46.605  62.323 -49.575  1.00  0.00     0.079 A 
HETATM   16  C   UNL     1     -46.929  62.714 -50.971  1.00  0.00     0.075 C 
HETATM   17  N   UNL     1     -47.394  62.785 -48.593  1.00  0.00    -0.177 NA
HETATM   18  N   UNL     1     -46.900  62.231 -47.483  1.00  0.00    -0.280 N 
HETATM   19  H   UNL     1     -47.357  62.445 -46.603  1.00  0.00     0.189 HD
HETATM   20  C   UNL     1     -45.827  61.414 -47.702  1.00  0.00     0.052 A 
HETATM   21  C   UNL     1     -45.173  60.688 -46.590  1.00  0.00     0.072 C 
ENDBRANCH  10  14
ENDBRANCH   5   8
BRANCH   1  22
HETATM   22  C   UNL     1     -42.206  54.479 -53.925  1.00  0.00     0.253 C 
HETATM   23  N   UNL     1     -41.093  53.808 -53.475  1.00  0.00    -0.357 N 
HETATM   24  H   UNL     1     -40.697  54.053 -52.576  1.00  0.00     0.162 HD
HETATM   25  O   UNL     1     -42.722  54.271 -55.019  1.00  0.00    -0.268 OA
BRANCH  23  26
HETATM   26  C   UNL     1     -40.357  52.878 -54.305  1.00  0.00     0.122 C 
BRANCH  26  27
HETATM   27  C   UNL     1     -39.918  51.638 -53.526  1.00  0.00     0.015 C 
HETATM   28  C   UNL     1     -39.966  50.368 -54.364  1.00  0.00     0.006 C 
ENDBRANCH  26  27
ENDBRANCH  23  26
ENDBRANCH   1  22
TORSDOF 5
ENDMDL
MODEL 9
REMARK VINA RESULT:      -6.7     15.337     17.200
REMARK  5 active torsions:
REMARK  status: ('A' for Active; 'I' for Inactive)
REMARK    1  A    between atoms: C_2  and  C_3 
REMARK    2  A    between atoms: C_3  and  N_4 
REMARK       I    between atoms: N_4  and  C_5 
REMARK    3  A    between atoms: C_5  and  C_6 
REMARK    4  A    between atoms: C_10  and  N_11 
REMARK       I    between atoms: N_11  and  C_12 
REMARK       I    between atoms: C_12  and  N_13 
REMARK    5  A    between atoms: N_13  and  C_14 
ROOT
HETATM    1  C   UNL     1     -35.661  41.719 -55.252  1.00  0.00     0.053 A 
HETATM    2  C   UNL     1     -34.702  41.203 -56.132  1.00  0.00     0.051 A 
HETATM    3 CL   UNL     1     -33.080  40.832 -55.660  1.00  0.00    -0.083 Cl
HETATM    4  C   UNL     1     -35.033  40.975 -57.477  1.00  0.00     0.054 A 
HETATM    5  C   UNL     1     -36.314  41.256 -57.960  1.00  0.00     0.038 A 
HETATM    6  C   UNL     1     -37.243  41.848 -57.099  1.00  0.00     0.030 A 
HETATM    7  C   UNL     1     -36.921  42.075 -55.758  1.00  0.00     0.021 A 
ENDROOT
BRANCH   5   8
HETATM    8  N   UNL     1     -36.750  40.950 -59.266  1.00  0.00    -0.309 N 
HETATM    9  C   UNL     1     -36.842  39.685 -59.835  1.00  0.00     0.325 C 
HETATM   10  N   UNL     1     -37.426  39.760 -61.085  1.00  0.00    -0.305 N 
HETATM   11  O   UNL     1     -36.484  38.651 -59.290  1.00  0.00    -0.247 OA
HETATM   12  H   UNL     1     -37.325  40.628 -61.586  1.00  0.00     0.171 HD
HETATM   13  H   UNL     1     -37.256  41.679 -59.748  1.00  0.00     0.170 HD
BRANCH  10  14
HETATM   14  C   UNL     1     -37.937  38.697 -61.813  1.00  0.00     0.086 A 
HETATM   15  C   UNL     1     -37.445  37.941 -62.920  1.00  0.00     0.079 A 
HETATM   16  C   UNL     1     -36.167  38.043 -63.670  1.00  0.00     0.075 C 
HETATM   17  N   UNL     1     -38.302  36.968 -63.266  1.00  0.00    -0.177 NA
HETATM   18  N   UNL     1     -39.309  37.089 -62.398  1.00  0.00    -0.280 N 
HETATM   19  H   UNL     1     -40.082  36.437 -62.475  1.00  0.00     0.189 HD
HETATM   20  C   UNL     1     -39.139  38.095 -61.489  1.00  0.00     0.052 A 
HETATM   21  C   UNL     1     -40.140  38.353 -60.429  1.00  0.00     0.072 C 
ENDBRANCH  10  14
ENDBRANCH   5   8
BRANCH   1  22
HETATM   22  C   UNL     1     -35.481  41.876 -53.783  1.00  0.00     0.253 C 
HETATM   23  N   UNL     1     -35.053  40.768 -53.090  1.00  0.00    -0.357 N 
HETATM   24  H   UNL     1     -34.836  39.919 -53.598  1.00  0.00     0.162 HD
HETATM   25  O   UNL     1     -35.801  42.929 -53.239  1.00  0.00    -0.268 OA
BRANCH  23  26
HETATM   26  C   UNL     1     -35.058  40.706 -51.644  1.00  0.00     0.122 C 
BRANCH  26  27
HETATM   27  C   UNL     1     -33.688  41.035 -51.051  1.00  0.00     0.015 C 
HETATM   28  C   UNL     1     -32.538  40.624 -51.960  1.00  0.00     0.006 C 
ENDBRANCH  26  27
ENDBRANCH  23  26
ENDBRANCH   1  22
TORSDOF 5
ENDMDL
MODEL 10
REMARK VINA RESULT:      -6.6      2.041      3.046
REMARK  5 active torsions:
REMARK  status: ('A' for Active; 'I' for Inactive)
REMARK    1  A    between atoms: C_2  and  C_3 
REMARK    2  A    between atoms: C_3  and  N_4 
REMARK       I    between atoms: N_4  and  C_5 
REMARK    3  A    between atoms: C_5  and  C_6 
REMARK    4  A    between atoms: C_10  and  N_11 
REMARK       I    between atoms: N_11  and  C_12 
REMARK       I    between atoms: C_12  and  N_13 
REMARK    5  A    between atoms: N_13  and  C_14 
ROOT
HETATM    1  C   UNL     1     -41.526  53.805 -53.506  1.00  0.00     0.053 A 
HETATM    2  C   UNL     1     -42.828  54.249 -53.245  1.00  0.00     0.051 A 
HETATM    3 CL   UNL     1     -43.639  53.985 -51.740  1.00  0.00    -0.083 Cl
HETATM    4  C   UNL     1     -43.548  54.934 -54.235  1.00  0.00     0.054 A 
HETATM    5  C   UNL     1     -42.986  55.184 -55.490  1.00  0.00     0.038 A 
HETATM    6  C   UNL     1     -41.719  54.668 -55.775  1.00  0.00     0.030 A 
HETATM    7  C   UNL     1     -40.994  53.987 -54.792  1.00  0.00     0.021 A 
ENDROOT
BRANCH   5   8
HETATM    8  N   UNL     1     -43.606  55.961 -56.492  1.00  0.00    -0.309 N 
HETATM    9  C   UNL     1     -43.406  57.314 -56.734  1.00  0.00     0.325 C 
HETATM   10  N   UNL     1     -44.086  57.706 -57.872  1.00  0.00    -0.305 N 
HETATM   11  O   UNL     1     -42.703  58.046 -56.052  1.00  0.00    -0.247 OA
HETATM   12  H   UNL     1     -44.904  57.175 -58.122  1.00  0.00     0.171 HD
HETATM   13  H   UNL     1     -44.049  55.448 -57.240  1.00  0.00     0.170 HD
BRANCH  10  14
HETATM   14  C   UNL     1     -43.893  58.885 -58.574  1.00  0.00     0.086 A 
HETATM   15  C   UNL     1     -43.032  59.255 -59.652  1.00  0.00     0.079 A 
HETATM   16  C   UNL     1     -42.035  58.457 -60.411  1.00  0.00     0.075 C 
HETATM   17  N   UNL     1     -43.233  60.529 -60.022  1.00  0.00    -0.177 NA
HETATM   18  N   UNL     1     -44.202  60.961 -59.213  1.00  0.00    -0.280 N 
HETATM   19  H   UNL     1     -44.522  61.917 -59.324  1.00  0.00     0.189 HD
HETATM   20  C   UNL     1     -44.654  60.015 -58.336  1.00  0.00     0.052 A 
HETATM   21  C   UNL     1     -45.752  60.307 -57.386  1.00  0.00     0.072 C 
ENDBRANCH  10  14
ENDBRANCH   5   8
BRANCH   1  22
HETATM   22  C   UNL     1     -40.611  53.193 -52.503  1.00  0.00     0.253 C 
HETATM   23  N   UNL     1     -40.535  53.810 -51.277  1.00  0.00    -0.357 N 
HETATM   24  H   UNL     1     -41.124  54.612 -51.088  1.00  0.00     0.162 HD
HETATM   25  O   UNL     1     -39.905  52.242 -52.825  1.00  0.00    -0.268 OA
BRANCH  23  26
HETATM   26  C   UNL     1     -39.526  53.469 -50.297  1.00  0.00     0.122 C 
BRANCH  26  27
HETATM   27  C   UNL     1     -39.762  54.176 -48.962  1.00  0.00     0.015 C 
HETATM   28  C   UNL     1     -41.125  54.851 -48.885  1.00  0.00     0.006 C 
ENDBRANCH  26  27
ENDBRANCH  23  26
ENDBRANCH   1  22
TORSDOF 5
ENDMDL
