MODEL 1
REMARK VINA RESULT:      -8.1      0.000      0.000
REMARK  6 active torsions:
REMARK  status: ('A' for Active; 'I' for Inactive)
REMARK    1  A    between atoms: N_2  and  C_4 
REMARK    2  A    between atoms: C_4  and  C_5 
REMARK       I    between atoms: C_5  and  N_7 
REMARK    3  A    between atoms: N_7  and  C_8 
REMARK    4  A    between atoms: C_8  and  C_9 
REMARK    5  A    between atoms: C_8  and  C_26 
REMARK    6  A    between atoms: C_14  and  C_20 
ROOT
HETATM    1  C   UNL     1     -42.593  57.077 -54.066  1.00  0.00     0.135 A 
HETATM    2  N   UNL     1     -41.695  56.461 -54.771  1.00  0.00    -0.232 NA
HETATM    3  C   UNL     1     -41.352  55.153 -54.392  1.00  0.00     0.074 A 
HETATM    4  C   UNL     1     -40.364  54.483 -55.112  1.00  0.00     0.033 A 
HETATM    5  C   UNL     1     -39.953  53.199 -54.733  1.00  0.00     0.014 A 
HETATM    6  C   UNL     1     -40.525  52.562 -53.623  1.00  0.00    -0.022 A 
HETATM    7  C   UNL     1     -41.536  53.221 -52.913  1.00  0.00     0.031 A 
HETATM    8  C   UNL     1     -41.936  54.505 -53.302  1.00  0.00     0.061 A 
HETATM    9  C   UNL     1     -42.984  55.229 -52.564  1.00  0.00     0.259 A 
HETATM   10  O   UNL     1     -43.603  54.718 -51.640  1.00  0.00    -0.267 OA
HETATM   11  N   UNL     1     -43.212  56.513 -52.979  1.00  0.00    -0.309 N 
HETATM   12  H   UNL     1     -43.985  56.996 -52.544  1.00  0.00     0.170 HD
ENDROOT
BRANCH   1  13
HETATM   13  C   UNL     1     -42.938  58.549 -54.363  1.00  0.00     0.187 C 
BRANCH  13  14
HETATM   14  N   UNL     1     -44.067  58.711 -55.275  1.00  0.00    -0.344 N 
HETATM   15  C   UNL     1     -43.994  59.012 -56.609  1.00  0.00     0.247 C 
HETATM   16  O   UNL     1     -44.996  59.481 -57.154  1.00  0.00    -0.272 OA
HETATM   17  H   UNL     1     -44.928  59.075 -54.883  1.00  0.00     0.163 HD
BRANCH  15  18
HETATM   18  C   UNL     1     -42.711  58.725 -57.394  1.00  0.00     0.373 C 
BRANCH  18  19
HETATM   19  N   UNL     1     -42.987  57.848 -58.551  1.00  0.00     0.088 N 
HETATM   20  C   UNL     1     -41.953  57.987 -59.582  1.00  0.00     0.310 C 
HETATM   21  C   UNL     1     -43.057  56.453 -58.109  1.00  0.00     0.310 C 
ENDBRANCH  18  19
ENDBRANCH  15  18
ENDBRANCH  13  14
BRANCH  13  22
HETATM   22  C   UNL     1     -43.180  59.277 -53.043  1.00  0.00    -0.028 A 
HETATM   23  C   UNL     1     -44.489  59.651 -52.693  1.00  0.00     0.011 A 
HETATM   24  C   UNL     1     -44.739  60.372 -51.522  1.00  0.00     0.024 A 
HETATM   25  C   UNL     1     -43.681  60.729 -50.690  1.00  0.00     0.034 A 
HETATM   26 CL   UNL     1     -43.986  61.622 -49.252  1.00  0.00    -0.084 Cl
HETATM   27  C   UNL     1     -42.375  60.376 -51.022  1.00  0.00     0.024 A 
HETATM   28  C   UNL     1     -42.124  59.659 -52.195  1.00  0.00     0.011 A 
ENDBRANCH  13  22
ENDBRANCH   1  13
BRANCH   6  29
HETATM   29  C   UNL     1     -40.055  51.250 -53.215  1.00  0.00     0.010 A 
HETATM   30  C   UNL     1     -39.879  50.056 -53.952  1.00  0.00     0.152 A 
HETATM   31  N   UNL     1     -39.381  49.060 -53.214  1.00  0.00    -0.187 NA
HETATM   32  N   UNL     1     -39.232  49.614 -52.000  1.00  0.00    -0.289 N 
HETATM   33  H   UNL     1     -38.852  49.042 -51.253  1.00  0.00     0.188 HD
HETATM   34  C   UNL     1     -39.619  50.922 -51.948  1.00  0.00     0.123 A 
ENDBRANCH   6  29
TORSDOF 6
ENDMDL
MODEL 2
REMARK VINA RESULT:      -7.9      2.619      4.698
REMARK  6 active torsions:
REMARK  status: ('A' for Active; 'I' for Inactive)
REMARK    1  A    between atoms: N_2  and  C_4 
REMARK    2  A    between atoms: C_4  and  C_5 
REMARK       I    between atoms: C_5  and  N_7 
REMARK    3  A    between atoms: N_7  and  C_8 
REMARK    4  A    between atoms: C_8  and  C_9 
REMARK    5  A    between atoms: C_8  and  C_26 
REMARK    6  A    between atoms: C_14  and  C_20 
ROOT
HETATM    1  C   UNL     1     -42.619  56.880 -54.388  1.00  0.00     0.135 A 
HETATM    2  N   UNL     1     -41.709  56.225 -55.041  1.00  0.00    -0.232 NA
HETATM    3  C   UNL     1     -41.349  54.954 -54.564  1.00  0.00     0.074 A 
HETATM    4  C   UNL     1     -40.348  54.247 -55.228  1.00  0.00     0.033 A 
HETATM    5  C   UNL     1     -39.921  53.001 -54.753  1.00  0.00     0.014 A 
HETATM    6  C   UNL     1     -40.489  52.440 -53.600  1.00  0.00    -0.022 A 
HETATM    7  C   UNL     1     -41.513  53.135 -52.946  1.00  0.00     0.031 A 
HETATM    8  C   UNL     1     -41.929  54.381 -53.431  1.00  0.00     0.061 A 
HETATM    9  C   UNL     1     -42.991  55.143 -52.754  1.00  0.00     0.259 A 
HETATM   10  O   UNL     1     -43.608  54.693 -51.796  1.00  0.00    -0.267 OA
HETATM   11  N   UNL     1     -43.235  56.389 -53.264  1.00  0.00    -0.309 N 
HETATM   12  H   UNL     1     -44.018  56.892 -52.870  1.00  0.00     0.170 HD
ENDROOT
BRANCH   1  13
HETATM   13  C   UNL     1     -42.984  58.320 -54.794  1.00  0.00     0.187 C 
BRANCH  13  14
HETATM   14  N   UNL     1     -42.276  59.340 -54.026  1.00  0.00    -0.344 N 
HETATM   15  C   UNL     1     -42.846  60.296 -53.229  1.00  0.00     0.247 C 
HETATM   16  O   UNL     1     -42.179  61.296 -52.953  1.00  0.00    -0.272 OA
HETATM   17  H   UNL     1     -41.403  59.684 -54.411  1.00  0.00     0.163 HD
BRANCH  15  18
HETATM   18  C   UNL     1     -44.256  60.090 -52.667  1.00  0.00     0.373 C 
BRANCH  18  19
HETATM   19  N   UNL     1     -44.203  59.677 -51.250  1.00  0.00     0.088 N 
HETATM   20  C   UNL     1     -44.708  60.735 -50.369  1.00  0.00     0.310 C 
HETATM   21  C   UNL     1     -44.994  58.458 -51.060  1.00  0.00     0.310 C 
ENDBRANCH  18  19
ENDBRANCH  15  18
ENDBRANCH  13  14
BRANCH  13  22
HETATM   22  C   UNL     1     -42.747  58.487 -56.293  1.00  0.00    -0.028 A 
HETATM   23  C   UNL     1     -43.195  57.489 -57.176  1.00  0.00     0.011 A 
HETATM   24  C   UNL     1     -42.941  57.580 -58.547  1.00  0.00     0.024 A 
HETATM   25  C   UNL     1     -42.234  58.669 -59.050  1.00  0.00     0.034 A 
HETATM   26 CL   UNL     1     -41.915  58.778 -60.736  1.00  0.00    -0.084 Cl
HETATM   27  C   UNL     1     -41.773  59.664 -58.192  1.00  0.00     0.024 A 
HETATM   28  C   UNL     1     -42.021  59.572 -56.820  1.00  0.00     0.011 A 
ENDBRANCH  13  22
ENDBRANCH   1  13
BRANCH   6  29
HETATM   29  C   UNL     1     -40.003  51.170 -53.094  1.00  0.00     0.010 A 
HETATM   30  C   UNL     1     -39.801  49.928 -53.740  1.00  0.00     0.152 A 
HETATM   31  N   UNL     1     -39.295  48.997 -52.927  1.00  0.00    -0.187 NA
HETATM   32  N   UNL     1     -39.167  49.639 -51.755  1.00  0.00    -0.289 N 
HETATM   33  H   UNL     1     -38.785  49.130 -50.966  1.00  0.00     0.188 HD
HETATM   34  C   UNL     1     -39.575  50.942 -51.803  1.00  0.00     0.123 A 
ENDBRANCH   6  29
TORSDOF 6
ENDMDL
MODEL 3
REMARK VINA RESULT:      -7.8      1.655      1.943
REMARK  6 active torsions:
REMARK  status: ('A' for Active; 'I' for Inactive)
REMARK    1  A    between atoms: N_2  and  C_4 
REMARK    2  A    between atoms: C_4  and  C_5 
REMARK       I    between atoms: C_5  and  N_7 
REMARK    3  A    between atoms: N_7  and  C_8 
REMARK    4  A    between atoms: C_8  and  C_9 
REMARK    5  A    between atoms: C_8  and  C_26 
REMARK    6  A    between atoms: C_14  and  C_20 
ROOT
HETATM    1  C   UNL     1     -43.268  56.547 -54.888  1.00  0.00     0.135 A 
HETATM    2  N   UNL     1     -42.315  56.436 -54.015  1.00  0.00    -0.232 NA
HETATM    3  C   UNL     1     -41.757  55.162 -53.817  1.00  0.00     0.074 A 
HETATM    4  C   UNL     1     -40.756  55.010 -52.858  1.00  0.00     0.033 A 
HETATM    5  C   UNL     1     -40.212  53.748 -52.591  1.00  0.00     0.014 A 
HETATM    6  C   UNL     1     -40.663  52.613 -53.278  1.00  0.00    -0.022 A 
HETATM    7  C   UNL     1     -41.649  52.765 -54.260  1.00  0.00     0.031 A 
HETATM    8  C   UNL     1     -42.185  54.033 -54.517  1.00  0.00     0.061 A 
HETATM    9  C   UNL     1     -43.236  54.221 -55.530  1.00  0.00     0.259 A 
HETATM   10  O   UNL     1     -43.626  53.306 -56.244  1.00  0.00    -0.267 OA
HETATM   11  N   UNL     1     -43.749  55.487 -55.615  1.00  0.00    -0.309 N 
HETATM   12  H   UNL     1     -44.407  55.657 -56.362  1.00  0.00     0.170 HD
ENDROOT
BRANCH   1  13
HETATM   13  C   UNL     1     -43.995  57.892 -55.078  1.00  0.00     0.187 C 
BRANCH  13  14
HETATM   14  N   UNL     1     -45.326  57.759 -55.665  1.00  0.00    -0.344 N 
HETATM   15  C   UNL     1     -45.692  58.119 -56.934  1.00  0.00     0.247 C 
HETATM   16  O   UNL     1     -46.889  58.302 -57.163  1.00  0.00    -0.272 OA
HETATM   17  H   UNL     1     -46.117  57.845 -55.037  1.00  0.00     0.163 HD
BRANCH  15  18
HETATM   18  C   UNL     1     -44.634  58.243 -58.035  1.00  0.00     0.373 C 
BRANCH  18  19
HETATM   19  N   UNL     1     -44.457  56.958 -58.741  1.00  0.00     0.088 N 
HETATM   20  C   UNL     1     -45.059  56.999 -60.078  1.00  0.00     0.310 C 
HETATM   21  C   UNL     1     -43.029  56.648 -58.854  1.00  0.00     0.310 C 
ENDBRANCH  18  19
ENDBRANCH  15  18
ENDBRANCH  13  14
BRANCH  13  22
HETATM   22  C   UNL     1     -44.048  58.620 -53.737  1.00  0.00    -0.028 A 
HETATM   23  C   UNL     1     -43.357  59.836 -53.587  1.00  0.00     0.011 A 
HETATM   24  C   UNL     1     -43.334  60.497 -52.356  1.00  0.00     0.024 A 
HETATM   25  C   UNL     1     -43.999  59.949 -51.262  1.00  0.00     0.034 A 
HETATM   26 CL   UNL     1     -43.965  60.759 -49.746  1.00  0.00    -0.084 Cl
HETATM   27  C   UNL     1     -44.681  58.742 -51.387  1.00  0.00     0.024 A 
HETATM   28  C   UNL     1     -44.701  58.076 -52.616  1.00  0.00     0.011 A 
ENDBRANCH  13  22
ENDBRANCH   1  13
BRANCH   6  29
HETATM   29  C   UNL     1     -40.121  51.305 -52.956  1.00  0.00     0.010 A 
HETATM   30  C   UNL     1     -39.927  50.156 -53.758  1.00  0.00     0.152 A 
HETATM   31  N   UNL     1     -39.357  49.149 -53.090  1.00  0.00    -0.187 NA
HETATM   32  N   UNL     1     -39.179  49.650 -51.858  1.00  0.00    -0.289 N 
HETATM   33  H   UNL     1     -38.743  49.060 -51.156  1.00  0.00     0.188 HD
HETATM   34  C   UNL     1     -39.618  50.936 -51.726  1.00  0.00     0.123 A 
ENDBRANCH   6  29
TORSDOF 6
ENDMDL
MODEL 4
REMARK VINA RESULT:      -7.6      3.356      4.821
REMARK  6 active torsions:
REMARK  status: ('A' for Active; 'I' for Inactive)
REMARK    1  A    between atoms: N_2  and  C_4 
REMARK    2  A    between atoms: C_4  and  C_5 
REMARK       I    between atoms: C_5  and  N_7 
REMARK    3  A    between atoms: N_7  and  C_8 
REMARK    4  A    between atoms: C_8  and  C_9 
REMARK    5  A    between atoms: C_8  and  C_26 
REMARK    6  A    between atoms: C_14  and  C_20 
ROOT
HETATM    1  C   UNL     1     -42.894  57.041 -55.545  1.00  0.00     0.135 A 
HETATM    2  N   UNL     1     -42.013  56.169 -55.929  1.00  0.00    -0.232 NA
HETATM    3  C   UNL     1     -41.642  55.169 -55.015  1.00  0.00     0.074 A 
HETATM    4  C   UNL     1     -40.671  54.242 -55.391  1.00  0.00     0.033 A 
HETATM    5  C   UNL     1     -40.235  53.263 -54.491  1.00  0.00     0.014 A 
HETATM    6  C   UNL     1     -40.762  53.196 -53.193  1.00  0.00    -0.022 A 
HETATM    7  C   UNL     1     -41.756  54.108 -52.820  1.00  0.00     0.031 A 
HETATM    8  C   UNL     1     -42.183  55.082 -53.731  1.00  0.00     0.061 A 
HETATM    9  C   UNL     1     -43.214  56.066 -53.361  1.00  0.00     0.259 A 
HETATM   10  O   UNL     1     -43.797  56.028 -52.285  1.00  0.00    -0.267 OA
HETATM   11  N   UNL     1     -43.470  57.028 -54.300  1.00  0.00    -0.309 N 
HETATM   12  H   UNL     1     -44.234  57.659 -54.102  1.00  0.00     0.170 HD
ENDROOT
BRANCH   1  13
HETATM   13  C   UNL     1     -43.265  58.225 -56.459  1.00  0.00     0.187 C 
BRANCH  13  14
HETATM   14  N   UNL     1     -42.109  58.880 -57.063  1.00  0.00    -0.344 N 
HETATM   15  C   UNL     1     -41.933  60.228 -57.222  1.00  0.00     0.247 C 
HETATM   16  O   UNL     1     -41.116  60.613 -58.063  1.00  0.00    -0.272 OA
HETATM   17  H   UNL     1     -41.626  58.378 -57.800  1.00  0.00     0.163 HD
BRANCH  15  18
HETATM   18  C   UNL     1     -42.704  61.215 -56.341  1.00  0.00     0.373 C 
BRANCH  18  19
HETATM   19  N   UNL     1     -43.870  61.764 -57.062  1.00  0.00     0.088 N 
HETATM   20  C   UNL     1     -45.106  61.579 -56.293  1.00  0.00     0.310 C 
HETATM   21  C   UNL     1     -43.664  63.191 -57.325  1.00  0.00     0.310 C 
ENDBRANCH  18  19
ENDBRANCH  15  18
ENDBRANCH  13  14
BRANCH  13  22
HETATM   22  C   UNL     1     -44.249  57.741 -57.521  1.00  0.00    -0.028 A 
HETATM   23  C   UNL     1     -43.769  57.013 -58.623  1.00  0.00     0.011 A 
HETATM   24  C   UNL     1     -44.634  56.608 -59.644  1.00  0.00     0.024 A 
HETATM   25  C   UNL     1     -45.987  56.929 -59.575  1.00  0.00     0.034 A 
HETATM   26 CL   UNL     1     -47.050  56.438 -60.834  1.00  0.00    -0.084 Cl
HETATM   27  C   UNL     1     -46.481  57.658 -58.496  1.00  0.00     0.024 A 
HETATM   28  C   UNL     1     -45.617  58.068 -57.476  1.00  0.00     0.011 A 
ENDBRANCH  13  22
ENDBRANCH   1  13
BRANCH   6  29
HETATM   29  C   UNL     1     -40.265  52.205 -52.257  1.00  0.00     0.010 A 
HETATM   30  C   UNL     1     -40.465  52.058 -50.864  1.00  0.00     0.152 A 
HETATM   31  N   UNL     1     -39.860  50.977 -50.364  1.00  0.00    -0.187 NA
HETATM   32  N   UNL     1     -39.272  50.423 -51.436  1.00  0.00    -0.289 N 
HETATM   33  H   UNL     1     -38.746  49.565 -51.307  1.00  0.00     0.188 HD
HETATM   34  C   UNL     1     -39.485  51.117 -52.592  1.00  0.00     0.123 A 
ENDBRANCH   6  29
TORSDOF 6
ENDMDL
MODEL 5
REMARK VINA RESULT:      -7.6      3.548      7.773
REMARK  6 active torsions:
REMARK  status: ('A' for Active; 'I' for Inactive)
REMARK    1  A    between atoms: N_2  and  C_4 
REMARK    2  A    between atoms: C_4  and  C_5 
REMARK       I    between atoms: C_5  and  N_7 
REMARK    3  A    between atoms: N_7  and  C_8 
REMARK    4  A    between atoms: C_8  and  C_9 
REMARK    5  A    between atoms: C_8  and  C_26 
REMARK    6  A    between atoms: C_14  and  C_20 
ROOT
HETATM    1  C   UNL     1     -42.784  57.328 -54.717  1.00  0.00     0.135 A 
HETATM    2  N   UNL     1     -43.893  57.839 -54.280  1.00  0.00    -0.232 NA
HETATM    3  C   UNL     1     -43.808  58.935 -53.405  1.00  0.00     0.074 A 
HETATM    4  C   UNL     1     -44.985  59.478 -52.893  1.00  0.00     0.033 A 
HETATM    5  C   UNL     1     -44.942  60.535 -51.976  1.00  0.00     0.014 A 
HETATM    6  C   UNL     1     -43.716  61.066 -51.551  1.00  0.00    -0.022 A 
HETATM    7  C   UNL     1     -42.532  60.541 -52.082  1.00  0.00     0.031 A 
HETATM    8  C   UNL     1     -42.590  59.483 -52.999  1.00  0.00     0.061 A 
HETATM    9  C   UNL     1     -41.362  58.898 -53.561  1.00  0.00     0.259 A 
HETATM   10  O   UNL     1     -40.252  59.356 -53.320  1.00  0.00    -0.267 OA
HETATM   11  N   UNL     1     -41.547  57.806 -54.364  1.00  0.00    -0.309 N 
HETATM   12  H   UNL     1     -40.726  57.444 -54.828  1.00  0.00     0.170 HD
ENDROOT
BRANCH   1  13
HETATM   13  C   UNL     1     -42.804  56.062 -55.594  1.00  0.00     0.187 C 
BRANCH  13  14
HETATM   14  N   UNL     1     -42.281  56.276 -56.940  1.00  0.00    -0.344 N 
HETATM   15  C   UNL     1     -43.009  56.621 -58.047  1.00  0.00     0.247 C 
HETATM   16  O   UNL     1     -42.519  56.401 -59.157  1.00  0.00    -0.272 OA
HETATM   17  H   UNL     1     -41.472  55.730 -57.213  1.00  0.00     0.163 HD
BRANCH  15  18
HETATM   18  C   UNL     1     -44.373  57.300 -57.891  1.00  0.00     0.373 C 
BRANCH  18  19
HETATM   19  N   UNL     1     -44.968  57.594 -59.211  1.00  0.00     0.088 N 
HETATM   20  C   UNL     1     -46.389  57.229 -59.247  1.00  0.00     0.310 C 
HETATM   21  C   UNL     1     -44.819  59.021 -59.514  1.00  0.00     0.310 C 
ENDBRANCH  18  19
ENDBRANCH  15  18
ENDBRANCH  13  14
BRANCH  13  22
HETATM   22  C   UNL     1     -42.047  54.949 -54.873  1.00  0.00    -0.028 A 
HETATM   23  C   UNL     1     -42.490  54.523 -53.609  1.00  0.00     0.011 A 
HETATM   24  C   UNL     1     -41.786  53.549 -52.895  1.00  0.00     0.024 A 
HETATM   25  C   UNL     1     -40.631  52.993 -53.437  1.00  0.00     0.034 A 
HETATM   26 CL   UNL     1     -39.760  51.800 -52.556  1.00  0.00    -0.084 Cl
HETATM   27  C   UNL     1     -40.169  53.407 -54.684  1.00  0.00     0.024 A 
HETATM   28  C   UNL     1     -40.869  54.384 -55.397  1.00  0.00     0.011 A 
ENDBRANCH  13  22
ENDBRANCH   1  13
BRANCH   6  29
HETATM   29  C   UNL     1     -43.687  62.130 -50.564  1.00  0.00     0.010 A 
HETATM   30  C   UNL     1     -42.968  63.347 -50.529  1.00  0.00     0.152 A 
HETATM   31  N   UNL     1     -43.248  64.085 -49.452  1.00  0.00    -0.187 NA
HETATM   32  N   UNL     1     -44.154  63.345 -48.792  1.00  0.00    -0.289 N 
HETATM   33  H   UNL     1     -44.533  63.709 -47.925  1.00  0.00     0.188 HD
HETATM   34  C   UNL     1     -44.452  62.168 -49.416  1.00  0.00     0.123 A 
ENDBRANCH   6  29
TORSDOF 6
ENDMDL
MODEL 6
REMARK VINA RESULT:      -7.5      2.682      4.659
REMARK  6 active torsions:
REMARK  status: ('A' for Active; 'I' for Inactive)
REMARK    1  A    between atoms: N_2  and  C_4 
REMARK    2  A    between atoms: C_4  and  C_5 
REMARK       I    between atoms: C_5  and  N_7 
REMARK    3  A    between atoms: N_7  and  C_8 
REMARK    4  A    between atoms: C_8  and  C_9 
REMARK    5  A    between atoms: C_8  and  C_26 
REMARK    6  A    between atoms: C_14  and  C_20 
ROOT
HETATM    1  C   UNL     1     -42.615  56.951 -52.964  1.00  0.00     0.135 A 
HETATM    2  N   UNL     1     -41.919  56.398 -52.018  1.00  0.00    -0.232 NA
HETATM    3  C   UNL     1     -41.398  55.116 -52.255  1.00  0.00     0.074 A 
HETATM    4  C   UNL     1     -40.678  54.487 -51.241  1.00  0.00     0.033 A 
HETATM    5  C   UNL     1     -40.188  53.187 -51.416  1.00  0.00     0.014 A 
HETATM    6  C   UNL     1     -40.412  52.491 -52.612  1.00  0.00    -0.022 A 
HETATM    7  C   UNL     1     -41.112  53.130 -53.643  1.00  0.00     0.031 A 
HETATM    8  C   UNL     1     -41.597  54.429 -53.454  1.00  0.00     0.061 A 
HETATM    9  C   UNL     1     -42.352  55.119 -54.513  1.00  0.00     0.259 A 
HETATM   10  O   UNL     1     -42.518  54.628 -55.622  1.00  0.00    -0.267 OA
HETATM   11  N   UNL     1     -42.860  56.343 -54.169  1.00  0.00    -0.309 N 
HETATM   12  H   UNL     1     -43.305  56.869 -54.907  1.00  0.00     0.170 HD
ENDROOT
BRANCH   1  13
HETATM   13  C   UNL     1     -43.304  58.309 -52.730  1.00  0.00     0.187 C 
BRANCH  13  14
HETATM   14  N   UNL     1     -42.676  59.109 -51.682  1.00  0.00    -0.344 N 
HETATM   15  C   UNL     1     -43.309  59.989 -50.846  1.00  0.00     0.247 C 
HETATM   16  O   UNL     1     -42.627  60.851 -50.286  1.00  0.00    -0.272 OA
HETATM   17  H   UNL     1     -41.719  59.405 -51.839  1.00  0.00     0.163 HD
BRANCH  15  18
HETATM   18  C   UNL     1     -44.813  59.863 -50.591  1.00  0.00     0.373 C 
BRANCH  18  19
HETATM   19  N   UNL     1     -45.528  61.071 -51.051  1.00  0.00     0.088 N 
HETATM   20  C   UNL     1     -46.614  60.726 -51.976  1.00  0.00     0.310 C 
HETATM   21  C   UNL     1     -46.074  61.793 -49.899  1.00  0.00     0.310 C 
ENDBRANCH  18  19
ENDBRANCH  15  18
ENDBRANCH  13  14
BRANCH  13  22
HETATM   22  C   UNL     1     -43.361  59.069 -54.053  1.00  0.00    -0.028 A 
HETATM   23  C   UNL     1     -42.191  59.664 -54.556  1.00  0.00     0.011 A 
HETATM   24  C   UNL     1     -42.221  60.419 -55.732  1.00  0.00     0.024 A 
HETATM   25  C   UNL     1     -43.421  60.589 -56.416  1.00  0.00     0.034 A 
HETATM   26 CL   UNL     1     -43.461  61.523 -57.859  1.00  0.00    -0.084 Cl
HETATM   27  C   UNL     1     -44.594  60.017 -55.930  1.00  0.00     0.024 A 
HETATM   28  C   UNL     1     -44.567  59.265 -54.751  1.00  0.00     0.011 A 
ENDBRANCH  13  22
ENDBRANCH   1  13
BRANCH   6  29
HETATM   29  C   UNL     1     -39.938  51.128 -52.760  1.00  0.00     0.010 A 
HETATM   30  C   UNL     1     -39.672  50.356 -53.916  1.00  0.00     0.152 A 
HETATM   31  N   UNL     1     -39.204  49.138 -53.629  1.00  0.00    -0.187 NA
HETATM   32  N   UNL     1     -39.165  49.124 -52.287  1.00  0.00    -0.289 N 
HETATM   33  H   UNL     1     -38.827  48.288 -51.824  1.00  0.00     0.188 HD
HETATM   34  C   UNL     1     -39.591  50.291 -51.720  1.00  0.00     0.123 A 
ENDBRANCH   6  29
TORSDOF 6
ENDMDL
MODEL 7
REMARK VINA RESULT:      -7.5      3.511      8.019
REMARK  6 active torsions:
REMARK  status: ('A' for Active; 'I' for Inactive)
REMARK    1  A    between atoms: N_2  and  C_4 
REMARK    2  A    between atoms: C_4  and  C_5 
REMARK       I    between atoms: C_5  and  N_7 
REMARK    3  A    between atoms: N_7  and  C_8 
REMARK    4  A    between atoms: C_8  and  C_9 
REMARK    5  A    between atoms: C_8  and  C_26 
REMARK    6  A    between atoms: C_14  and  C_20 
ROOT
HETATM    1  C   UNL     1     -41.899  55.646 -53.724  1.00  0.00     0.135 A 
HETATM    2  N   UNL     1     -42.381  55.106 -54.801  1.00  0.00    -0.232 NA
HETATM    3  C   UNL     1     -42.559  55.932 -55.923  1.00  0.00     0.074 A 
HETATM    4  C   UNL     1     -43.108  55.384 -57.081  1.00  0.00     0.033 A 
HETATM    5  C   UNL     1     -43.353  56.184 -58.202  1.00  0.00     0.014 A 
HETATM    6  C   UNL     1     -43.054  57.554 -58.184  1.00  0.00    -0.022 A 
HETATM    7  C   UNL     1     -42.478  58.104 -57.033  1.00  0.00     0.031 A 
HETATM    8  C   UNL     1     -42.239  57.291 -55.918  1.00  0.00     0.061 A 
HETATM    9  C   UNL     1     -41.651  57.846 -54.687  1.00  0.00     0.259 A 
HETATM   10  O   UNL     1     -41.273  59.007 -54.610  1.00  0.00    -0.267 OA
HETATM   11  N   UNL     1     -41.563  56.974 -53.636  1.00  0.00    -0.309 N 
HETATM   12  H   UNL     1     -41.084  57.309 -52.812  1.00  0.00     0.170 HD
ENDROOT
BRANCH   1  13
HETATM   13  C   UNL     1     -41.779  54.822 -52.429  1.00  0.00     0.187 C 
BRANCH  13  14
HETATM   14  N   UNL     1     -43.063  54.545 -51.791  1.00  0.00    -0.344 N 
HETATM   15  C   UNL     1     -43.775  55.403 -50.996  1.00  0.00     0.247 C 
HETATM   16  O   UNL     1     -44.623  54.924 -50.239  1.00  0.00    -0.272 OA
HETATM   17  H   UNL     1     -43.245  53.586 -51.518  1.00  0.00     0.163 HD
BRANCH  15  18
HETATM   18  C   UNL     1     -43.542  56.913 -51.089  1.00  0.00     0.373 C 
BRANCH  18  19
HETATM   19  N   UNL     1     -44.785  57.615 -51.468  1.00  0.00     0.088 N 
HETATM   20  C   UNL     1     -44.862  58.938 -50.838  1.00  0.00     0.310 C 
HETATM   21  C   UNL     1     -44.849  57.760 -52.925  1.00  0.00     0.310 C 
ENDBRANCH  18  19
ENDBRANCH  15  18
ENDBRANCH  13  14
BRANCH  13  22
HETATM   22  C   UNL     1     -41.017  53.534 -52.730  1.00  0.00    -0.028 A 
HETATM   23  C   UNL     1     -41.154  52.933 -53.993  1.00  0.00     0.011 A 
HETATM   24  C   UNL     1     -40.519  51.722 -54.282  1.00  0.00     0.024 A 
HETATM   25  C   UNL     1     -39.743  51.097 -53.309  1.00  0.00     0.034 A 
HETATM   26 CL   UNL     1     -38.968  49.603 -53.661  1.00  0.00    -0.084 Cl
HETATM   27  C   UNL     1     -39.602  51.671 -52.048  1.00  0.00     0.024 A 
HETATM   28  C   UNL     1     -40.240  52.880 -51.756  1.00  0.00     0.011 A 
ENDBRANCH  13  22
ENDBRANCH   1  13
BRANCH   6  29
HETATM   29  C   UNL     1     -43.357  58.380 -59.339  1.00  0.00     0.010 A 
HETATM   30  C   UNL     1     -42.582  59.348 -60.019  1.00  0.00     0.152 A 
HETATM   31  N   UNL     1     -43.213  59.869 -61.075  1.00  0.00    -0.187 NA
HETATM   32  N   UNL     1     -44.395  59.232 -61.080  1.00  0.00    -0.289 N 
HETATM   33  H   UNL     1     -45.060  59.456 -61.812  1.00  0.00     0.188 HD
HETATM   34  C   UNL     1     -44.530  58.330 -60.063  1.00  0.00     0.123 A 
ENDBRANCH   6  29
TORSDOF 6
ENDMDL
MODEL 8
REMARK VINA RESULT:      -7.4      2.869      4.786
REMARK  6 active torsions:
REMARK  status: ('A' for Active; 'I' for Inactive)
REMARK    1  A    between atoms: N_2  and  C_4 
REMARK    2  A    between atoms: C_4  and  C_5 
REMARK       I    between atoms: C_5  and  N_7 
REMARK    3  A    between atoms: N_7  and  C_8 
REMARK    4  A    between atoms: C_8  and  C_9 
REMARK    5  A    between atoms: C_8  and  C_26 
REMARK    6  A    between atoms: C_14  and  C_20 
ROOT
HETATM    1  C   UNL     1     -43.207  56.642 -54.594  1.00  0.00     0.135 A 
HETATM    2  N   UNL     1     -42.270  56.443 -53.719  1.00  0.00    -0.232 NA
HETATM    3  C   UNL     1     -41.726  55.152 -53.625  1.00  0.00     0.074 A 
HETATM    4  C   UNL     1     -40.744  54.905 -52.668  1.00  0.00     0.033 A 
HETATM    5  C   UNL     1     -40.214  53.619 -52.505  1.00  0.00     0.014 A 
HETATM    6  C   UNL     1     -40.663  52.553 -53.299  1.00  0.00    -0.022 A 
HETATM    7  C   UNL     1     -41.630  52.803 -54.280  1.00  0.00     0.031 A 
HETATM    8  C   UNL     1     -42.151  54.094 -54.431  1.00  0.00     0.061 A 
HETATM    9  C   UNL     1     -43.183  54.382 -55.441  1.00  0.00     0.259 A 
HETATM   10  O   UNL     1     -43.568  53.538 -56.240  1.00  0.00    -0.267 OA
HETATM   11  N   UNL     1     -43.683  55.656 -55.420  1.00  0.00    -0.309 N 
HETATM   12  H   UNL     1     -44.327  55.898 -56.160  1.00  0.00     0.170 HD
ENDROOT
BRANCH   1  13
HETATM   13  C   UNL     1     -43.919  58.005 -54.675  1.00  0.00     0.187 C 
BRANCH  13  14
HETATM   14  N   UNL     1     -43.059  59.134 -54.330  1.00  0.00    -0.344 N 
HETATM   15  C   UNL     1     -43.137  59.895 -53.194  1.00  0.00     0.247 C 
HETATM   16  O   UNL     1     -42.618  61.014 -53.207  1.00  0.00    -0.272 OA
HETATM   17  H   UNL     1     -42.698  59.690 -55.096  1.00  0.00     0.163 HD
BRANCH  15  18
HETATM   18  C   UNL     1     -43.813  59.338 -51.938  1.00  0.00     0.373 C 
BRANCH  18  19
HETATM   19  N   UNL     1     -44.919  60.215 -51.503  1.00  0.00     0.088 N 
HETATM   20  C   UNL     1     -45.946  60.333 -52.543  1.00  0.00     0.310 C 
HETATM   21  C   UNL     1     -45.520  59.683 -50.277  1.00  0.00     0.310 C 
ENDBRANCH  18  19
ENDBRANCH  15  18
ENDBRANCH  13  14
BRANCH  13  22
HETATM   22  C   UNL     1     -44.520  58.169 -56.069  1.00  0.00    -0.028 A 
HETATM   23  C   UNL     1     -45.913  58.072 -56.233  1.00  0.00     0.011 A 
HETATM   24  C   UNL     1     -46.491  58.156 -57.503  1.00  0.00     0.024 A 
HETATM   25  C   UNL     1     -45.682  58.335 -58.622  1.00  0.00     0.034 A 
HETATM   26 CL   UNL     1     -46.392  58.431 -60.185  1.00  0.00    -0.084 Cl
HETATM   27  C   UNL     1     -44.299  58.424 -58.482  1.00  0.00     0.024 A 
HETATM   28  C   UNL     1     -43.719  58.336 -57.214  1.00  0.00     0.011 A 
ENDBRANCH  13  22
ENDBRANCH   1  13
BRANCH   6  29
HETATM   29  C   UNL     1     -40.138  51.217 -53.086  1.00  0.00     0.010 A 
HETATM   30  C   UNL     1     -39.905  50.155 -53.991  1.00  0.00     0.152 A 
HETATM   31  N   UNL     1     -39.369  49.082 -53.403  1.00  0.00    -0.187 NA
HETATM   32  N   UNL     1     -39.251  49.454 -52.118  1.00  0.00    -0.289 N 
HETATM   33  H   UNL     1     -38.851  48.793 -51.460  1.00  0.00     0.188 HD
HETATM   34  C   UNL     1     -39.696  50.722 -51.877  1.00  0.00     0.123 A 
ENDBRANCH   6  29
TORSDOF 6
ENDMDL
MODEL 9
REMARK VINA RESULT:      -7.4      3.866      8.436
REMARK  6 active torsions:
REMARK  status: ('A' for Active; 'I' for Inactive)
REMARK    1  A    between atoms: N_2  and  C_4 
REMARK    2  A    between atoms: C_4  and  C_5 
REMARK       I    between atoms: C_5  and  N_7 
REMARK    3  A    between atoms: N_7  and  C_8 
REMARK    4  A    between atoms: C_8  and  C_9 
REMARK    5  A    between atoms: C_8  and  C_26 
REMARK    6  A    between atoms: C_14  and  C_20 
ROOT
HETATM    1  C   UNL     1     -42.946  56.904 -56.095  1.00  0.00     0.135 A 
HETATM    2  N   UNL     1     -44.111  57.470 -56.017  1.00  0.00    -0.232 NA
HETATM    3  C   UNL     1     -44.877  57.555 -57.192  1.00  0.00     0.074 A 
HETATM    4  C   UNL     1     -46.116  58.191 -57.141  1.00  0.00     0.033 A 
HETATM    5  C   UNL     1     -46.886  58.345 -58.300  1.00  0.00     0.014 A 
HETATM    6  C   UNL     1     -46.426  57.866 -59.535  1.00  0.00    -0.022 A 
HETATM    7  C   UNL     1     -45.194  57.204 -59.586  1.00  0.00     0.031 A 
HETATM    8  C   UNL     1     -44.434  57.057 -58.419  1.00  0.00     0.061 A 
HETATM    9  C   UNL     1     -43.126  56.382 -58.445  1.00  0.00     0.259 A 
HETATM   10  O   UNL     1     -42.686  55.852 -59.457  1.00  0.00    -0.267 OA
HETATM   11  N   UNL     1     -42.437  56.393 -57.263  1.00  0.00    -0.309 N 
HETATM   12  H   UNL     1     -41.579  55.860 -57.237  1.00  0.00     0.170 HD
ENDROOT
BRANCH   1  13
HETATM   13  C   UNL     1     -42.013  56.873 -54.870  1.00  0.00     0.187 C 
BRANCH  13  14
HETATM   14  N   UNL     1     -42.604  57.463 -53.672  1.00  0.00    -0.344 N 
HETATM   15  C   UNL     1     -42.319  58.696 -53.151  1.00  0.00     0.247 C 
HETATM   16  O   UNL     1     -42.594  58.905 -51.967  1.00  0.00    -0.272 OA
HETATM   17  H   UNL     1     -42.875  56.827 -52.931  1.00  0.00     0.163 HD
BRANCH  15  18
HETATM   18  C   UNL     1     -41.716  59.788 -54.040  1.00  0.00     0.373 C 
BRANCH  18  19
HETATM   19  N   UNL     1     -42.772  60.499 -54.788  1.00  0.00     0.088 N 
HETATM   20  C   UNL     1     -43.040  61.819 -54.205  1.00  0.00     0.310 C 
HETATM   21  C   UNL     1     -42.369  60.654 -56.189  1.00  0.00     0.310 C 
ENDBRANCH  18  19
ENDBRANCH  15  18
ENDBRANCH  13  14
BRANCH  13  22
HETATM   22  C   UNL     1     -41.570  55.433 -54.622  1.00  0.00    -0.028 A 
HETATM   23  C   UNL     1     -40.270  55.041 -54.988  1.00  0.00     0.011 A 
HETATM   24  C   UNL     1     -39.852  53.717 -54.831  1.00  0.00     0.024 A 
HETATM   25  C   UNL     1     -40.729  52.770 -54.308  1.00  0.00     0.034 A 
HETATM   26 CL   UNL     1     -40.218  51.139 -54.121  1.00  0.00    -0.084 Cl
HETATM   27  C   UNL     1     -42.024  53.136 -53.948  1.00  0.00     0.024 A 
HETATM   28  C   UNL     1     -42.445  54.459 -54.109  1.00  0.00     0.011 A 
ENDBRANCH  13  22
ENDBRANCH   1  13
BRANCH   6  29
HETATM   29  C   UNL     1     -47.215  58.076 -60.735  1.00  0.00     0.010 A 
HETATM   30  C   UNL     1     -47.874  57.159 -61.587  1.00  0.00     0.152 A 
HETATM   31  N   UNL     1     -48.536  57.758 -62.580  1.00  0.00    -0.187 NA
HETATM   32  N   UNL     1     -48.308  59.064 -62.368  1.00  0.00    -0.289 N 
HETATM   33  H   UNL     1     -48.725  59.735 -63.003  1.00  0.00     0.188 HD
HETATM   34  C   UNL     1     -47.525  59.307 -61.276  1.00  0.00     0.123 A 
ENDBRANCH   6  29
TORSDOF 6
ENDMDL
MODEL 10
REMARK VINA RESULT:      -7.4      3.647      7.787
REMARK  6 active torsions:
REMARK  status: ('A' for Active; 'I' for Inactive)
REMARK    1  A    between atoms: N_2  and  C_4 
REMARK    2  A    between atoms: C_4  and  C_5 
REMARK       I    between atoms: C_5  and  N_7 
REMARK    3  A    between atoms: N_7  and  C_8 
REMARK    4  A    between atoms: C_8  and  C_9 
REMARK    5  A    between atoms: C_8  and  C_26 
REMARK    6  A    between atoms: C_14  and  C_20 
ROOT
HETATM    1  C   UNL     1     -43.439  57.754 -53.883  1.00  0.00     0.135 A 
HETATM    2  N   UNL     1     -42.917  58.929 -53.705  1.00  0.00    -0.232 NA
HETATM    3  C   UNL     1     -43.246  59.618 -52.526  1.00  0.00     0.074 A 
HETATM    4  C   UNL     1     -42.727  60.896 -52.329  1.00  0.00     0.033 A 
HETATM    5  C   UNL     1     -43.072  61.638 -51.193  1.00  0.00     0.014 A 
HETATM    6  C   UNL     1     -43.949  61.113 -50.233  1.00  0.00    -0.022 A 
HETATM    7  C   UNL     1     -44.452  59.819 -50.414  1.00  0.00     0.031 A 
HETATM    8  C   UNL     1     -44.098  59.088 -51.555  1.00  0.00     0.061 A 
HETATM    9  C   UNL     1     -44.626  57.733 -51.782  1.00  0.00     0.259 A 
HETATM   10  O   UNL     1     -45.323  57.157 -50.956  1.00  0.00    -0.267 OA
HETATM   11  N   UNL     1     -44.288  57.165 -52.981  1.00  0.00    -0.309 N 
HETATM   12  H   UNL     1     -44.567  56.204 -53.118  1.00  0.00     0.170 HD
ENDROOT
BRANCH   1  13
HETATM   13  C   UNL     1     -43.206  56.992 -55.201  1.00  0.00     0.187 C 
BRANCH  13  14
HETATM   14  N   UNL     1     -42.534  57.788 -56.225  1.00  0.00    -0.344 N 
HETATM   15  C   UNL     1     -42.879  57.864 -57.547  1.00  0.00     0.247 C 
HETATM   16  O   UNL     1     -42.027  58.257 -58.348  1.00  0.00    -0.272 OA
HETATM   17  H   UNL     1     -41.537  57.931 -56.117  1.00  0.00     0.163 HD
BRANCH  15  18
HETATM   18  C   UNL     1     -44.300  57.511 -57.995  1.00  0.00     0.373 C 
BRANCH  18  19
HETATM   19  N   UNL     1     -44.276  56.664 -59.204  1.00  0.00     0.088 N 
HETATM   20  C   UNL     1     -43.745  55.329 -58.908  1.00  0.00     0.310 C 
HETATM   21  C   UNL     1     -45.630  56.544 -59.752  1.00  0.00     0.310 C 
ENDBRANCH  18  19
ENDBRANCH  15  18
ENDBRANCH  13  14
BRANCH  13  22
HETATM   22  C   UNL     1     -42.437  55.707 -54.901  1.00  0.00    -0.028 A 
HETATM   23  C   UNL     1     -41.040  55.761 -54.752  1.00  0.00     0.011 A 
HETATM   24  C   UNL     1     -40.298  54.595 -54.537  1.00  0.00     0.024 A 
HETATM   25  C   UNL     1     -40.946  53.364 -54.472  1.00  0.00     0.034 A 
HETATM   26 CL   UNL     1     -40.034  51.930 -54.215  1.00  0.00    -0.084 Cl
HETATM   27  C   UNL     1     -42.328  53.288 -54.626  1.00  0.00     0.024 A 
HETATM   28  C   UNL     1     -43.070  54.452 -54.846  1.00  0.00     0.011 A 
ENDBRANCH  13  22
ENDBRANCH   1  13
BRANCH   6  29
HETATM   29  C   UNL     1     -44.335  61.913 -49.085  1.00  0.00     0.010 A 
HETATM   30  C   UNL     1     -44.335  63.313 -48.886  1.00  0.00     0.152 A 
HETATM   31  N   UNL     1     -44.807  63.667 -47.687  1.00  0.00    -0.187 NA
HETATM   32  N   UNL     1     -45.116  62.493 -47.114  1.00  0.00    -0.289 N 
HETATM   33  H   UNL     1     -45.511  62.503 -46.179  1.00  0.00     0.188 HD
HETATM   34  C   UNL     1     -44.855  61.414 -47.909  1.00  0.00     0.123 A 
ENDBRANCH   6  29
TORSDOF 6
ENDMDL
