MODEL 1
REMARK VINA RESULT:      -8.5      0.000      0.000
REMARK  3 active torsions:
REMARK  status: ('A' for Active; 'I' for Inactive)
REMARK    1  A    between atoms: C_2  and  C_3 
REMARK    2  A    between atoms: C_9  and  N_10 
REMARK    3  A    between atoms: C_12  and  C_13 
ROOT
HETATM    1  C   UNL     1     -42.230  56.222 -55.488  1.00  0.00    -0.006 A 
HETATM    2  C   UNL     1     -42.085  57.617 -55.188  1.00  0.00     0.063 A 
HETATM    3  C   UNL     1     -42.756  58.525 -56.013  1.00  0.00     0.165 A 
HETATM    4  N   UNL     1     -42.721  59.834 -55.823  1.00  0.00    -0.222 NA
HETATM    5  C   UNL     1     -42.005  60.293 -54.802  1.00  0.00     0.237 A 
HETATM    6  N   UNL     1     -41.299  59.551 -53.953  1.00  0.00    -0.229 NA
HETATM    7  C   UNL     1     -41.336  58.230 -54.160  1.00  0.00     0.117 A 
HETATM    8  N   UNL     1     -43.479  58.134 -57.058  1.00  0.00    -0.228 NA
HETATM    9  C   UNL     1     -43.596  56.826 -57.373  1.00  0.00     0.070 A 
HETATM   10  C   UNL     1     -42.998  55.849 -56.599  1.00  0.00     0.046 A 
ENDROOT
BRANCH   9  11
HETATM   11  C   UNL     1     -44.390  56.527 -58.582  1.00  0.00    -0.004 A 
HETATM   12  C   UNL     1     -45.547  57.262 -58.909  1.00  0.00     0.053 A 
HETATM   13  C   UNL     1     -46.256  56.919 -60.044  1.00  0.00     0.106 A 
HETATM   14  C   UNL     1     -45.868  55.887 -60.861  1.00  0.00     0.105 A 
HETATM   15  O   UNL     1     -47.393  57.527 -60.479  1.00  0.00    -0.323 OA
HETATM   16  O   UNL     1     -46.708  55.716 -61.916  1.00  0.00    -0.323 OA
HETATM   17  C   UNL     1     -44.749  55.136 -60.590  1.00  0.00     0.040 A 
HETATM   18  C   UNL     1     -47.683  56.746 -61.657  1.00  0.00     0.352 A 
HETATM   19  C   UNL     1     -44.014  55.460 -59.441  1.00  0.00     0.017 A 
ENDBRANCH   9  11
BRANCH   1  20
HETATM   20  C   UNL     1     -41.630  55.138 -54.692  1.00  0.00    -0.025 A 
HETATM   21  C   UNL     1     -42.222  54.708 -53.494  1.00  0.00     0.014 A 
HETATM   22  C   UNL     1     -41.662  53.665 -52.750  1.00  0.00     0.024 A 
HETATM   23  C   UNL     1     -40.509  53.033 -53.207  1.00  0.00     0.034 A 
HETATM   24  C   UNL     1     -39.911  53.434 -54.399  1.00  0.00     0.024 A 
HETATM   25 CL   UNL     1     -39.819  51.748 -52.295  1.00  0.00    -0.084 Cl
HETATM   26  C   UNL     1     -40.470  54.481 -55.138  1.00  0.00     0.014 A 
ENDBRANCH   1  20
BRANCH   7  27
HETATM   27  N   UNL     1     -40.582  57.516 -53.229  1.00  0.00    -0.286 NA
HETATM   28  H   UNL     1     -41.185  57.307 -52.438  1.00  0.00     0.125 HD
HETATM   29  H   UNL     1     -39.745  58.011 -52.945  1.00  0.00     0.125 HD
ENDBRANCH   7  27
TORSDOF 3
ENDMDL
MODEL 2
REMARK VINA RESULT:      -8.3      4.635      7.555
REMARK  3 active torsions:
REMARK  status: ('A' for Active; 'I' for Inactive)
REMARK    1  A    between atoms: C_2  and  C_3 
REMARK    2  A    between atoms: C_9  and  N_10 
REMARK    3  A    between atoms: C_12  and  C_13 
ROOT
HETATM    1  C   UNL     1     -42.111  57.249 -55.137  1.00  0.00    -0.006 A 
HETATM    2  C   UNL     1     -41.864  58.162 -54.059  1.00  0.00     0.063 A 
HETATM    3  C   UNL     1     -41.221  57.658 -52.924  1.00  0.00     0.165 A 
HETATM    4  N   UNL     1     -40.916  58.406 -51.875  1.00  0.00    -0.222 NA
HETATM    5  C   UNL     1     -41.248  59.692 -51.915  1.00  0.00     0.237 A 
HETATM    6  N   UNL     1     -41.881  60.301 -52.915  1.00  0.00    -0.229 NA
HETATM    7  C   UNL     1     -42.190  59.533 -53.965  1.00  0.00     0.117 A 
HETATM    8  N   UNL     1     -40.873  56.380 -52.814  1.00  0.00    -0.228 NA
HETATM    9  C   UNL     1     -41.131  55.502 -53.807  1.00  0.00     0.070 A 
HETATM   10  C   UNL     1     -41.732  55.910 -54.983  1.00  0.00     0.046 A 
ENDROOT
BRANCH   9  11
HETATM   11  C   UNL     1     -40.734  54.103 -53.544  1.00  0.00    -0.004 A 
HETATM   12  C   UNL     1     -40.520  53.628 -52.234  1.00  0.00     0.053 A 
HETATM   13  C   UNL     1     -40.132  52.314 -52.057  1.00  0.00     0.106 A 
HETATM   14  C   UNL     1     -39.948  51.459 -53.115  1.00  0.00     0.105 A 
HETATM   15  O   UNL     1     -39.879  51.719 -50.860  1.00  0.00    -0.323 OA
HETATM   16  O   UNL     1     -39.560  50.218 -52.720  1.00  0.00    -0.323 OA
HETATM   17  C   UNL     1     -40.140  51.870 -54.413  1.00  0.00     0.040 A 
HETATM   18  C   UNL     1     -39.499  50.395 -51.290  1.00  0.00     0.352 A 
HETATM   19  C   UNL     1     -40.531  53.200 -54.621  1.00  0.00     0.017 A 
ENDBRANCH   9  11
BRANCH   1  20
HETATM   20  C   UNL     1     -42.732  57.629 -56.416  1.00  0.00    -0.025 A 
HETATM   21  C   UNL     1     -41.953  58.095 -57.488  1.00  0.00     0.014 A 
HETATM   22  C   UNL     1     -42.543  58.436 -58.709  1.00  0.00     0.024 A 
HETATM   23  C   UNL     1     -43.919  58.300 -58.873  1.00  0.00     0.034 A 
HETATM   24  C   UNL     1     -44.709  57.828 -57.828  1.00  0.00     0.024 A 
HETATM   25 CL   UNL     1     -44.647  58.716 -60.375  1.00  0.00    -0.084 Cl
HETATM   26  C   UNL     1     -44.118  57.494 -56.607  1.00  0.00     0.014 A 
ENDBRANCH   1  20
BRANCH   7  27
HETATM   27  N   UNL     1     -42.843  60.238 -54.975  1.00  0.00    -0.286 NA
HETATM   28  H   UNL     1     -42.300  60.129 -55.828  1.00  0.00     0.125 HD
HETATM   29  H   UNL     1     -42.985  61.213 -54.741  1.00  0.00     0.125 HD
ENDBRANCH   7  27
TORSDOF 3
ENDMDL
MODEL 3
REMARK VINA RESULT:      -8.2      4.519      7.530
REMARK  3 active torsions:
REMARK  status: ('A' for Active; 'I' for Inactive)
REMARK    1  A    between atoms: C_2  and  C_3 
REMARK    2  A    between atoms: C_9  and  N_10 
REMARK    3  A    between atoms: C_12  and  C_13 
ROOT
HETATM    1  C   UNL     1     -42.568  57.111 -53.674  1.00  0.00    -0.006 A 
HETATM    2  C   UNL     1     -42.869  57.131 -55.076  1.00  0.00     0.063 A 
HETATM    3  C   UNL     1     -42.571  55.981 -55.814  1.00  0.00     0.165 A 
HETATM    4  N   UNL     1     -42.826  55.869 -57.108  1.00  0.00    -0.222 NA
HETATM    5  C   UNL     1     -43.385  56.907 -57.721  1.00  0.00     0.237 A 
HETATM    6  N   UNL     1     -43.699  58.068 -57.153  1.00  0.00    -0.229 NA
HETATM    7  C   UNL     1     -43.430  58.172 -55.847  1.00  0.00     0.117 A 
HETATM    8  N   UNL     1     -42.001  54.913 -55.265  1.00  0.00    -0.228 NA
HETATM    9  C   UNL     1     -41.680  54.893 -53.954  1.00  0.00     0.070 A 
HETATM   10  C   UNL     1     -41.965  55.968 -53.133  1.00  0.00     0.046 A 
ENDROOT
BRANCH   9  11
HETATM   11  C   UNL     1     -41.012  53.665 -53.478  1.00  0.00    -0.004 A 
HETATM   12  C   UNL     1     -40.842  52.542 -54.312  1.00  0.00     0.053 A 
HETATM   13  C   UNL     1     -40.226  51.417 -53.800  1.00  0.00     0.106 A 
HETATM   14  C   UNL     1     -39.774  51.360 -52.505  1.00  0.00     0.105 A 
HETATM   15  O   UNL     1     -40.003  50.259 -54.479  1.00  0.00    -0.323 OA
HETATM   16  O   UNL     1     -39.207  50.162 -52.204  1.00  0.00    -0.323 OA
HETATM   17  C   UNL     1     -39.915  52.424 -51.646  1.00  0.00     0.040 A 
HETATM   18  C   UNL     1     -39.373  49.462 -53.454  1.00  0.00     0.352 A 
HETATM   19  C   UNL     1     -40.541  53.577 -52.140  1.00  0.00     0.017 A 
ENDBRANCH   9  11
BRANCH   1  20
HETATM   20  C   UNL     1     -42.861  58.217 -52.748  1.00  0.00    -0.025 A 
HETATM   21  C   UNL     1     -44.113  58.320 -52.119  1.00  0.00     0.014 A 
HETATM   22  C   UNL     1     -44.383  59.361 -51.225  1.00  0.00     0.024 A 
HETATM   23  C   UNL     1     -43.397  60.301 -50.941  1.00  0.00     0.034 A 
HETATM   24  C   UNL     1     -42.144  60.212 -51.544  1.00  0.00     0.024 A 
HETATM   25 CL   UNL     1     -43.726  61.581 -49.840  1.00  0.00    -0.084 Cl
HETATM   26  C   UNL     1     -41.879  59.174 -52.442  1.00  0.00     0.014 A 
ENDBRANCH   1  20
BRANCH   7  27
HETATM   27  N   UNL     1     -43.794  59.409 -55.318  1.00  0.00    -0.286 NA
HETATM   28  H   UNL     1     -43.030  60.057 -55.494  1.00  0.00     0.125 HD
HETATM   29  H   UNL     1     -44.026  59.359 -54.333  1.00  0.00     0.125 HD
ENDBRANCH   7  27
TORSDOF 3
ENDMDL
MODEL 4
REMARK VINA RESULT:      -8.1      4.607      7.591
REMARK  3 active torsions:
REMARK  status: ('A' for Active; 'I' for Inactive)
REMARK    1  A    between atoms: C_2  and  C_3 
REMARK    2  A    between atoms: C_9  and  N_10 
REMARK    3  A    between atoms: C_12  and  C_13 
ROOT
HETATM    1  C   UNL     1     -42.533  57.275 -53.657  1.00  0.00    -0.006 A 
HETATM    2  C   UNL     1     -42.168  58.110 -52.549  1.00  0.00     0.063 A 
HETATM    3  C   UNL     1     -41.335  57.554 -51.572  1.00  0.00     0.165 A 
HETATM    4  N   UNL     1     -40.910  58.230 -50.517  1.00  0.00    -0.222 NA
HETATM    5  C   UNL     1     -41.306  59.492 -50.390  1.00  0.00     0.237 A 
HETATM    6  N   UNL     1     -42.113  60.141 -51.224  1.00  0.00    -0.229 NA
HETATM    7  C   UNL     1     -42.543  59.445 -52.282  1.00  0.00     0.117 A 
HETATM    8  N   UNL     1     -40.913  56.294 -51.633  1.00  0.00    -0.228 NA
HETATM    9  C   UNL     1     -41.277  55.488 -52.652  1.00  0.00     0.070 A 
HETATM   10  C   UNL     1     -42.070  55.953 -53.684  1.00  0.00     0.046 A 
ENDROOT
BRANCH   9  11
HETATM   11  C   UNL     1     -40.777  54.100 -52.579  1.00  0.00    -0.004 A 
HETATM   12  C   UNL     1     -40.690  53.282 -53.724  1.00  0.00     0.053 A 
HETATM   13  C   UNL     1     -40.232  51.986 -53.586  1.00  0.00     0.106 A 
HETATM   14  C   UNL     1     -39.859  51.472 -52.369  1.00  0.00     0.105 A 
HETATM   15  O   UNL     1     -40.106  51.081 -54.594  1.00  0.00    -0.323 OA
HETATM   16  O   UNL     1     -39.447  50.179 -52.456  1.00  0.00    -0.323 OA
HETATM   17  C   UNL     1     -39.925  52.223 -51.220  1.00  0.00     0.040 A 
HETATM   18  C   UNL     1     -39.624  49.932 -53.866  1.00  0.00     0.352 A 
HETATM   19  C   UNL     1     -40.390  53.540 -51.332  1.00  0.00     0.017 A 
ENDBRANCH   9  11
BRANCH   1  20
HETATM   20  C   UNL     1     -43.362  57.720 -54.790  1.00  0.00    -0.025 A 
HETATM   21  C   UNL     1     -44.763  57.643 -54.734  1.00  0.00     0.014 A 
HETATM   22  C   UNL     1     -45.549  58.085 -55.802  1.00  0.00     0.024 A 
HETATM   23  C   UNL     1     -44.939  58.622 -56.932  1.00  0.00     0.034 A 
HETATM   24  C   UNL     1     -43.551  58.720 -57.004  1.00  0.00     0.024 A 
HETATM   25 CL   UNL     1     -45.904  59.169 -58.247  1.00  0.00    -0.084 Cl
HETATM   26  C   UNL     1     -42.768  58.272 -55.938  1.00  0.00     0.014 A 
ENDBRANCH   1  20
BRANCH   7  27
HETATM   27  N   UNL     1     -43.376  60.189 -53.116  1.00  0.00    -0.286 NA
HETATM   28  H   UNL     1     -43.256  61.170 -52.877  1.00  0.00     0.125 HD
HETATM   29  H   UNL     1     -44.346  59.901 -53.055  1.00  0.00     0.125 HD
ENDBRANCH   7  27
TORSDOF 3
ENDMDL
MODEL 5
REMARK VINA RESULT:      -8.0      4.504      7.500
REMARK  3 active torsions:
REMARK  status: ('A' for Active; 'I' for Inactive)
REMARK    1  A    between atoms: C_2  and  C_3 
REMARK    2  A    between atoms: C_9  and  N_10 
REMARK    3  A    between atoms: C_12  and  C_13 
ROOT
HETATM    1  C   UNL     1     -42.940  56.875 -55.087  1.00  0.00    -0.006 A 
HETATM    2  C   UNL     1     -43.707  57.405 -53.997  1.00  0.00     0.063 A 
HETATM    3  C   UNL     1     -43.587  56.770 -52.757  1.00  0.00     0.165 A 
HETATM    4  N   UNL     1     -44.223  57.180 -51.671  1.00  0.00    -0.222 NA
HETATM    5  C   UNL     1     -45.014  58.242 -51.782  1.00  0.00     0.237 A 
HETATM    6  N   UNL     1     -45.241  58.929 -52.898  1.00  0.00    -0.229 NA
HETATM    7  C   UNL     1     -44.599  58.500 -53.990  1.00  0.00     0.117 A 
HETATM    8  N   UNL     1     -42.823  55.696 -52.581  1.00  0.00    -0.228 NA
HETATM    9  C   UNL     1     -42.123  55.165 -53.606  1.00  0.00     0.070 A 
HETATM   10  C   UNL     1     -42.149  55.741 -54.862  1.00  0.00     0.046 A 
ENDROOT
BRANCH   9  11
HETATM   11  C   UNL     1     -41.349  53.948 -53.290  1.00  0.00    -0.004 A 
HETATM   12  C   UNL     1     -41.177  52.913 -54.231  1.00  0.00     0.053 A 
HETATM   13  C   UNL     1     -40.458  51.791 -53.867  1.00  0.00     0.106 A 
HETATM   14  C   UNL     1     -39.905  51.655 -52.618  1.00  0.00     0.105 A 
HETATM   15  O   UNL     1     -40.220  50.713 -54.661  1.00  0.00    -0.323 OA
HETATM   16  O   UNL     1     -39.247  50.476 -52.467  1.00  0.00    -0.323 OA
HETATM   17  C   UNL     1     -40.043  52.631 -51.660  1.00  0.00     0.040 A 
HETATM   18  C   UNL     1     -39.466  49.875 -53.759  1.00  0.00     0.352 A 
HETATM   19  C   UNL     1     -40.772  53.778 -52.002  1.00  0.00     0.017 A 
ENDBRANCH   9  11
BRANCH   1  20
HETATM   20  C   UNL     1     -42.917  57.454 -56.440  1.00  0.00    -0.025 A 
HETATM   21  C   UNL     1     -42.062  58.524 -56.754  1.00  0.00     0.014 A 
HETATM   22  C   UNL     1     -42.027  59.059 -58.045  1.00  0.00     0.024 A 
HETATM   23  C   UNL     1     -42.837  58.518 -59.039  1.00  0.00     0.034 A 
HETATM   24  C   UNL     1     -43.683  57.449 -58.754  1.00  0.00     0.024 A 
HETATM   25 CL   UNL     1     -42.793  59.173 -60.629  1.00  0.00    -0.084 Cl
HETATM   26  C   UNL     1     -43.721  56.920 -57.461  1.00  0.00     0.014 A 
ENDBRANCH   1  20
BRANCH   7  27
HETATM   27  N   UNL     1     -44.878  59.270 -55.118  1.00  0.00    -0.286 NA
HETATM   28  H   UNL     1     -44.658  60.237 -54.894  1.00  0.00     0.125 HD
HETATM   29  H   UNL     1     -45.835  59.165 -55.435  1.00  0.00     0.125 HD
ENDBRANCH   7  27
TORSDOF 3
ENDMDL
MODEL 6
REMARK VINA RESULT:      -7.7      4.314      6.925
REMARK  3 active torsions:
REMARK  status: ('A' for Active; 'I' for Inactive)
REMARK    1  A    between atoms: C_2  and  C_3 
REMARK    2  A    between atoms: C_9  and  N_10 
REMARK    3  A    between atoms: C_12  and  C_13 
ROOT
HETATM    1  C   UNL     1     -42.536  56.846 -54.671  1.00  0.00    -0.006 A 
HETATM    2  C   UNL     1     -42.948  57.507 -55.875  1.00  0.00     0.063 A 
HETATM    3  C   UNL     1     -43.458  58.804 -55.755  1.00  0.00     0.165 A 
HETATM    4  N   UNL     1     -43.847  59.525 -56.794  1.00  0.00    -0.222 NA
HETATM    5  C   UNL     1     -43.749  58.976 -58.000  1.00  0.00     0.237 A 
HETATM    6  N   UNL     1     -43.307  57.749 -58.262  1.00  0.00    -0.229 NA
HETATM    7  C   UNL     1     -42.924  57.027 -57.203  1.00  0.00     0.117 A 
HETATM    8  N   UNL     1     -43.594  59.406 -54.578  1.00  0.00    -0.228 NA
HETATM    9  C   UNL     1     -43.243  58.783 -53.433  1.00  0.00     0.070 A 
HETATM   10  C   UNL     1     -42.698  57.513 -53.450  1.00  0.00     0.046 A 
ENDROOT
BRANCH   9  11
HETATM   11  C   UNL     1     -43.484  59.543 -52.190  1.00  0.00    -0.004 A 
HETATM   12  C   UNL     1     -44.672  59.391 -51.447  1.00  0.00     0.053 A 
HETATM   13  C   UNL     1     -44.846  60.146 -50.303  1.00  0.00     0.106 A 
HETATM   14  C   UNL     1     -43.897  61.038 -49.869  1.00  0.00     0.105 A 
HETATM   15  O   UNL     1     -45.939  60.116 -49.495  1.00  0.00    -0.323 OA
HETATM   16  O   UNL     1     -44.269  61.680 -48.730  1.00  0.00    -0.323 OA
HETATM   17  C   UNL     1     -42.721  61.228 -50.555  1.00  0.00     0.040 A 
HETATM   18  C   UNL     1     -45.573  61.105 -48.509  1.00  0.00     0.352 A 
HETATM   19  C   UNL     1     -42.522  60.478 -51.721  1.00  0.00     0.017 A 
ENDBRANCH   9  11
BRANCH   1  20
HETATM   20  C   UNL     1     -41.937  55.502 -54.629  1.00  0.00    -0.025 A 
HETATM   21  C   UNL     1     -40.558  55.319 -54.826  1.00  0.00     0.014 A 
HETATM   22  C   UNL     1     -39.988  54.044 -54.766  1.00  0.00     0.024 A 
HETATM   23  C   UNL     1     -40.791  52.941 -54.493  1.00  0.00     0.034 A 
HETATM   24  C   UNL     1     -42.158  53.099 -54.281  1.00  0.00     0.024 A 
HETATM   25 CL   UNL     1     -40.090  51.371 -54.415  1.00  0.00    -0.084 Cl
HETATM   26  C   UNL     1     -42.727  54.374 -54.348  1.00  0.00     0.014 A 
ENDBRANCH   1  20
BRANCH   7  27
HETATM   27  N   UNL     1     -42.466  55.758 -57.552  1.00  0.00    -0.286 NA
HETATM   28  H   UNL     1     -43.073  55.401 -58.286  1.00  0.00     0.125 HD
HETATM   29  H   UNL     1     -42.423  55.127 -56.760  1.00  0.00     0.125 HD
ENDBRANCH   7  27
TORSDOF 3
ENDMDL
MODEL 7
REMARK VINA RESULT:      -7.6      3.649      5.424
REMARK  3 active torsions:
REMARK  status: ('A' for Active; 'I' for Inactive)
REMARK    1  A    between atoms: C_2  and  C_3 
REMARK    2  A    between atoms: C_9  and  N_10 
REMARK    3  A    between atoms: C_12  and  C_13 
ROOT
HETATM    1  C   UNL     1     -42.368  57.436 -52.793  1.00  0.00    -0.006 A 
HETATM    2  C   UNL     1     -41.734  56.234 -52.334  1.00  0.00     0.063 A 
HETATM    3  C   UNL     1     -41.354  55.298 -53.302  1.00  0.00     0.165 A 
HETATM    4  N   UNL     1     -40.740  54.163 -53.006  1.00  0.00    -0.222 NA
HETATM    5  C   UNL     1     -40.484  53.914 -51.726  1.00  0.00     0.237 A 
HETATM    6  N   UNL     1     -40.808  54.698 -50.701  1.00  0.00    -0.229 NA
HETATM    7  C   UNL     1     -41.435  55.838 -51.012  1.00  0.00     0.117 A 
HETATM    8  N   UNL     1     -41.591  55.480 -54.597  1.00  0.00    -0.228 NA
HETATM    9  C   UNL     1     -42.218  56.591 -55.040  1.00  0.00     0.070 A 
HETATM   10  C   UNL     1     -42.602  57.590 -54.165  1.00  0.00     0.046 A 
ENDROOT
BRANCH   9  11
HETATM   11  C   UNL     1     -42.460  56.652 -56.495  1.00  0.00    -0.004 A 
HETATM   12  C   UNL     1     -42.240  57.832 -57.234  1.00  0.00     0.053 A 
HETATM   13  C   UNL     1     -42.504  57.830 -58.590  1.00  0.00     0.106 A 
HETATM   14  C   UNL     1     -42.972  56.714 -59.239  1.00  0.00     0.105 A 
HETATM   15  O   UNL     1     -42.352  58.891 -59.427  1.00  0.00    -0.323 OA
HETATM   16  O   UNL     1     -43.171  56.930 -60.566  1.00  0.00    -0.323 OA
HETATM   17  C   UNL     1     -43.206  55.537 -58.568  1.00  0.00     0.040 A 
HETATM   18  C   UNL     1     -42.794  58.318 -60.675  1.00  0.00     0.352 A 
HETATM   19  C   UNL     1     -42.950  55.514 -57.190  1.00  0.00     0.017 A 
ENDBRANCH   9  11
BRANCH   1  20
HETATM   20  C   UNL     1     -42.785  58.539 -51.912  1.00  0.00    -0.025 A 
HETATM   21  C   UNL     1     -41.866  59.517 -51.495  1.00  0.00     0.014 A 
HETATM   22  C   UNL     1     -42.269  60.575 -50.674  1.00  0.00     0.024 A 
HETATM   23  C   UNL     1     -43.599  60.672 -50.275  1.00  0.00     0.034 A 
HETATM   24  C   UNL     1     -44.529  59.721 -50.687  1.00  0.00     0.024 A 
HETATM   25 CL   UNL     1     -44.097  61.975 -49.268  1.00  0.00    -0.084 Cl
HETATM   26  C   UNL     1     -44.123  58.661 -51.502  1.00  0.00     0.014 A 
ENDBRANCH   1  20
BRANCH   7  27
HETATM   27  N   UNL     1     -41.735  56.612 -49.893  1.00  0.00    -0.286 NA
HETATM   28  H   UNL     1     -41.115  57.418 -49.899  1.00  0.00     0.125 HD
HETATM   29  H   UNL     1     -41.665  56.089 -49.027  1.00  0.00     0.125 HD
ENDBRANCH   7  27
TORSDOF 3
ENDMDL
MODEL 8
REMARK VINA RESULT:      -7.6      3.016      4.198
REMARK  3 active torsions:
REMARK  status: ('A' for Active; 'I' for Inactive)
REMARK    1  A    between atoms: C_2  and  C_3 
REMARK    2  A    between atoms: C_9  and  N_10 
REMARK    3  A    between atoms: C_12  and  C_13 
ROOT
HETATM    1  C   UNL     1     -42.055  55.063 -53.783  1.00  0.00    -0.006 A 
HETATM    2  C   UNL     1     -42.883  55.617 -52.750  1.00  0.00     0.063 A 
HETATM    3  C   UNL     1     -43.499  56.845 -53.009  1.00  0.00     0.165 A 
HETATM    4  N   UNL     1     -44.304  57.445 -52.147  1.00  0.00    -0.222 NA
HETATM    5  C   UNL     1     -44.523  56.842 -50.982  1.00  0.00     0.237 A 
HETATM    6  N   UNL     1     -43.988  55.689 -50.592  1.00  0.00    -0.229 NA
HETATM    7  C   UNL     1     -43.170  55.097 -51.469  1.00  0.00     0.117 A 
HETATM    8  N   UNL     1     -43.313  57.506 -54.148  1.00  0.00    -0.228 NA
HETATM    9  C   UNL     1     -42.510  57.014 -55.114  1.00  0.00     0.070 A 
HETATM   10  C   UNL     1     -41.882  55.791 -54.967  1.00  0.00     0.046 A 
ENDROOT
BRANCH   9  11
HETATM   11  C   UNL     1     -42.353  57.865 -56.311  1.00  0.00    -0.004 A 
HETATM   12  C   UNL     1     -42.384  57.326 -57.613  1.00  0.00     0.053 A 
HETATM   13  C   UNL     1     -42.212  58.173 -58.691  1.00  0.00     0.106 A 
HETATM   14  C   UNL     1     -42.012  59.521 -58.532  1.00  0.00     0.105 A 
HETATM   15  O   UNL     1     -42.206  57.797 -59.998  1.00  0.00    -0.323 OA
HETATM   16  O   UNL     1     -41.859  60.167 -59.718  1.00  0.00    -0.323 OA
HETATM   17  C   UNL     1     -41.970  60.101 -57.286  1.00  0.00     0.040 A 
HETATM   18  C   UNL     1     -41.964  59.065 -60.643  1.00  0.00     0.352 A 
HETATM   19  C   UNL     1     -42.138  59.263 -56.175  1.00  0.00     0.017 A 
ENDBRANCH   9  11
BRANCH   1  20
HETATM   20  C   UNL     1     -41.375  53.761 -53.689  1.00  0.00    -0.025 A 
HETATM   21  C   UNL     1     -41.721  52.702 -54.544  1.00  0.00     0.014 A 
HETATM   22  C   UNL     1     -41.060  51.472 -54.466  1.00  0.00     0.024 A 
HETATM   23  C   UNL     1     -40.036  51.296 -53.540  1.00  0.00     0.034 A 
HETATM   24  C   UNL     1     -39.669  52.336 -52.690  1.00  0.00     0.024 A 
HETATM   25 CL   UNL     1     -39.220  49.784 -53.445  1.00  0.00    -0.084 Cl
HETATM   26  C   UNL     1     -40.335  53.562 -52.765  1.00  0.00     0.014 A 
ENDBRANCH   1  20
BRANCH   7  27
HETATM   27  N   UNL     1     -42.654  53.891 -50.997  1.00  0.00    -0.286 NA
HETATM   28  H   UNL     1     -42.698  53.217 -51.757  1.00  0.00     0.125 HD
HETATM   29  H   UNL     1     -43.136  53.558 -50.170  1.00  0.00     0.125 HD
ENDBRANCH   7  27
TORSDOF 3
ENDMDL
MODEL 9
REMARK VINA RESULT:      -7.5      2.072      3.306
REMARK  3 active torsions:
REMARK  status: ('A' for Active; 'I' for Inactive)
REMARK    1  A    between atoms: C_2  and  C_3 
REMARK    2  A    between atoms: C_9  and  N_10 
REMARK    3  A    between atoms: C_12  and  C_13 
ROOT
HETATM    1  C   UNL     1     -41.332  55.055 -53.228  1.00  0.00    -0.006 A 
HETATM    2  C   UNL     1     -41.442  56.271 -52.476  1.00  0.00     0.063 A 
HETATM    3  C   UNL     1     -41.976  57.386 -53.130  1.00  0.00     0.165 A 
HETATM    4  N   UNL     1     -42.151  58.556 -52.536  1.00  0.00    -0.222 NA
HETATM    5  C   UNL     1     -41.791  58.662 -51.261  1.00  0.00     0.237 A 
HETATM    6  N   UNL     1     -41.250  57.697 -50.523  1.00  0.00    -0.229 NA
HETATM    7  C   UNL     1     -41.071  56.522 -51.136  1.00  0.00     0.117 A 
HETATM    8  N   UNL     1     -42.344  57.351 -54.407  1.00  0.00    -0.228 NA
HETATM    9  C   UNL     1     -42.214  56.223 -55.137  1.00  0.00     0.070 A 
HETATM   10  C   UNL     1     -41.728  55.059 -54.572  1.00  0.00     0.046 A 
ENDROOT
BRANCH   9  11
HETATM   11  C   UNL     1     -42.618  56.328 -56.554  1.00  0.00    -0.004 A 
HETATM   12  C   UNL     1     -43.288  55.277 -57.213  1.00  0.00     0.053 A 
HETATM   13  C   UNL     1     -43.621  55.430 -58.545  1.00  0.00     0.106 A 
HETATM   14  C   UNL     1     -43.321  56.572 -59.244  1.00  0.00     0.105 A 
HETATM   15  O   UNL     1     -44.256  54.503 -59.312  1.00  0.00    -0.323 OA
HETATM   16  O   UNL     1     -43.731  56.512 -60.539  1.00  0.00    -0.323 OA
HETATM   17  C   UNL     1     -42.667  57.627 -58.653  1.00  0.00     0.040 A 
HETATM   18  C   UNL     1     -44.305  55.190 -60.580  1.00  0.00     0.352 A 
HETATM   19  C   UNL     1     -42.314  57.496 -57.303  1.00  0.00     0.017 A 
ENDBRANCH   9  11
BRANCH   1  20
HETATM   20  C   UNL     1     -40.837  53.783 -52.677  1.00  0.00    -0.025 A 
HETATM   21  C   UNL     1     -39.979  52.958 -53.423  1.00  0.00     0.014 A 
HETATM   22  C   UNL     1     -39.493  51.760 -52.889  1.00  0.00     0.024 A 
HETATM   23  C   UNL     1     -39.851  51.384 -51.598  1.00  0.00     0.034 A 
HETATM   24  C   UNL     1     -40.691  52.193 -50.836  1.00  0.00     0.024 A 
HETATM   25 CL   UNL     1     -39.252  49.912 -50.939  1.00  0.00    -0.084 Cl
HETATM   26  C   UNL     1     -41.180  53.386 -51.373  1.00  0.00     0.014 A 
ENDBRANCH   1  20
BRANCH   7  27
HETATM   27  N   UNL     1     -40.509  55.557 -50.302  1.00  0.00    -0.286 NA
HETATM   28  H   UNL     1     -41.271  55.046 -49.863  1.00  0.00     0.125 HD
HETATM   29  H   UNL     1     -39.877  55.955 -49.617  1.00  0.00     0.125 HD
ENDBRANCH   7  27
TORSDOF 3
ENDMDL
MODEL 10
REMARK VINA RESULT:      -7.1      3.250      3.755
REMARK  3 active torsions:
REMARK  status: ('A' for Active; 'I' for Inactive)
REMARK    1  A    between atoms: C_2  and  C_3 
REMARK    2  A    between atoms: C_9  and  N_10 
REMARK    3  A    between atoms: C_12  and  C_13 
ROOT
HETATM    1  C   UNL     1     -42.354  56.376 -55.206  1.00  0.00    -0.006 A 
HETATM    2  C   UNL     1     -43.150  57.133 -54.283  1.00  0.00     0.063 A 
HETATM    3  C   UNL     1     -43.664  58.355 -54.728  1.00  0.00     0.165 A 
HETATM    4  N   UNL     1     -44.432  59.130 -53.979  1.00  0.00    -0.222 NA
HETATM    5  C   UNL     1     -44.712  58.719 -52.747  1.00  0.00     0.237 A 
HETATM    6  N   UNL     1     -44.274  57.596 -52.184  1.00  0.00    -0.229 NA
HETATM    7  C   UNL     1     -43.493  56.825 -52.949  1.00  0.00     0.117 A 
HETATM    8  N   UNL     1     -43.413  58.830 -55.944  1.00  0.00    -0.228 NA
HETATM    9  C   UNL     1     -42.637  58.145 -56.811  1.00  0.00     0.070 A 
HETATM   10  C   UNL     1     -42.109  56.912 -56.477  1.00  0.00     0.046 A 
ENDROOT
BRANCH   9  11
HETATM   11  C   UNL     1     -42.398  58.802 -58.113  1.00  0.00    -0.004 A 
HETATM   12  C   UNL     1     -41.931  60.129 -58.199  1.00  0.00     0.053 A 
HETATM   13  C   UNL     1     -41.747  60.692 -59.447  1.00  0.00     0.106 A 
HETATM   14  C   UNL     1     -42.003  59.999 -60.604  1.00  0.00     0.105 A 
HETATM   15  O   UNL     1     -41.314  61.959 -59.686  1.00  0.00    -0.323 OA
HETATM   16  O   UNL     1     -41.762  60.739 -61.718  1.00  0.00    -0.323 OA
HETATM   17  C   UNL     1     -42.462  58.703 -60.579  1.00  0.00     0.040 A 
HETATM   18  C   UNL     1     -41.344  61.987 -61.129  1.00  0.00     0.352 A 
HETATM   19  C   UNL     1     -42.662  58.110 -59.325  1.00  0.00     0.017 A 
ENDBRANCH   9  11
BRANCH   1  20
HETATM   20  C   UNL     1     -41.779  55.054 -54.912  1.00  0.00    -0.025 A 
HETATM   21  C   UNL     1     -42.569  53.893 -54.973  1.00  0.00     0.014 A 
HETATM   22  C   UNL     1     -42.016  52.636 -54.713  1.00  0.00     0.024 A 
HETATM   23  C   UNL     1     -40.664  52.526 -54.403  1.00  0.00     0.034 A 
HETATM   24  C   UNL     1     -39.859  53.662 -54.349  1.00  0.00     0.024 A 
HETATM   25 CL   UNL     1     -39.981  50.979 -54.086  1.00  0.00    -0.084 Cl
HETATM   26  C   UNL     1     -40.415  54.919 -54.604  1.00  0.00     0.014 A 
ENDBRANCH   1  20
BRANCH   7  27
HETATM   27  N   UNL     1     -43.079  55.663 -52.298  1.00  0.00    -0.286 NA
HETATM   28  H   UNL     1     -43.672  54.901 -52.618  1.00  0.00     0.125 HD
HETATM   29  H   UNL     1     -43.095  55.755 -51.289  1.00  0.00     0.125 HD
ENDBRANCH   7  27
TORSDOF 3
ENDMDL
