MODEL 1
REMARK VINA RESULT:      -8.5      0.000      0.000
REMARK  2 active torsions:
REMARK  status: ('A' for Active; 'I' for Inactive)
REMARK    1  A    between atoms: C_5  and  C_6 
REMARK       I    between atoms: C_6  and  N_7 
REMARK    2  A    between atoms: N_7  and  N_8 
ROOT
HETATM    1  N   UNL     1     -41.791  56.231 -55.750  1.00  0.00    -0.282 N 
HETATM    2  C   UNL     1     -42.403  56.617 -56.864  1.00  0.00     0.127 C 
HETATM    3  C   UNL     1     -42.740  58.054 -57.045  1.00  0.00     0.015 A 
HETATM    4  C   UNL     1     -43.723  58.408 -57.993  1.00  0.00    -0.042 A 
HETATM    5  C   UNL     1     -44.097  59.746 -58.168  1.00  0.00     0.008 A 
HETATM    6  C   UNL     1     -43.470  60.748 -57.432  1.00  0.00     0.001 A 
HETATM    7  C   UNL     1     -42.470  60.418 -56.522  1.00  0.00     0.001 A 
HETATM    8  C   UNL     1     -42.105  59.084 -56.331  1.00  0.00     0.016 A 
HETATM    9  C   UNL     1     -44.393  57.321 -58.794  1.00  0.00     0.069 C 
HETATM   10  C   UNL     1     -43.425  56.156 -59.078  1.00  0.00     0.028 C 
HETATM   11  C   UNL     1     -44.213  54.939 -59.575  1.00  0.00     0.038 C 
HETATM   12  C   UNL     1     -42.349  56.524 -60.107  1.00  0.00     0.038 C 
HETATM   13  N   UNL     1     -42.733  55.753 -57.823  1.00  0.00    -0.366 N 
HETATM   14  H   UNL     1     -42.520  54.780 -57.688  1.00  0.00     0.162 HD
HETATM   15  H   UNL     1     -41.656  56.942 -55.020  1.00  0.00     0.188 HD
ENDROOT
BRANCH   1  16
HETATM   16  N   UNL     1     -41.340  55.019 -55.431  1.00  0.00    -0.264 N 
HETATM   17  C   UNL     1     -41.254  54.765 -54.069  1.00  0.00     0.270 C 
HETATM   18  O   UNL     1     -41.625  55.608 -53.255  1.00  0.00    -0.266 OA
HETATM   19  H   UNL     1     -41.102  54.324 -56.127  1.00  0.00     0.190 HD
BRANCH  17  20
HETATM   20  C   UNL     1     -40.732  53.440 -53.647  1.00  0.00     0.033 A 
HETATM   21  C   UNL     1     -40.323  53.178 -52.334  1.00  0.00     0.017 A 
HETATM   22  C   UNL     1     -39.846  51.908 -51.994  1.00  0.00     0.007 A 
HETATM   23  C   UNL     1     -39.771  50.893 -52.956  1.00  0.00    -0.062 A 
HETATM   24  C   UNL     1     -39.301  49.516 -52.583  1.00  0.00     0.048 C 
HETATM   25  C   UNL     1     -40.209  51.155 -54.259  1.00  0.00     0.007 A 
HETATM   26  C   UNL     1     -40.686  52.420 -54.604  1.00  0.00     0.017 A 
ENDBRANCH  17  20
ENDBRANCH   1  16
TORSDOF 2
ENDMDL
MODEL 2
REMARK VINA RESULT:      -8.3      1.537      2.944
REMARK  2 active torsions:
REMARK  status: ('A' for Active; 'I' for Inactive)
REMARK    1  A    between atoms: C_5  and  C_6 
REMARK       I    between atoms: C_6  and  N_7 
REMARK    2  A    between atoms: N_7  and  N_8 
ROOT
HETATM    1  N   UNL     1     -42.019  54.948 -56.247  1.00  0.00    -0.282 N 
HETATM    2  C   UNL     1     -42.585  56.146 -56.148  1.00  0.00     0.127 C 
HETATM    3  C   UNL     1     -42.759  56.970 -57.374  1.00  0.00     0.015 A 
HETATM    4  C   UNL     1     -42.966  58.358 -57.237  1.00  0.00    -0.042 A 
HETATM    5  C   UNL     1     -43.096  59.175 -58.367  1.00  0.00     0.008 A 
HETATM    6  C   UNL     1     -43.063  58.615 -59.640  1.00  0.00     0.001 A 
HETATM    7  C   UNL     1     -42.900  57.241 -59.790  1.00  0.00     0.001 A 
HETATM    8  C   UNL     1     -42.751  56.423 -58.668  1.00  0.00     0.016 A 
HETATM    9  C   UNL     1     -43.010  58.959 -55.855  1.00  0.00     0.069 C 
HETATM   10  C   UNL     1     -43.625  57.979 -54.836  1.00  0.00     0.028 C 
HETATM   11  C   UNL     1     -43.340  58.468 -53.412  1.00  0.00     0.038 C 
HETATM   12  C   UNL     1     -45.137  57.807 -55.026  1.00  0.00     0.038 C 
HETATM   13  N   UNL     1     -42.994  56.638 -54.979  1.00  0.00    -0.366 N 
HETATM   14  H   UNL     1     -42.858  56.085 -54.151  1.00  0.00     0.162 HD
HETATM   15  H   UNL     1     -41.646  54.682 -57.167  1.00  0.00     0.188 HD
ENDROOT
BRANCH   1  16
HETATM   16  N   UNL     1     -41.843  54.034 -55.294  1.00  0.00    -0.264 N 
HETATM   17  C   UNL     1     -40.555  53.960 -54.782  1.00  0.00     0.270 C 
HETATM   18  O   UNL     1     -39.685  54.735 -55.176  1.00  0.00    -0.266 OA
HETATM   19  H   UNL     1     -42.597  53.454 -54.948  1.00  0.00     0.190 HD
BRANCH  17  20
HETATM   20  C   UNL     1     -40.287  52.942 -53.735  1.00  0.00     0.033 A 
HETATM   21  C   UNL     1     -40.319  53.244 -52.369  1.00  0.00     0.017 A 
HETATM   22  C   UNL     1     -40.065  52.241 -51.428  1.00  0.00     0.007 A 
HETATM   23  C   UNL     1     -39.776  50.933 -51.839  1.00  0.00    -0.062 A 
HETATM   24  C   UNL     1     -39.546  49.845 -50.830  1.00  0.00     0.048 C 
HETATM   25  C   UNL     1     -39.774  50.634 -53.206  1.00  0.00     0.007 A 
HETATM   26  C   UNL     1     -40.027  51.631 -54.150  1.00  0.00     0.017 A 
ENDBRANCH  17  20
ENDBRANCH   1  16
TORSDOF 2
ENDMDL
MODEL 3
REMARK VINA RESULT:      -8.3      3.425      4.088
REMARK  2 active torsions:
REMARK  status: ('A' for Active; 'I' for Inactive)
REMARK    1  A    between atoms: C_5  and  C_6 
REMARK       I    between atoms: C_6  and  N_7 
REMARK    2  A    between atoms: N_7  and  N_8 
ROOT
HETATM    1  N   UNL     1     -44.001  55.947 -52.518  1.00  0.00    -0.282 N 
HETATM    2  C   UNL     1     -44.100  57.111 -53.150  1.00  0.00     0.127 C 
HETATM    3  C   UNL     1     -44.786  58.246 -52.477  1.00  0.00     0.015 A 
HETATM    4  C   UNL     1     -45.252  59.321 -53.262  1.00  0.00    -0.042 A 
HETATM    5  C   UNL     1     -45.937  60.391 -52.672  1.00  0.00     0.008 A 
HETATM    6  C   UNL     1     -46.129  60.422 -51.294  1.00  0.00     0.001 A 
HETATM    7  C   UNL     1     -45.639  59.388 -50.501  1.00  0.00     0.001 A 
HETATM    8  C   UNL     1     -44.971  58.309 -51.085  1.00  0.00     0.016 A 
HETATM    9  C   UNL     1     -45.033  59.288 -54.753  1.00  0.00     0.069 C 
HETATM   10  C   UNL     1     -43.710  58.583 -55.110  1.00  0.00     0.028 C 
HETATM   11  C   UNL     1     -43.687  58.258 -56.608  1.00  0.00     0.038 C 
HETATM   12  C   UNL     1     -42.480  59.424 -54.749  1.00  0.00     0.038 C 
HETATM   13  N   UNL     1     -43.609  57.292 -54.375  1.00  0.00    -0.366 N 
HETATM   14  H   UNL     1     -43.162  56.517 -54.833  1.00  0.00     0.162 HD
HETATM   15  H   UNL     1     -44.487  55.862 -51.615  1.00  0.00     0.188 HD
ENDROOT
BRANCH   1  16
HETATM   16  N   UNL     1     -43.367  54.843 -52.909  1.00  0.00    -0.264 N 
HETATM   17  C   UNL     1     -42.102  54.669 -52.364  1.00  0.00     0.270 C 
HETATM   18  O   UNL     1     -41.661  55.476 -51.547  1.00  0.00    -0.266 OA
HETATM   19  H   UNL     1     -43.783  54.167 -53.536  1.00  0.00     0.190 HD
BRANCH  17  20
HETATM   20  C   UNL     1     -41.330  53.472 -52.782  1.00  0.00     0.033 A 
HETATM   21  C   UNL     1     -40.456  52.803 -51.918  1.00  0.00     0.017 A 
HETATM   22  C   UNL     1     -39.761  51.674 -52.366  1.00  0.00     0.007 A 
HETATM   23  C   UNL     1     -39.930  51.206 -53.675  1.00  0.00    -0.062 A 
HETATM   24  C   UNL     1     -39.218  49.970 -54.145  1.00  0.00     0.048 C 
HETATM   25  C   UNL     1     -40.828  51.864 -54.524  1.00  0.00     0.007 A 
HETATM   26  C   UNL     1     -41.524  52.990 -54.082  1.00  0.00     0.017 A 
ENDBRANCH  17  20
ENDBRANCH   1  16
TORSDOF 2
ENDMDL
MODEL 4
REMARK VINA RESULT:      -8.3      3.882      8.829
REMARK  2 active torsions:
REMARK  status: ('A' for Active; 'I' for Inactive)
REMARK    1  A    between atoms: C_5  and  C_6 
REMARK       I    between atoms: C_6  and  N_7 
REMARK    2  A    between atoms: N_7  and  N_8 
ROOT
HETATM    1  N   UNL     1     -42.829  54.596 -52.613  1.00  0.00    -0.282 N 
HETATM    2  C   UNL     1     -41.846  54.052 -51.903  1.00  0.00     0.127 C 
HETATM    3  C   UNL     1     -41.022  52.975 -52.513  1.00  0.00     0.015 A 
HETATM    4  C   UNL     1     -40.277  52.127 -51.667  1.00  0.00    -0.042 A 
HETATM    5  C   UNL     1     -39.517  51.077 -52.198  1.00  0.00     0.008 A 
HETATM    6  C   UNL     1     -39.460  50.884 -53.575  1.00  0.00     0.001 A 
HETATM    7  C   UNL     1     -40.157  51.738 -54.425  1.00  0.00     0.001 A 
HETATM    8  C   UNL     1     -40.931  52.776 -53.901  1.00  0.00     0.016 A 
HETATM    9  C   UNL     1     -40.335  52.345 -50.177  1.00  0.00     0.069 C 
HETATM   10  C   UNL     1     -40.492  53.840 -49.834  1.00  0.00     0.028 C 
HETATM   11  C   UNL     1     -40.894  53.992 -48.363  1.00  0.00     0.038 C 
HETATM   12  C   UNL     1     -39.213  54.642 -50.101  1.00  0.00     0.038 C 
HETATM   13  N   UNL     1     -41.582  54.435 -50.655  1.00  0.00    -0.366 N 
HETATM   14  H   UNL     1     -42.154  55.151 -50.241  1.00  0.00     0.162 HD
HETATM   15  H   UNL     1     -43.028  54.180 -53.532  1.00  0.00     0.188 HD
ENDROOT
BRANCH   1  16
HETATM   16  N   UNL     1     -43.623  55.613 -52.283  1.00  0.00    -0.264 N 
HETATM   17  C   UNL     1     -43.487  56.745 -53.075  1.00  0.00     0.270 C 
HETATM   18  O   UNL     1     -42.712  56.745 -54.029  1.00  0.00    -0.266 OA
HETATM   19  H   UNL     1     -44.296  55.558 -51.529  1.00  0.00     0.190 HD
BRANCH  17  20
HETATM   20  C   UNL     1     -44.325  57.924 -52.742  1.00  0.00     0.033 A 
HETATM   21  C   UNL     1     -44.658  58.901 -53.687  1.00  0.00     0.017 A 
HETATM   22  C   UNL     1     -45.458  59.986 -53.317  1.00  0.00     0.007 A 
HETATM   23  C   UNL     1     -45.931  60.108 -52.004  1.00  0.00    -0.062 A 
HETATM   24  C   UNL     1     -46.826  61.249 -51.615  1.00  0.00     0.048 C 
HETATM   25  C   UNL     1     -45.618  59.112 -51.072  1.00  0.00     0.007 A 
HETATM   26  C   UNL     1     -44.820  58.026 -51.436  1.00  0.00     0.017 A 
ENDBRANCH  17  20
ENDBRANCH   1  16
TORSDOF 2
ENDMDL
MODEL 5
REMARK VINA RESULT:      -8.1      4.304      8.475
REMARK  2 active torsions:
REMARK  status: ('A' for Active; 'I' for Inactive)
REMARK    1  A    between atoms: C_5  and  C_6 
REMARK       I    between atoms: C_6  and  N_7 
REMARK    2  A    between atoms: N_7  and  N_8 
ROOT
HETATM    1  N   UNL     1     -40.427  54.754 -50.607  1.00  0.00    -0.282 N 
HETATM    2  C   UNL     1     -40.412  53.914 -51.636  1.00  0.00     0.127 C 
HETATM    3  C   UNL     1     -40.219  52.461 -51.383  1.00  0.00     0.015 A 
HETATM    4  C   UNL     1     -39.797  51.636 -52.446  1.00  0.00    -0.042 A 
HETATM    5  C   UNL     1     -39.566  50.270 -52.242  1.00  0.00     0.008 A 
HETATM    6  C   UNL     1     -39.793  49.704 -50.990  1.00  0.00     0.001 A 
HETATM    7  C   UNL     1     -40.248  50.498 -49.942  1.00  0.00     0.001 A 
HETATM    8  C   UNL     1     -40.462  51.864 -50.135  1.00  0.00     0.016 A 
HETATM    9  C   UNL     1     -39.563  52.251 -53.802  1.00  0.00     0.069 C 
HETATM   10  C   UNL     1     -40.535  53.418 -54.065  1.00  0.00     0.028 C 
HETATM   11  C   UNL     1     -40.052  54.230 -55.272  1.00  0.00     0.038 C 
HETATM   12  C   UNL     1     -41.972  52.941 -54.310  1.00  0.00     0.038 C 
HETATM   13  N   UNL     1     -40.555  54.334 -52.892  1.00  0.00    -0.366 N 
HETATM   14  H   UNL     1     -40.667  55.319 -53.059  1.00  0.00     0.162 HD
HETATM   15  H   UNL     1     -40.217  54.362 -49.680  1.00  0.00     0.188 HD
ENDROOT
BRANCH   1  16
HETATM   16  N   UNL     1     -40.661  56.065 -50.613  1.00  0.00    -0.264 N 
HETATM   17  C   UNL     1     -41.981  56.425 -50.843  1.00  0.00     0.270 C 
HETATM   18  O   UNL     1     -42.846  55.561 -50.978  1.00  0.00    -0.266 OA
HETATM   19  H   UNL     1     -39.936  56.750 -50.436  1.00  0.00     0.190 HD
BRANCH  17  20
HETATM   20  C   UNL     1     -42.303  57.874 -50.889  1.00  0.00     0.033 A 
HETATM   21  C   UNL     1     -43.539  58.356 -51.335  1.00  0.00     0.017 A 
HETATM   22  C   UNL     1     -43.787  59.732 -51.348  1.00  0.00     0.007 A 
HETATM   23  C   UNL     1     -42.808  60.637 -50.920  1.00  0.00    -0.062 A 
HETATM   24  C   UNL     1     -43.088  62.113 -50.893  1.00  0.00     0.048 C 
HETATM   25  C   UNL     1     -41.585  60.147 -50.448  1.00  0.00     0.007 A 
HETATM   26  C   UNL     1     -41.333  58.774 -50.432  1.00  0.00     0.017 A 
ENDBRANCH  17  20
ENDBRANCH   1  16
TORSDOF 2
ENDMDL
MODEL 6
REMARK VINA RESULT:      -8.0      3.443      4.422
REMARK  2 active torsions:
REMARK  status: ('A' for Active; 'I' for Inactive)
REMARK    1  A    between atoms: C_5  and  C_6 
REMARK       I    between atoms: C_6  and  N_7 
REMARK    2  A    between atoms: N_7  and  N_8 
ROOT
HETATM    1  N   UNL     1     -42.004  56.919 -52.289  1.00  0.00    -0.282 N 
HETATM    2  C   UNL     1     -42.797  57.876 -52.757  1.00  0.00     0.127 C 
HETATM    3  C   UNL     1     -42.967  59.127 -51.971  1.00  0.00     0.015 A 
HETATM    4  C   UNL     1     -44.083  59.948 -52.231  1.00  0.00    -0.042 A 
HETATM    5  C   UNL     1     -44.301  61.114 -51.487  1.00  0.00     0.008 A 
HETATM    6  C   UNL     1     -43.391  61.496 -50.506  1.00  0.00     0.001 A 
HETATM    7  C   UNL     1     -42.263  60.717 -50.265  1.00  0.00     0.001 A 
HETATM    8  C   UNL     1     -42.049  59.544 -50.992  1.00  0.00     0.016 A 
HETATM    9  C   UNL     1     -45.062  59.535 -53.301  1.00  0.00     0.069 C 
HETATM   10  C   UNL     1     -44.354  58.799 -54.456  1.00  0.00     0.028 C 
HETATM   11  C   UNL     1     -45.394  58.098 -55.336  1.00  0.00     0.038 C 
HETATM   12  C   UNL     1     -43.504  59.740 -55.318  1.00  0.00     0.038 C 
HETATM   13  N   UNL     1     -43.454  57.747 -53.909  1.00  0.00    -0.366 N 
HETATM   14  H   UNL     1     -43.350  56.892 -54.428  1.00  0.00     0.162 HD
HETATM   15  H   UNL     1     -41.608  57.057 -51.350  1.00  0.00     0.188 HD
ENDROOT
BRANCH   1  16
HETATM   16  N   UNL     1     -41.661  55.770 -52.869  1.00  0.00    -0.264 N 
HETATM   17  C   UNL     1     -41.113  54.822 -52.015  1.00  0.00     0.270 C 
HETATM   18  O   UNL     1     -41.016  55.053 -50.812  1.00  0.00    -0.266 OA
HETATM   19  H   UNL     1     -41.812  55.589 -53.853  1.00  0.00     0.190 HD
BRANCH  17  20
HETATM   20  C   UNL     1     -40.685  53.529 -52.606  1.00  0.00     0.033 A 
HETATM   21  C   UNL     1     -40.926  53.198 -53.944  1.00  0.00     0.017 A 
HETATM   22  C   UNL     1     -40.492  51.967 -54.447  1.00  0.00     0.007 A 
HETATM   23  C   UNL     1     -39.818  51.058 -53.623  1.00  0.00    -0.062 A 
HETATM   24  C   UNL     1     -39.312  49.754 -54.171  1.00  0.00     0.048 C 
HETATM   25  C   UNL     1     -39.555  51.408 -52.293  1.00  0.00     0.007 A 
HETATM   26  C   UNL     1     -39.985  52.635 -51.786  1.00  0.00     0.017 A 
ENDBRANCH  17  20
ENDBRANCH   1  16
TORSDOF 2
ENDMDL
MODEL 7
REMARK VINA RESULT:      -8.0      1.968      7.974
REMARK  2 active torsions:
REMARK  status: ('A' for Active; 'I' for Inactive)
REMARK    1  A    between atoms: C_5  and  C_6 
REMARK       I    between atoms: C_6  and  N_7 
REMARK    2  A    between atoms: N_7  and  N_8 
ROOT
HETATM    1  N   UNL     1     -42.650  53.956 -55.090  1.00  0.00    -0.282 N 
HETATM    2  C   UNL     1     -42.363  54.271 -53.831  1.00  0.00     0.127 C 
HETATM    3  C   UNL     1     -41.409  53.420 -53.070  1.00  0.00     0.015 A 
HETATM    4  C   UNL     1     -41.411  53.489 -51.662  1.00  0.00    -0.042 A 
HETATM    5  C   UNL     1     -40.556  52.677 -50.906  1.00  0.00     0.008 A 
HETATM    6  C   UNL     1     -39.664  51.819 -51.544  1.00  0.00     0.001 A 
HETATM    7  C   UNL     1     -39.622  51.770 -52.934  1.00  0.00     0.001 A 
HETATM    8  C   UNL     1     -40.485  52.564 -53.693  1.00  0.00     0.016 A 
HETATM    9  C   UNL     1     -42.372  54.426 -50.976  1.00  0.00     0.069 C 
HETATM   10  C   UNL     1     -42.613  55.696 -51.815  1.00  0.00     0.028 C 
HETATM   11  C   UNL     1     -43.834  56.447 -51.274  1.00  0.00     0.038 C 
HETATM   12  C   UNL     1     -41.399  56.632 -51.825  1.00  0.00     0.038 C 
HETATM   13  N   UNL     1     -42.911  55.323 -53.225  1.00  0.00    -0.366 N 
HETATM   14  H   UNL     1     -43.569  55.884 -53.738  1.00  0.00     0.162 HD
HETATM   15  H   UNL     1     -42.258  53.078 -55.453  1.00  0.00     0.188 HD
ENDROOT
BRANCH   1  16
HETATM   16  N   UNL     1     -43.409  54.623 -55.957  1.00  0.00    -0.264 N 
HETATM   17  C   UNL     1     -42.837  55.780 -56.469  1.00  0.00     0.270 C 
HETATM   18  O   UNL     1     -41.693  56.099 -56.152  1.00  0.00    -0.266 OA
HETATM   19  H   UNL     1     -44.324  54.299 -56.244  1.00  0.00     0.190 HD
BRANCH  17  20
HETATM   20  C   UNL     1     -43.644  56.584 -57.421  1.00  0.00     0.033 A 
HETATM   21  C   UNL     1     -44.353  57.725 -57.028  1.00  0.00     0.017 A 
HETATM   22  C   UNL     1     -45.090  58.447 -57.971  1.00  0.00     0.007 A 
HETATM   23  C   UNL     1     -45.128  58.039 -59.311  1.00  0.00    -0.062 A 
HETATM   24  C   UNL     1     -45.884  58.838 -60.334  1.00  0.00     0.048 C 
HETATM   25  C   UNL     1     -44.393  56.914 -59.702  1.00  0.00     0.007 A 
HETATM   26  C   UNL     1     -43.655  56.190 -58.764  1.00  0.00     0.017 A 
ENDBRANCH  17  20
ENDBRANCH   1  16
TORSDOF 2
ENDMDL
MODEL 8
REMARK VINA RESULT:      -7.9      3.908      7.901
REMARK  2 active torsions:
REMARK  status: ('A' for Active; 'I' for Inactive)
REMARK    1  A    between atoms: C_5  and  C_6 
REMARK       I    between atoms: C_6  and  N_7 
REMARK    2  A    between atoms: N_7  and  N_8 
ROOT
HETATM    1  N   UNL     1     -41.944  55.903 -51.629  1.00  0.00    -0.282 N 
HETATM    2  C   UNL     1     -41.800  55.222 -52.761  1.00  0.00     0.127 C 
HETATM    3  C   UNL     1     -41.018  53.957 -52.752  1.00  0.00     0.015 A 
HETATM    4  C   UNL     1     -40.521  53.456 -53.972  1.00  0.00    -0.042 A 
HETATM    5  C   UNL     1     -39.747  52.289 -54.003  1.00  0.00     0.008 A 
HETATM    6  C   UNL     1     -39.496  51.587 -52.828  1.00  0.00     0.001 A 
HETATM    7  C   UNL     1     -40.015  52.047 -51.621  1.00  0.00     0.001 A 
HETATM    8  C   UNL     1     -40.771  53.220 -51.581  1.00  0.00     0.016 A 
HETATM    9  C   UNL     1     -40.803  54.215 -55.244  1.00  0.00     0.069 C 
HETATM   10  C   UNL     1     -42.181  54.904 -55.193  1.00  0.00     0.028 C 
HETATM   11  C   UNL     1     -42.287  55.931 -56.325  1.00  0.00     0.038 C 
HETATM   12  C   UNL     1     -43.341  53.906 -55.296  1.00  0.00     0.038 C 
HETATM   13  N   UNL     1     -42.330  55.642 -53.909  1.00  0.00    -0.366 N 
HETATM   14  H   UNL     1     -42.842  56.507 -53.913  1.00  0.00     0.162 HD
HETATM   15  H   UNL     1     -41.427  55.561 -50.809  1.00  0.00     0.188 HD
ENDROOT
BRANCH   1  16
HETATM   16  N   UNL     1     -42.661  57.004 -51.411  1.00  0.00    -0.264 N 
HETATM   17  C   UNL     1     -41.919  58.168 -51.263  1.00  0.00     0.270 C 
HETATM   18  O   UNL     1     -40.695  58.143 -51.382  1.00  0.00    -0.266 OA
HETATM   19  H   UNL     1     -43.672  57.000 -51.381  1.00  0.00     0.190 HD
BRANCH  17  20
HETATM   20  C   UNL     1     -42.658  59.426 -50.990  1.00  0.00     0.033 A 
HETATM   21  C   UNL     1     -42.017  60.599 -50.574  1.00  0.00     0.017 A 
HETATM   22  C   UNL     1     -42.765  61.757 -50.339  1.00  0.00     0.007 A 
HETATM   23  C   UNL     1     -44.155  61.755 -50.515  1.00  0.00    -0.062 A 
HETATM   24  C   UNL     1     -44.955  63.009 -50.306  1.00  0.00     0.048 C 
HETATM   25  C   UNL     1     -44.785  60.587 -50.960  1.00  0.00     0.007 A 
HETATM   26  C   UNL     1     -44.043  59.429 -51.196  1.00  0.00     0.017 A 
ENDBRANCH  17  20
ENDBRANCH   1  16
TORSDOF 2
ENDMDL
MODEL 9
REMARK VINA RESULT:      -7.9      2.366      8.127
REMARK  2 active torsions:
REMARK  status: ('A' for Active; 'I' for Inactive)
REMARK    1  A    between atoms: C_5  and  C_6 
REMARK       I    between atoms: C_6  and  N_7 
REMARK    2  A    between atoms: N_7  and  N_8 
ROOT
HETATM    1  N   UNL     1     -41.795  55.917 -56.418  1.00  0.00    -0.282 N 
HETATM    2  C   UNL     1     -41.843  55.873 -55.091  1.00  0.00     0.127 C 
HETATM    3  C   UNL     1     -41.325  54.670 -54.386  1.00  0.00     0.015 A 
HETATM    4  C   UNL     1     -41.733  54.432 -53.057  1.00  0.00    -0.042 A 
HETATM    5  C   UNL     1     -41.299  53.291 -52.370  1.00  0.00     0.008 A 
HETATM    6  C   UNL     1     -40.425  52.399 -52.983  1.00  0.00     0.001 A 
HETATM    7  C   UNL     1     -39.981  52.641 -54.280  1.00  0.00     0.001 A 
HETATM    8  C   UNL     1     -40.425  53.768 -54.977  1.00  0.00     0.016 A 
HETATM    9  C   UNL     1     -42.673  55.407 -52.394  1.00  0.00     0.069 C 
HETATM   10  C   UNL     1     -42.425  56.847 -52.883  1.00  0.00     0.028 C 
HETATM   11  C   UNL     1     -43.598  57.742 -52.469  1.00  0.00     0.038 C 
HETATM   12  C   UNL     1     -41.116  57.434 -52.340  1.00  0.00     0.038 C 
HETATM   13  N   UNL     1     -42.351  56.871 -54.370  1.00  0.00    -0.366 N 
HETATM   14  H   UNL     1     -42.717  57.675 -54.852  1.00  0.00     0.162 HD
HETATM   15  H   UNL     1     -41.475  55.069 -56.903  1.00  0.00     0.188 HD
ENDROOT
BRANCH   1  16
HETATM   16  N   UNL     1     -42.131  56.922 -57.225  1.00  0.00    -0.264 N 
HETATM   17  C   UNL     1     -42.946  56.569 -58.292  1.00  0.00     0.270 C 
HETATM   18  O   UNL     1     -43.343  55.411 -58.414  1.00  0.00    -0.266 OA
HETATM   19  H   UNL     1     -41.838  57.876 -57.061  1.00  0.00     0.190 HD
BRANCH  17  20
HETATM   20  C   UNL     1     -43.335  57.639 -59.245  1.00  0.00     0.033 A 
HETATM   21  C   UNL     1     -44.671  57.931 -59.542  1.00  0.00     0.017 A 
HETATM   22  C   UNL     1     -44.978  58.956 -60.443  1.00  0.00     0.007 A 
HETATM   23  C   UNL     1     -43.957  59.695 -61.055  1.00  0.00    -0.062 A 
HETATM   24  C   UNL     1     -44.284  60.824 -61.990  1.00  0.00     0.048 C 
HETATM   25  C   UNL     1     -42.625  59.416 -60.732  1.00  0.00     0.007 A 
HETATM   26  C   UNL     1     -42.314  58.394 -59.833  1.00  0.00     0.017 A 
ENDBRANCH  17  20
ENDBRANCH   1  16
TORSDOF 2
ENDMDL
MODEL 10
REMARK VINA RESULT:      -7.7      2.211      2.455
REMARK  2 active torsions:
REMARK  status: ('A' for Active; 'I' for Inactive)
REMARK    1  A    between atoms: C_5  and  C_6 
REMARK       I    between atoms: C_6  and  N_7 
REMARK    2  A    between atoms: N_7  and  N_8 
ROOT
HETATM    1  N   UNL     1     -43.537  55.868 -53.654  1.00  0.00    -0.282 N 
HETATM    2  C   UNL     1     -43.734  56.737 -54.639  1.00  0.00     0.127 C 
HETATM    3  C   UNL     1     -44.317  58.068 -54.327  1.00  0.00     0.015 A 
HETATM    4  C   UNL     1     -44.900  58.818 -55.370  1.00  0.00    -0.042 A 
HETATM    5  C   UNL     1     -45.494  60.059 -55.112  1.00  0.00     0.008 A 
HETATM    6  C   UNL     1     -45.478  60.585 -53.823  1.00  0.00     0.001 A 
HETATM    7  C   UNL     1     -44.871  59.876 -52.791  1.00  0.00     0.001 A 
HETATM    8  C   UNL     1     -44.293  58.629 -53.039  1.00  0.00     0.016 A 
HETATM    9  C   UNL     1     -44.905  58.248 -56.766  1.00  0.00     0.069 C 
HETATM   10  C   UNL     1     -43.647  57.398 -57.030  1.00  0.00     0.028 C 
HETATM   11  C   UNL     1     -43.846  56.564 -58.300  1.00  0.00     0.038 C 
HETATM   12  C   UNL     1     -42.381  58.251 -57.171  1.00  0.00     0.038 C 
HETATM   13  N   UNL     1     -43.432  56.448 -55.905  1.00  0.00    -0.366 N 
HETATM   14  H   UNL     1     -43.055  55.539 -56.114  1.00  0.00     0.162 HD
HETATM   15  H   UNL     1     -43.882  56.132 -52.722  1.00  0.00     0.188 HD
ENDROOT
BRANCH   1  16
HETATM   16  N   UNL     1     -42.963  54.667 -53.711  1.00  0.00    -0.264 N 
HETATM   17  C   UNL     1     -41.740  54.571 -53.060  1.00  0.00     0.270 C 
HETATM   18  O   UNL     1     -41.285  55.535 -52.448  1.00  0.00    -0.266 OA
HETATM   19  H   UNL     1     -43.395  53.876 -54.170  1.00  0.00     0.190 HD
BRANCH  17  20
HETATM   20  C   UNL     1     -41.035  53.265 -53.109  1.00  0.00     0.033 A 
HETATM   21  C   UNL     1     -40.233  52.804 -52.059  1.00  0.00     0.017 A 
HETATM   22  C   UNL     1     -39.599  51.562 -52.159  1.00  0.00     0.007 A 
HETATM   23  C   UNL     1     -39.757  50.771 -53.304  1.00  0.00    -0.062 A 
HETATM   24  C   UNL     1     -39.112  49.417 -53.396  1.00  0.00     0.048 C 
HETATM   25  C   UNL     1     -40.583  51.226 -54.338  1.00  0.00     0.007 A 
HETATM   26  C   UNL     1     -41.219  52.465 -54.243  1.00  0.00     0.017 A 
ENDBRANCH  17  20
ENDBRANCH   1  16
TORSDOF 2
ENDMDL
