MODEL 1
REMARK VINA RESULT:      -8.5      0.000      0.000
REMARK  6 active torsions:
REMARK  status: ('A' for Active; 'I' for Inactive)
REMARK    1  A    between atoms: C_10  and  C_11 
REMARK       I    between atoms: C_11  and  N_12 
REMARK    2  A    between atoms: N_12  and  C_13 
REMARK    3  A    between atoms: C_13  and  C_14 
REMARK    4  A    between atoms: C_14  and  N_15 
REMARK    5  A    between atoms: C_14  and  C_19 
REMARK    6  A    between atoms: C_20  and  O_21 
ROOT
HETATM    1  C   UNL     1     -41.944  56.682 -54.568  1.00  0.00     0.276 C 
HETATM    2  N   UNL     1     -43.020  56.487 -55.424  1.00  0.00    -0.353 N 
HETATM    3  O   UNL     1     -41.550  57.816 -54.308  1.00  0.00    -0.265 OA
HETATM    4  H   UNL     1     -43.114  55.538 -55.784  1.00  0.00     0.162 HD
ENDROOT
BRANCH   2   5
HETATM    5  C   UNL     1     -43.550  57.620 -56.177  1.00  0.00     0.161 C 
BRANCH   5   6
HETATM    6  C   UNL     1     -43.096  57.593 -57.672  1.00  0.00     0.240 C 
BRANCH   6   7
HETATM    7  N   UNL     1     -42.877  59.051 -58.141  1.00  0.00    -0.069 N 
HETATM    8  H   UNL     1     -43.836  59.410 -58.246  1.00  0.00     0.279 HD
HETATM    9  C   UNL     1     -42.231  59.897 -57.081  1.00  0.00     0.270 C 
HETATM   10  C   UNL     1     -42.191  59.214 -59.461  1.00  0.00     0.270 C 
ENDBRANCH   6   7
BRANCH   6  11
HETATM   11  C   UNL     1     -43.958  56.745 -58.589  1.00  0.00     0.007 A 
HETATM   12  C   UNL     1     -45.224  57.219 -58.997  1.00  0.00     0.076 A 
HETATM   13  C   UNL     1     -46.034  56.446 -59.835  1.00  0.00     0.037 A 
HETATM   14  C   UNL     1     -45.586  55.211 -60.296  1.00  0.00     0.003 A 
HETATM   15  C   UNL     1     -44.336  54.736 -59.915  1.00  0.00     0.001 A 
HETATM   16  C   UNL     1     -43.527  55.494 -59.066  1.00  0.00     0.012 A 
BRANCH  12  17
HETATM   17  O   UNL     1     -45.622  58.427 -58.484  1.00  0.00    -0.355 OA
HETATM   18  C   UNL     1     -46.872  58.425 -57.793  1.00  0.00     0.210 C 
ENDBRANCH  12  17
ENDBRANCH   6  11
ENDBRANCH   5   6
ENDBRANCH   2   5
BRANCH   1  19
HETATM   19  C   UNL     1     -41.382  55.471 -54.021  1.00  0.00     0.150 A 
HETATM   20  O   UNL     1     -41.024  54.472 -54.889  1.00  0.00    -0.304 OA
HETATM   21  C   UNL     1     -40.618  53.414 -54.136  1.00  0.00     0.087 A 
HETATM   22  C   UNL     1     -40.217  52.177 -54.632  1.00  0.00     0.045 A 
HETATM   23  C   UNL     1     -40.668  53.733 -52.788  1.00  0.00     0.007 A 
HETATM   24  C   UNL     1     -39.839  51.195 -53.696  1.00  0.00    -0.053 A 
HETATM   25  C   UNL     1     -39.880  51.476 -52.312  1.00  0.00    -0.055 A 
HETATM   26  C   UNL     1     -39.438  49.834 -54.203  1.00  0.00     0.049 C 
HETATM   27  C   UNL     1     -39.470  50.447 -51.291  1.00  0.00     0.049 C 
HETATM   28  C   UNL     1     -40.280  52.751 -51.858  1.00  0.00     0.022 A 
HETATM   29  C   UNL     1     -41.150  55.074 -52.711  1.00  0.00    -0.009 A 
HETATM   30  C   UNL     1     -41.377  55.871 -51.478  1.00  0.00     0.052 C 
ENDBRANCH   1  19
TORSDOF 6
ENDMDL
MODEL 2
REMARK VINA RESULT:      -8.0      1.951      2.735
REMARK  6 active torsions:
REMARK  status: ('A' for Active; 'I' for Inactive)
REMARK    1  A    between atoms: C_10  and  C_11 
REMARK       I    between atoms: C_11  and  N_12 
REMARK    2  A    between atoms: N_12  and  C_13 
REMARK    3  A    between atoms: C_13  and  C_14 
REMARK    4  A    between atoms: C_14  and  N_15 
REMARK    5  A    between atoms: C_14  and  C_19 
REMARK    6  A    between atoms: C_20  and  O_21 
ROOT
HETATM    1  C   UNL     1     -41.433  56.757 -52.923  1.00  0.00     0.276 C 
HETATM    2  N   UNL     1     -41.606  57.068 -54.265  1.00  0.00    -0.353 N 
HETATM    3  O   UNL     1     -41.694  57.582 -52.051  1.00  0.00    -0.265 OA
HETATM    4  H   UNL     1     -41.132  56.441 -54.914  1.00  0.00     0.162 HD
ENDROOT
BRANCH   2   5
HETATM    5  C   UNL     1     -41.901  58.446 -54.648  1.00  0.00     0.161 C 
BRANCH   5   6
HETATM    6  C   UNL     1     -43.098  58.531 -55.648  1.00  0.00     0.240 C 
BRANCH   6   7
HETATM    7  N   UNL     1     -44.390  58.129 -54.897  1.00  0.00    -0.069 N 
HETATM    8  H   UNL     1     -44.232  57.136 -54.674  1.00  0.00     0.279 HD
HETATM    9  C   UNL     1     -44.521  58.834 -53.576  1.00  0.00     0.270 C 
HETATM   10  C   UNL     1     -45.657  58.214 -55.687  1.00  0.00     0.270 C 
ENDBRANCH   6   7
BRANCH   6  11
HETATM   11  C   UNL     1     -42.880  57.825 -56.973  1.00  0.00     0.007 A 
HETATM   12  C   UNL     1     -43.087  56.430 -57.067  1.00  0.00     0.076 A 
HETATM   13  C   UNL     1     -42.881  55.763 -58.278  1.00  0.00     0.037 A 
HETATM   14  C   UNL     1     -42.494  56.474 -59.412  1.00  0.00     0.003 A 
HETATM   15  C   UNL     1     -42.300  57.849 -59.339  1.00  0.00     0.001 A 
HETATM   16  C   UNL     1     -42.488  58.521 -58.131  1.00  0.00     0.012 A 
BRANCH  12  17
HETATM   17  O   UNL     1     -43.435  55.782 -55.910  1.00  0.00    -0.355 OA
HETATM   18  C   UNL     1     -43.243  54.367 -55.911  1.00  0.00     0.210 C 
ENDBRANCH  12  17
ENDBRANCH   6  11
ENDBRANCH   5   6
ENDBRANCH   2   5
BRANCH   1  19
HETATM   19  C   UNL     1     -40.963  55.416 -52.670  1.00  0.00     0.150 A 
HETATM   20  O   UNL     1     -40.682  54.614 -53.746  1.00  0.00    -0.304 OA
HETATM   21  C   UNL     1     -40.356  53.386 -53.255  1.00  0.00     0.087 A 
HETATM   22  C   UNL     1     -40.050  52.267 -54.023  1.00  0.00     0.045 A 
HETATM   23  C   UNL     1     -40.381  53.398 -51.870  1.00  0.00     0.007 A 
HETATM   24  C   UNL     1     -39.747  51.075 -53.337  1.00  0.00    -0.053 A 
HETATM   25  C   UNL     1     -39.764  51.041 -51.924  1.00  0.00    -0.055 A 
HETATM   26  C   UNL     1     -39.450  49.837 -54.142  1.00  0.00     0.049 C 
HETATM   27  C   UNL     1     -39.433  49.782 -51.166  1.00  0.00     0.049 C 
HETATM   28  C   UNL     1     -40.067  52.207 -51.190  1.00  0.00     0.022 A 
HETATM   29  C   UNL     1     -40.761  54.720 -51.487  1.00  0.00    -0.009 A 
HETATM   30  C   UNL     1     -40.926  55.234 -50.103  1.00  0.00     0.052 C 
ENDBRANCH   1  19
TORSDOF 6
ENDMDL
MODEL 3
REMARK VINA RESULT:      -8.0      1.756      2.565
REMARK  6 active torsions:
REMARK  status: ('A' for Active; 'I' for Inactive)
REMARK    1  A    between atoms: C_10  and  C_11 
REMARK       I    between atoms: C_11  and  N_12 
REMARK    2  A    between atoms: N_12  and  C_13 
REMARK    3  A    between atoms: C_13  and  C_14 
REMARK    4  A    between atoms: C_14  and  N_15 
REMARK    5  A    between atoms: C_14  and  C_19 
REMARK    6  A    between atoms: C_20  and  O_21 
ROOT
HETATM    1  C   UNL     1     -42.250  56.612 -53.210  1.00  0.00     0.276 C 
HETATM    2  N   UNL     1     -43.128  56.583 -54.286  1.00  0.00    -0.353 N 
HETATM    3  O   UNL     1     -42.099  57.640 -52.554  1.00  0.00    -0.265 OA
HETATM    4  H   UNL     1     -43.003  55.795 -54.919  1.00  0.00     0.162 HD
ENDROOT
BRANCH   2   5
HETATM    5  C   UNL     1     -43.715  57.831 -54.764  1.00  0.00     0.161 C 
BRANCH   5   6
HETATM    6  C   UNL     1     -42.756  58.595 -55.733  1.00  0.00     0.240 C 
BRANCH   6   7
HETATM    7  N   UNL     1     -43.009  60.113 -55.573  1.00  0.00    -0.069 N 
HETATM    8  H   UNL     1     -42.409  60.529 -56.298  1.00  0.00     0.279 HD
HETATM    9  C   UNL     1     -44.418  60.493 -55.931  1.00  0.00     0.270 C 
HETATM   10  C   UNL     1     -42.603  60.707 -54.261  1.00  0.00     0.270 C 
ENDBRANCH   6   7
BRANCH   6  11
HETATM   11  C   UNL     1     -42.754  58.091 -57.164  1.00  0.00     0.007 A 
HETATM   12  C   UNL     1     -41.958  58.739 -58.134  1.00  0.00     0.076 A 
HETATM   13  C   UNL     1     -41.952  58.293 -59.459  1.00  0.00     0.037 A 
HETATM   14  C   UNL     1     -42.713  57.187 -59.829  1.00  0.00     0.003 A 
HETATM   15  C   UNL     1     -43.491  56.529 -58.882  1.00  0.00     0.001 A 
HETATM   16  C   UNL     1     -43.516  56.977 -57.561  1.00  0.00     0.012 A 
BRANCH  12  17
HETATM   17  O   UNL     1     -41.256  59.841 -57.716  1.00  0.00    -0.355 OA
HETATM   18  C   UNL     1     -41.345  60.989 -58.561  1.00  0.00     0.210 C 
ENDBRANCH  12  17
ENDBRANCH   6  11
ENDBRANCH   5   6
ENDBRANCH   2   5
BRANCH   1  19
HETATM   19  C   UNL     1     -41.586  55.360 -52.939  1.00  0.00     0.150 A 
HETATM   20  O   UNL     1     -41.271  54.551 -54.000  1.00  0.00    -0.304 OA
HETATM   21  C   UNL     1     -40.749  53.403 -53.487  1.00  0.00     0.087 A 
HETATM   22  C   UNL     1     -40.345  52.298 -54.230  1.00  0.00     0.045 A 
HETATM   23  C   UNL     1     -40.681  53.479 -52.104  1.00  0.00     0.007 A 
HETATM   24  C   UNL     1     -39.837  51.192 -53.521  1.00  0.00    -0.053 A 
HETATM   25  C   UNL     1     -39.755  51.225 -52.110  1.00  0.00    -0.055 A 
HETATM   26  C   UNL     1     -39.429  49.966 -54.296  1.00  0.00     0.049 C 
HETATM   27  C   UNL     1     -39.204  50.061 -51.330  1.00  0.00     0.049 C 
HETATM   28  C   UNL     1     -40.164  52.376 -51.403  1.00  0.00     0.022 A 
HETATM   29  C   UNL     1     -41.212  54.756 -51.747  1.00  0.00    -0.009 A 
HETATM   30  C   UNL     1     -41.352  55.311 -50.377  1.00  0.00     0.052 C 
ENDBRANCH   1  19
TORSDOF 6
ENDMDL
MODEL 4
REMARK VINA RESULT:      -8.0      2.845      4.377
REMARK  6 active torsions:
REMARK  status: ('A' for Active; 'I' for Inactive)
REMARK    1  A    between atoms: C_10  and  C_11 
REMARK       I    between atoms: C_11  and  N_12 
REMARK    2  A    between atoms: N_12  and  C_13 
REMARK    3  A    between atoms: C_13  and  C_14 
REMARK    4  A    between atoms: C_14  and  N_15 
REMARK    5  A    between atoms: C_14  and  C_19 
REMARK    6  A    between atoms: C_20  and  O_21 
ROOT
HETATM    1  C   UNL     1     -41.290  56.841 -51.817  1.00  0.00     0.276 C 
HETATM    2  N   UNL     1     -40.949  57.804 -52.758  1.00  0.00    -0.353 N 
HETATM    3  O   UNL     1     -41.779  57.167 -50.738  1.00  0.00    -0.265 OA
HETATM    4  H   UNL     1     -40.326  57.480 -53.496  1.00  0.00     0.162 HD
ENDROOT
BRANCH   2   5
HETATM    5  C   UNL     1     -40.980  59.215 -52.381  1.00  0.00     0.161 C 
BRANCH   5   6
HETATM    6  C   UNL     1     -42.194  59.964 -53.021  1.00  0.00     0.240 C 
BRANCH   6   7
HETATM    7  N   UNL     1     -43.014  60.621 -51.885  1.00  0.00    -0.069 N 
HETATM    8  H   UNL     1     -43.763  59.936 -51.710  1.00  0.00     0.279 HD
HETATM    9  C   UNL     1     -42.234  60.717 -50.605  1.00  0.00     0.270 C 
HETATM   10  C   UNL     1     -43.669  61.923 -52.223  1.00  0.00     0.270 C 
ENDBRANCH   6   7
BRANCH   6  11
HETATM   11  C   UNL     1     -43.004  59.146 -54.009  1.00  0.00     0.007 A 
HETATM   12  C   UNL     1     -42.703  59.212 -55.388  1.00  0.00     0.076 A 
HETATM   13  C   UNL     1     -43.446  58.473 -56.312  1.00  0.00     0.037 A 
HETATM   14  C   UNL     1     -44.476  57.642 -55.878  1.00  0.00     0.003 A 
HETATM   15  C   UNL     1     -44.776  57.555 -54.523  1.00  0.00     0.001 A 
HETATM   16  C   UNL     1     -44.050  58.302 -53.594  1.00  0.00     0.012 A 
BRANCH  12  17
HETATM   17  O   UNL     1     -41.699  60.072 -55.756  1.00  0.00    -0.355 OA
HETATM   18  C   UNL     1     -41.724  60.506 -57.117  1.00  0.00     0.210 C 
ENDBRANCH  12  17
ENDBRANCH   6  11
ENDBRANCH   5   6
ENDBRANCH   2   5
BRANCH   1  19
HETATM   19  C   UNL     1     -41.046  55.481 -52.231  1.00  0.00     0.150 A 
HETATM   20  O   UNL     1     -40.709  54.561 -51.272  1.00  0.00    -0.304 OA
HETATM   21  C   UNL     1     -40.438  53.393 -51.915  1.00  0.00     0.087 A 
HETATM   22  C   UNL     1     -40.009  52.218 -51.305  1.00  0.00     0.045 A 
HETATM   23  C   UNL     1     -40.638  53.535 -53.279  1.00  0.00     0.007 A 
HETATM   24  C   UNL     1     -39.766  51.108 -52.138  1.00  0.00    -0.053 A 
HETATM   25  C   UNL     1     -39.953  51.210 -53.535  1.00  0.00    -0.055 A 
HETATM   26  C   UNL     1     -39.263  49.834 -51.510  1.00  0.00     0.049 C 
HETATM   27  C   UNL     1     -39.712  50.034 -54.446  1.00  0.00     0.049 C 
HETATM   28  C   UNL     1     -40.404  52.420 -54.104  1.00  0.00     0.022 A 
HETATM   29  C   UNL     1     -41.047  54.887 -53.485  1.00  0.00    -0.009 A 
HETATM   30  C   UNL     1     -41.383  55.528 -54.782  1.00  0.00     0.052 C 
ENDBRANCH   1  19
TORSDOF 6
ENDMDL
MODEL 5
REMARK VINA RESULT:      -8.0      1.206      2.096
REMARK  6 active torsions:
REMARK  status: ('A' for Active; 'I' for Inactive)
REMARK    1  A    between atoms: C_10  and  C_11 
REMARK       I    between atoms: C_11  and  N_12 
REMARK    2  A    between atoms: N_12  and  C_13 
REMARK    3  A    between atoms: C_13  and  C_14 
REMARK    4  A    between atoms: C_14  and  N_15 
REMARK    5  A    between atoms: C_14  and  C_19 
REMARK    6  A    between atoms: C_20  and  O_21 
ROOT
HETATM    1  C   UNL     1     -41.891  56.664 -53.518  1.00  0.00     0.276 C 
HETATM    2  N   UNL     1     -43.070  56.584 -54.249  1.00  0.00    -0.353 N 
HETATM    3  O   UNL     1     -41.427  57.755 -53.198  1.00  0.00    -0.265 OA
HETATM    4  H   UNL     1     -43.242  55.680 -54.686  1.00  0.00     0.162 HD
ENDROOT
BRANCH   2   5
HETATM    5  C   UNL     1     -43.645  57.802 -54.813  1.00  0.00     0.161 C 
BRANCH   5   6
HETATM    6  C   UNL     1     -43.284  57.973 -56.324  1.00  0.00     0.240 C 
BRANCH   6   7
HETATM    7  N   UNL     1     -42.475  59.282 -56.485  1.00  0.00    -0.069 N 
HETATM    8  H   UNL     1     -41.513  58.993 -56.257  1.00  0.00     0.279 HD
HETATM    9  C   UNL     1     -42.439  59.755 -57.911  1.00  0.00     0.270 C 
HETATM   10  C   UNL     1     -42.840  60.394 -55.552  1.00  0.00     0.270 C 
ENDBRANCH   6   7
BRANCH   6  11
HETATM   11  C   UNL     1     -44.448  57.815 -57.284  1.00  0.00     0.007 A 
HETATM   12  C   UNL     1     -44.323  56.963 -58.403  1.00  0.00     0.076 A 
HETATM   13  C   UNL     1     -45.383  56.814 -59.303  1.00  0.00     0.037 A 
HETATM   14  C   UNL     1     -46.583  57.486 -59.087  1.00  0.00     0.003 A 
HETATM   15  C   UNL     1     -46.728  58.317 -57.983  1.00  0.00     0.001 A 
HETATM   16  C   UNL     1     -45.670  58.485 -57.088  1.00  0.00     0.012 A 
BRANCH  12  17
HETATM   17  O   UNL     1     -43.106  56.354 -58.578  1.00  0.00    -0.355 OA
HETATM   18  C   UNL     1     -42.505  56.529 -59.862  1.00  0.00     0.210 C 
ENDBRANCH  12  17
ENDBRANCH   6  11
ENDBRANCH   5   6
ENDBRANCH   2   5
BRANCH   1  19
HETATM   19  C   UNL     1     -41.311  55.390 -53.169  1.00  0.00     0.150 A 
HETATM   20  O   UNL     1     -41.037  54.503 -54.178  1.00  0.00    -0.304 OA
HETATM   21  C   UNL     1     -40.594  53.356 -53.594  1.00  0.00     0.087 A 
HETATM   22  C   UNL     1     -40.254  52.188 -54.269  1.00  0.00     0.045 A 
HETATM   23  C   UNL     1     -40.539  53.505 -52.217  1.00  0.00     0.007 A 
HETATM   24  C   UNL     1     -39.825  51.093 -53.492  1.00  0.00    -0.053 A 
HETATM   25  C   UNL     1     -39.757  51.201 -52.084  1.00  0.00    -0.055 A 
HETATM   26  C   UNL     1     -39.487  49.803 -54.191  1.00  0.00     0.049 C 
HETATM   27  C   UNL     1     -39.292  50.049 -51.232  1.00  0.00     0.049 C 
HETATM   28  C   UNL     1     -40.101  52.413 -51.448  1.00  0.00     0.022 A 
HETATM   29  C   UNL     1     -40.991  54.831 -51.939  1.00  0.00    -0.009 A 
HETATM   30  C   UNL     1     -41.112  55.470 -50.604  1.00  0.00     0.052 C 
ENDBRANCH   1  19
TORSDOF 6
ENDMDL
MODEL 6
REMARK VINA RESULT:      -7.8      2.594      4.462
REMARK  6 active torsions:
REMARK  status: ('A' for Active; 'I' for Inactive)
REMARK    1  A    between atoms: C_10  and  C_11 
REMARK       I    between atoms: C_11  and  N_12 
REMARK    2  A    between atoms: N_12  and  C_13 
REMARK    3  A    between atoms: C_13  and  C_14 
REMARK    4  A    between atoms: C_14  and  N_15 
REMARK    5  A    between atoms: C_14  and  C_19 
REMARK    6  A    between atoms: C_20  and  O_21 
ROOT
HETATM    1  C   UNL     1     -41.452  56.876 -53.468  1.00  0.00     0.276 C 
HETATM    2  N   UNL     1     -42.468  56.933 -54.414  1.00  0.00    -0.353 N 
HETATM    3  O   UNL     1     -41.022  57.903 -52.951  1.00  0.00    -0.265 OA
HETATM    4  H   UNL     1     -42.583  56.088 -54.970  1.00  0.00     0.162 HD
ENDROOT
BRANCH   2   5
HETATM    5  C   UNL     1     -42.881  58.230 -54.943  1.00  0.00     0.161 C 
BRANCH   5   6
HETATM    6  C   UNL     1     -44.435  58.392 -54.946  1.00  0.00     0.240 C 
BRANCH   6   7
HETATM    7  N   UNL     1     -44.873  58.865 -56.353  1.00  0.00    -0.069 N 
HETATM    8  H   UNL     1     -45.045  59.871 -56.219  1.00  0.00     0.279 HD
HETATM    9  C   UNL     1     -43.759  58.765 -57.356  1.00  0.00     0.270 C 
HETATM   10  C   UNL     1     -46.136  58.260 -56.879  1.00  0.00     0.270 C 
ENDBRANCH   6   7
BRANCH   6  11
HETATM   11  C   UNL     1     -44.999  59.201 -53.792  1.00  0.00     0.007 A 
HETATM   12  C   UNL     1     -45.093  58.620 -52.508  1.00  0.00     0.076 A 
HETATM   13  C   UNL     1     -45.618  59.348 -51.437  1.00  0.00     0.037 A 
HETATM   14  C   UNL     1     -46.030  60.665 -51.622  1.00  0.00     0.003 A 
HETATM   15  C   UNL     1     -45.931  61.257 -52.876  1.00  0.00     0.001 A 
HETATM   16  C   UNL     1     -45.423  60.532 -53.955  1.00  0.00     0.012 A 
BRANCH  12  17
HETATM   17  O   UNL     1     -44.701  57.310 -52.397  1.00  0.00    -0.355 OA
HETATM   18  C   UNL     1     -44.283  56.896 -51.095  1.00  0.00     0.210 C 
ENDBRANCH  12  17
ENDBRANCH   6  11
ENDBRANCH   5   6
ENDBRANCH   2   5
BRANCH   1  19
HETATM   19  C   UNL     1     -40.996  55.544 -53.154  1.00  0.00     0.150 A 
HETATM   20  O   UNL     1     -40.731  54.687 -54.191  1.00  0.00    -0.304 OA
HETATM   21  C   UNL     1     -40.415  53.481 -53.644  1.00  0.00     0.087 A 
HETATM   22  C   UNL     1     -40.127  52.323 -54.358  1.00  0.00     0.045 A 
HETATM   23  C   UNL     1     -40.431  53.560 -52.260  1.00  0.00     0.007 A 
HETATM   24  C   UNL     1     -39.833  51.162 -53.617  1.00  0.00    -0.053 A 
HETATM   25  C   UNL     1     -39.842  51.196 -52.204  1.00  0.00    -0.055 A 
HETATM   26  C   UNL     1     -39.555  49.883 -54.363  1.00  0.00     0.049 C 
HETATM   27  C   UNL     1     -39.520  49.971 -51.388  1.00  0.00     0.049 C 
HETATM   28  C   UNL     1     -40.127  52.400 -51.525  1.00  0.00     0.022 A 
HETATM   29  C   UNL     1     -40.795  54.903 -51.939  1.00  0.00    -0.009 A 
HETATM   30  C   UNL     1     -40.946  55.486 -50.581  1.00  0.00     0.052 C 
ENDBRANCH   1  19
TORSDOF 6
ENDMDL
MODEL 7
REMARK VINA RESULT:      -7.7      1.779      2.885
REMARK  6 active torsions:
REMARK  status: ('A' for Active; 'I' for Inactive)
REMARK    1  A    between atoms: C_10  and  C_11 
REMARK       I    between atoms: C_11  and  N_12 
REMARK    2  A    between atoms: N_12  and  C_13 
REMARK    3  A    between atoms: C_13  and  C_14 
REMARK    4  A    between atoms: C_14  and  N_15 
REMARK    5  A    between atoms: C_14  and  C_19 
REMARK    6  A    between atoms: C_20  and  O_21 
ROOT
HETATM    1  C   UNL     1     -43.858  57.349 -54.729  1.00  0.00     0.276 C 
HETATM    2  N   UNL     1     -44.920  57.154 -55.603  1.00  0.00    -0.353 N 
HETATM    3  O   UNL     1     -43.620  58.465 -54.274  1.00  0.00    -0.265 OA
HETATM    4  H   UNL     1     -44.890  56.279 -56.124  1.00  0.00     0.162 HD
ENDROOT
BRANCH   2   5
HETATM    5  C   UNL     1     -45.626  58.313 -56.141  1.00  0.00     0.161 C 
BRANCH   5   6
HETATM    6  C   UNL     1     -45.093  58.718 -57.553  1.00  0.00     0.240 C 
BRANCH   6   7
HETATM    7  N   UNL     1     -45.528  60.175 -57.839  1.00  0.00    -0.069 N 
HETATM    8  H   UNL     1     -46.515  60.075 -58.118  1.00  0.00     0.279 HD
HETATM    9  C   UNL     1     -45.533  61.020 -56.597  1.00  0.00     0.270 C 
HETATM   10  C   UNL     1     -44.814  60.860 -58.961  1.00  0.00     0.270 C 
ENDBRANCH   6   7
BRANCH   6  11
HETATM   11  C   UNL     1     -45.395  57.727 -58.662  1.00  0.00     0.007 A 
HETATM   12  C   UNL     1     -44.334  57.128 -59.376  1.00  0.00     0.076 A 
HETATM   13  C   UNL     1     -44.596  56.221 -60.407  1.00  0.00     0.037 A 
HETATM   14  C   UNL     1     -45.909  55.879 -60.722  1.00  0.00     0.003 A 
HETATM   15  C   UNL     1     -46.964  56.450 -60.019  1.00  0.00     0.001 A 
HETATM   16  C   UNL     1     -46.713  57.369 -58.999  1.00  0.00     0.012 A 
BRANCH  12  17
HETATM   17  O   UNL     1     -43.066  57.529 -59.042  1.00  0.00    -0.355 OA
HETATM   18  C   UNL     1     -42.256  57.992 -60.124  1.00  0.00     0.210 C 
ENDBRANCH  12  17
ENDBRANCH   6  11
ENDBRANCH   5   6
ENDBRANCH   2   5
BRANCH   1  19
HETATM   19  C   UNL     1     -43.115  56.155 -54.406  1.00  0.00     0.150 A 
HETATM   20  O   UNL     1     -42.794  55.927 -53.094  1.00  0.00    -0.304 OA
HETATM   21  C   UNL     1     -42.020  54.808 -53.060  1.00  0.00     0.087 A 
HETATM   22  C   UNL     1     -41.442  54.261 -51.918  1.00  0.00     0.045 A 
HETATM   23  C   UNL     1     -41.873  54.284 -54.335  1.00  0.00     0.007 A 
HETATM   24  C   UNL     1     -40.661  53.100 -52.081  1.00  0.00    -0.053 A 
HETATM   25  C   UNL     1     -40.481  52.535 -53.363  1.00  0.00    -0.055 A 
HETATM   26  C   UNL     1     -39.991  52.508 -50.868  1.00  0.00     0.049 C 
HETATM   27  C   UNL     1     -39.660  51.288 -53.562  1.00  0.00     0.049 C 
HETATM   28  C   UNL     1     -41.100  53.119 -54.489  1.00  0.00     0.022 A 
HETATM   29  C   UNL     1     -42.596  55.150 -55.210  1.00  0.00    -0.009 A 
HETATM   30  C   UNL     1     -42.741  55.012 -56.681  1.00  0.00     0.052 C 
ENDBRANCH   1  19
TORSDOF 6
ENDMDL
MODEL 8
REMARK VINA RESULT:      -7.7      1.682      2.299
REMARK  6 active torsions:
REMARK  status: ('A' for Active; 'I' for Inactive)
REMARK    1  A    between atoms: C_10  and  C_11 
REMARK       I    between atoms: C_11  and  N_12 
REMARK    2  A    between atoms: N_12  and  C_13 
REMARK    3  A    between atoms: C_13  and  C_14 
REMARK    4  A    between atoms: C_14  and  N_15 
REMARK    5  A    between atoms: C_14  and  C_19 
REMARK    6  A    between atoms: C_20  and  O_21 
ROOT
HETATM    1  C   UNL     1     -43.820  57.548 -54.469  1.00  0.00     0.276 C 
HETATM    2  N   UNL     1     -44.738  57.158 -55.436  1.00  0.00    -0.353 N 
HETATM    3  O   UNL     1     -43.793  58.707 -54.065  1.00  0.00    -0.265 OA
HETATM    4  H   UNL     1     -44.528  56.273 -55.893  1.00  0.00     0.162 HD
ENDROOT
BRANCH   2   5
HETATM    5  C   UNL     1     -45.532  58.175 -56.119  1.00  0.00     0.161 C 
BRANCH   5   6
HETATM    6  C   UNL     1     -44.936  58.540 -57.517  1.00  0.00     0.240 C 
BRANCH   6   7
HETATM    7  N   UNL     1     -45.235  60.031 -57.800  1.00  0.00    -0.069 N 
HETATM    8  H   UNL     1     -46.242  60.032 -58.016  1.00  0.00     0.279 HD
HETATM    9  C   UNL     1     -45.074  60.885 -56.574  1.00  0.00     0.270 C 
HETATM   10  C   UNL     1     -44.526  60.627 -58.975  1.00  0.00     0.270 C 
ENDBRANCH   6   7
BRANCH   6  11
HETATM   11  C   UNL     1     -45.301  57.587 -58.640  1.00  0.00     0.007 A 
HETATM   12  C   UNL     1     -44.281  56.909 -59.344  1.00  0.00     0.076 A 
HETATM   13  C   UNL     1     -44.601  56.035 -60.387  1.00  0.00     0.037 A 
HETATM   14  C   UNL     1     -45.932  55.804 -60.724  1.00  0.00     0.003 A 
HETATM   15  C   UNL     1     -46.948  56.453 -60.032  1.00  0.00     0.001 A 
HETATM   16  C   UNL     1     -46.638  57.340 -59.000  1.00  0.00     0.012 A 
BRANCH  12  17
HETATM   17  O   UNL     1     -42.990  57.202 -58.987  1.00  0.00    -0.355 OA
HETATM   18  C   UNL     1     -42.061  57.321 -60.065  1.00  0.00     0.210 C 
ENDBRANCH  12  17
ENDBRANCH   6  11
ENDBRANCH   5   6
ENDBRANCH   2   5
BRANCH   1  19
HETATM   19  C   UNL     1     -42.960  56.492 -53.993  1.00  0.00     0.150 A 
HETATM   20  O   UNL     1     -42.625  55.487 -54.864  1.00  0.00    -0.304 OA
HETATM   21  C   UNL     1     -41.899  54.575 -54.161  1.00  0.00     0.087 A 
HETATM   22  C   UNL     1     -41.405  53.375 -54.666  1.00  0.00     0.045 A 
HETATM   23  C   UNL     1     -41.724  55.000 -52.854  1.00  0.00     0.007 A 
HETATM   24  C   UNL     1     -40.682  52.550 -53.783  1.00  0.00    -0.053 A 
HETATM   25  C   UNL     1     -40.484  52.943 -52.440  1.00  0.00    -0.055 A 
HETATM   26  C   UNL     1     -40.169  51.228 -54.291  1.00  0.00     0.049 C 
HETATM   27  C   UNL     1     -39.705  52.084 -51.479  1.00  0.00     0.049 C 
HETATM   28  C   UNL     1     -40.992  54.176 -51.980  1.00  0.00     0.022 A 
HETATM   29  C   UNL     1     -42.401  56.253 -52.746  1.00  0.00    -0.009 A 
HETATM   30  C   UNL     1     -42.501  57.111 -51.538  1.00  0.00     0.052 C 
ENDBRANCH   1  19
TORSDOF 6
ENDMDL
MODEL 9
REMARK VINA RESULT:      -7.6      3.410      4.781
REMARK  6 active torsions:
REMARK  status: ('A' for Active; 'I' for Inactive)
REMARK    1  A    between atoms: C_10  and  C_11 
REMARK       I    between atoms: C_11  and  N_12 
REMARK    2  A    between atoms: N_12  and  C_13 
REMARK    3  A    between atoms: C_13  and  C_14 
REMARK    4  A    between atoms: C_14  and  N_15 
REMARK    5  A    between atoms: C_14  and  C_19 
REMARK    6  A    between atoms: C_20  and  O_21 
ROOT
HETATM    1  C   UNL     1     -41.524  56.199 -50.821  1.00  0.00     0.276 C 
HETATM    2  N   UNL     1     -42.583  56.609 -51.621  1.00  0.00    -0.353 N 
HETATM    3  O   UNL     1     -41.097  56.927 -49.929  1.00  0.00    -0.265 OA
HETATM    4  H   UNL     1     -42.701  56.076 -52.481  1.00  0.00     0.162 HD
ENDROOT
BRANCH   2   5
HETATM    5  C   UNL     1     -43.053  57.988 -51.534  1.00  0.00     0.161 C 
BRANCH   5   6
HETATM    6  C   UNL     1     -42.609  58.836 -52.769  1.00  0.00     0.240 C 
BRANCH   6   7
HETATM    7  N   UNL     1     -41.323  59.609 -52.392  1.00  0.00    -0.069 N 
HETATM    8  H   UNL     1     -41.396  60.472 -52.949  1.00  0.00     0.279 HD
HETATM    9  C   UNL     1     -41.324  60.043 -50.954  1.00  0.00     0.270 C 
HETATM   10  C   UNL     1     -40.033  58.946 -52.760  1.00  0.00     0.270 C 
ENDBRANCH   6   7
BRANCH   6  11
HETATM   11  C   UNL     1     -43.704  59.678 -53.398  1.00  0.00     0.007 A 
HETATM   12  C   UNL     1     -43.489  60.282 -54.656  1.00  0.00     0.076 A 
HETATM   13  C   UNL     1     -44.484  61.068 -55.244  1.00  0.00     0.037 A 
HETATM   14  C   UNL     1     -45.709  61.242 -54.604  1.00  0.00     0.003 A 
HETATM   15  C   UNL     1     -45.942  60.642 -53.372  1.00  0.00     0.001 A 
HETATM   16  C   UNL     1     -44.948  59.868 -52.769  1.00  0.00     0.012 A 
BRANCH  12  17
HETATM   17  O   UNL     1     -42.252  60.101 -55.221  1.00  0.00    -0.355 OA
HETATM   18  C   UNL     1     -42.224  59.313 -56.411  1.00  0.00     0.210 C 
ENDBRANCH  12  17
ENDBRANCH   6  11
ENDBRANCH   5   6
ENDBRANCH   2   5
BRANCH   1  19
HETATM   19  C   UNL     1     -41.018  54.881 -51.119  1.00  0.00     0.150 A 
HETATM   20  O   UNL     1     -40.912  54.509 -52.434  1.00  0.00    -0.304 OA
HETATM   21  C   UNL     1     -40.511  53.208 -52.450  1.00  0.00     0.087 A 
HETATM   22  C   UNL     1     -40.331  52.434 -53.593  1.00  0.00     0.045 A 
HETATM   23  C   UNL     1     -40.314  52.747 -51.158  1.00  0.00     0.007 A 
HETATM   24  C   UNL     1     -39.921  51.099 -53.412  1.00  0.00    -0.053 A 
HETATM   25  C   UNL     1     -39.713  50.586 -52.112  1.00  0.00    -0.055 A 
HETATM   26  C   UNL     1     -39.755  50.226 -54.629  1.00  0.00     0.049 C 
HETATM   27  C   UNL     1     -39.264  49.165 -51.892  1.00  0.00     0.049 C 
HETATM   28  C   UNL     1     -39.896  51.415 -50.985  1.00  0.00     0.022 A 
HETATM   29  C   UNL     1     -40.630  53.837 -50.292  1.00  0.00    -0.009 A 
HETATM   30  C   UNL     1     -40.573  53.841 -48.807  1.00  0.00     0.052 C 
ENDBRANCH   1  19
TORSDOF 6
ENDMDL
MODEL 10
REMARK VINA RESULT:      -7.5      3.154      4.535
REMARK  6 active torsions:
REMARK  status: ('A' for Active; 'I' for Inactive)
REMARK    1  A    between atoms: C_10  and  C_11 
REMARK       I    between atoms: C_11  and  N_12 
REMARK    2  A    between atoms: N_12  and  C_13 
REMARK    3  A    between atoms: C_13  and  C_14 
REMARK    4  A    between atoms: C_14  and  N_15 
REMARK    5  A    between atoms: C_14  and  C_19 
REMARK    6  A    between atoms: C_20  and  O_21 
ROOT
HETATM    1  C   UNL     1     -41.772  57.003 -50.653  1.00  0.00     0.276 C 
HETATM    2  N   UNL     1     -43.094  57.191 -51.035  1.00  0.00    -0.353 N 
HETATM    3  O   UNL     1     -41.139  57.912 -50.124  1.00  0.00    -0.265 OA
HETATM    4  H   UNL     1     -43.454  56.495 -51.685  1.00  0.00     0.162 HD
ENDROOT
BRANCH   2   5
HETATM    5  C   UNL     1     -43.666  58.534 -50.995  1.00  0.00     0.161 C 
BRANCH   5   6
HETATM    6  C   UNL     1     -43.431  59.309 -52.332  1.00  0.00     0.240 C 
BRANCH   6   7
HETATM    7  N   UNL     1     -44.442  60.479 -52.400  1.00  0.00    -0.069 N 
HETATM    8  H   UNL     1     -44.097  61.129 -51.680  1.00  0.00     0.279 HD
HETATM    9  C   UNL     1     -44.361  61.223 -53.703  1.00  0.00     0.270 C 
HETATM   10  C   UNL     1     -45.857  60.138 -52.055  1.00  0.00     0.270 C 
ENDBRANCH   6   7
BRANCH   6  11
HETATM   11  C   UNL     1     -43.369  58.440 -53.575  1.00  0.00     0.007 A 
HETATM   12  C   UNL     1     -42.203  58.438 -54.371  1.00  0.00     0.076 A 
HETATM   13  C   UNL     1     -42.133  57.651 -55.524  1.00  0.00     0.037 A 
HETATM   14  C   UNL     1     -43.207  56.841 -55.884  1.00  0.00     0.003 A 
HETATM   15  C   UNL     1     -44.357  56.821 -55.104  1.00  0.00     0.001 A 
HETATM   16  C   UNL     1     -44.442  57.615 -53.959  1.00  0.00     0.012 A 
BRANCH  12  17
HETATM   17  O   UNL     1     -41.193  59.281 -53.983  1.00  0.00    -0.355 OA
HETATM   18  C   UNL     1     -40.123  58.673 -53.258  1.00  0.00     0.210 C 
ENDBRANCH  12  17
ENDBRANCH   6  11
ENDBRANCH   5   6
ENDBRANCH   2   5
BRANCH   1  19
HETATM   19  C   UNL     1     -41.253  55.681 -50.907  1.00  0.00     0.150 A 
HETATM   20  O   UNL     1     -41.102  55.283 -52.211  1.00  0.00    -0.304 OA
HETATM   21  C   UNL     1     -40.697  53.984 -52.188  1.00  0.00     0.087 A 
HETATM   22  C   UNL     1     -40.477  53.188 -53.309  1.00  0.00     0.045 A 
HETATM   23  C   UNL     1     -40.542  53.549 -50.881  1.00  0.00     0.007 A 
HETATM   24  C   UNL     1     -40.069  51.858 -53.088  1.00  0.00    -0.053 A 
HETATM   25  C   UNL     1     -39.903  51.372 -51.772  1.00  0.00    -0.055 A 
HETATM   26  C   UNL     1     -39.861  50.962 -54.282  1.00  0.00     0.049 C 
HETATM   27  C   UNL     1     -39.457  49.957 -51.510  1.00  0.00     0.049 C 
HETATM   28  C   UNL     1     -40.125  52.222 -50.668  1.00  0.00     0.022 A 
HETATM   29  C   UNL     1     -40.889  54.654 -50.047  1.00  0.00    -0.009 A 
HETATM   30  C   UNL     1     -40.881  54.688 -48.562  1.00  0.00     0.052 C 
ENDBRANCH   1  19
TORSDOF 6
ENDMDL
