MODEL 1
REMARK VINA RESULT:      -8.2      0.000      0.000
REMARK  7 active torsions:
REMARK  status: ('A' for Active; 'I' for Inactive)
REMARK    1  A    between atoms: C_3  and  O_4 
REMARK    2  A    between atoms: O_4  and  C_5 
REMARK    3  A    between atoms: C_5  and  C_6 
REMARK       I    between atoms: C_6  and  N_7 
REMARK    4  A    between atoms: N_7  and  C_8 
REMARK    5  A    between atoms: C_9  and  C_10 
REMARK       I    between atoms: C_10  and  N_11 
REMARK    6  A    between atoms: N_11  and  C_12 
REMARK    7  A    between atoms: C_12  and  C_13 
ROOT
HETATM    1  C   UNL     1     -41.356  56.681 -51.323  1.00  0.00     0.050 A 
HETATM    2  C   UNL     1     -42.192  57.080 -52.392  1.00  0.00     0.058 A 
HETATM    3  C   UNL     1     -42.511  58.441 -52.562  1.00  0.00     0.019 A 
HETATM    4  C   UNL     1     -42.046  59.396 -51.660  1.00  0.00     0.001 A 
HETATM    5  C   UNL     1     -41.255  59.002 -50.588  1.00  0.00     0.002 A 
HETATM    6  C   UNL     1     -40.908  57.659 -50.425  1.00  0.00     0.030 A 
ENDROOT
BRANCH   1   7
HETATM    7  N   UNL     1     -40.949  55.326 -51.218  1.00  0.00    -0.324 N 
HETATM    8  C   UNL     1     -41.286  54.418 -50.230  1.00  0.00     0.246 C 
HETATM    9  O   UNL     1     -42.172  54.581 -49.393  1.00  0.00    -0.271 OA
HETATM   10  H   UNL     1     -40.335  55.008 -51.972  1.00  0.00     0.169 HD
BRANCH   8  11
HETATM   11  C   UNL     1     -40.442  53.143 -50.258  1.00  0.00     0.278 C 
BRANCH  11  12
HETATM   12  O   UNL     1     -39.788  53.114 -51.521  1.00  0.00    -0.342 OA
BRANCH  12  13
HETATM   13  C   UNL     1     -39.782  51.943 -52.225  1.00  0.00     0.075 A 
HETATM   14  C   UNL     1     -40.054  52.059 -53.600  1.00  0.00    -0.029 A 
HETATM   15  C   UNL     1     -40.279  53.403 -54.239  1.00  0.00     0.051 C 
HETATM   16  C   UNL     1     -40.047  50.910 -54.404  1.00  0.00     0.009 A 
HETATM   17  C   UNL     1     -39.805  49.657 -53.846  1.00  0.00     0.001 A 
HETATM   18  C   UNL     1     -39.561  49.543 -52.480  1.00  0.00     0.003 A 
HETATM   19  C   UNL     1     -39.549  50.681 -51.670  1.00  0.00     0.037 A 
ENDBRANCH  12  13
ENDBRANCH  11  12
ENDBRANCH   8  11
ENDBRANCH   1   7
BRANCH   2  20
HETATM   20  C   UNL     1     -42.746  56.066 -53.342  1.00  0.00     0.254 C 
HETATM   21  N   UNL     1     -42.588  56.331 -54.682  1.00  0.00    -0.351 N 
HETATM   22  H   UNL     1     -42.153  57.185 -55.004  1.00  0.00     0.163 HD
HETATM   23  O   UNL     1     -43.347  55.079 -52.923  1.00  0.00    -0.268 OA
BRANCH  21  24
HETATM   24  C   UNL     1     -43.027  55.409 -55.704  1.00  0.00     0.187 C 
BRANCH  24  25
HETATM   25  C   UNL     1     -42.893  56.067 -57.028  1.00  0.00     0.070 A 
HETATM   26  O   UNL     1     -42.348  57.323 -57.043  1.00  0.00    -0.325 OA
HETATM   27  C   UNL     1     -42.333  57.733 -58.337  1.00  0.00     0.142 A 
HETATM   28  C   UNL     1     -42.859  56.764 -59.157  1.00  0.00     0.027 A 
HETATM   29  C   UNL     1     -43.221  55.687 -58.314  1.00  0.00     0.036 A 
ENDBRANCH  24  25
ENDBRANCH  21  24
ENDBRANCH   2  20
TORSDOF 7
ENDMDL
MODEL 2
REMARK VINA RESULT:      -7.9      1.579      1.820
REMARK  7 active torsions:
REMARK  status: ('A' for Active; 'I' for Inactive)
REMARK    1  A    between atoms: C_3  and  O_4 
REMARK    2  A    between atoms: O_4  and  C_5 
REMARK    3  A    between atoms: C_5  and  C_6 
REMARK       I    between atoms: C_6  and  N_7 
REMARK    4  A    between atoms: N_7  and  C_8 
REMARK    5  A    between atoms: C_9  and  C_10 
REMARK       I    between atoms: C_10  and  N_11 
REMARK    6  A    between atoms: N_11  and  C_12 
REMARK    7  A    between atoms: C_12  and  C_13 
ROOT
HETATM    1  C   UNL     1     -43.249  56.801 -52.241  1.00  0.00     0.050 A 
HETATM    2  C   UNL     1     -43.441  57.175 -53.591  1.00  0.00     0.058 A 
HETATM    3  C   UNL     1     -44.368  58.184 -53.913  1.00  0.00     0.019 A 
HETATM    4  C   UNL     1     -45.134  58.787 -52.918  1.00  0.00     0.001 A 
HETATM    5  C   UNL     1     -44.974  58.396 -51.594  1.00  0.00     0.002 A 
HETATM    6  C   UNL     1     -44.036  57.416 -51.259  1.00  0.00     0.030 A 
ENDROOT
BRANCH   1   7
HETATM    7  N   UNL     1     -42.236  55.863 -51.909  1.00  0.00    -0.324 N 
HETATM    8  C   UNL     1     -42.401  54.535 -51.558  1.00  0.00     0.246 C 
HETATM    9  O   UNL     1     -43.441  53.892 -51.687  1.00  0.00    -0.271 OA
HETATM   10  H   UNL     1     -41.286  56.237 -51.938  1.00  0.00     0.169 HD
BRANCH   8  11
HETATM   11  C   UNL     1     -41.138  53.896 -50.976  1.00  0.00     0.278 C 
BRANCH  11  12
HETATM   12  O   UNL     1     -40.276  53.622 -52.074  1.00  0.00    -0.342 OA
BRANCH  12  13
HETATM   13  C   UNL     1     -40.058  52.319 -52.422  1.00  0.00     0.075 A 
HETATM   14  C   UNL     1     -40.188  52.027 -53.792  1.00  0.00    -0.029 A 
HETATM   15  C   UNL     1     -40.495  53.107 -54.794  1.00  0.00     0.051 C 
HETATM   16  C   UNL     1     -39.961  50.718 -54.243  1.00  0.00     0.009 A 
HETATM   17  C   UNL     1     -39.639  49.705 -53.342  1.00  0.00     0.001 A 
HETATM   18  C   UNL     1     -39.535  49.994 -51.984  1.00  0.00     0.003 A 
HETATM   19  C   UNL     1     -39.744  51.296 -51.523  1.00  0.00     0.037 A 
ENDBRANCH  12  13
ENDBRANCH  11  12
ENDBRANCH   8  11
ENDBRANCH   1   7
BRANCH   2  20
HETATM   20  C   UNL     1     -42.668  56.504 -54.682  1.00  0.00     0.254 C 
HETATM   21  N   UNL     1     -43.404  55.917 -55.683  1.00  0.00    -0.351 N 
HETATM   22  H   UNL     1     -44.415  55.908 -55.659  1.00  0.00     0.163 HD
HETATM   23  O   UNL     1     -41.440  56.456 -54.639  1.00  0.00    -0.268 OA
BRANCH  21  24
HETATM   24  C   UNL     1     -42.783  55.283 -56.823  1.00  0.00     0.187 C 
BRANCH  24  25
HETATM   25  C   UNL     1     -43.187  56.012 -58.052  1.00  0.00     0.070 A 
HETATM   26  O   UNL     1     -43.410  57.356 -57.929  1.00  0.00    -0.325 OA
HETATM   27  C   UNL     1     -43.776  57.812 -59.155  1.00  0.00     0.142 A 
HETATM   28  C   UNL     1     -43.794  56.783 -60.066  1.00  0.00     0.027 A 
HETATM   29  C   UNL     1     -43.413  55.619 -59.356  1.00  0.00     0.036 A 
ENDBRANCH  24  25
ENDBRANCH  21  24
ENDBRANCH   2  20
TORSDOF 7
ENDMDL
MODEL 3
REMARK VINA RESULT:      -7.8      1.585      6.717
REMARK  7 active torsions:
REMARK  status: ('A' for Active; 'I' for Inactive)
REMARK    1  A    between atoms: C_3  and  O_4 
REMARK    2  A    between atoms: O_4  and  C_5 
REMARK    3  A    between atoms: C_5  and  C_6 
REMARK       I    between atoms: C_6  and  N_7 
REMARK    4  A    between atoms: N_7  and  C_8 
REMARK    5  A    between atoms: C_9  and  C_10 
REMARK       I    between atoms: C_10  and  N_11 
REMARK    6  A    between atoms: N_11  and  C_12 
REMARK    7  A    between atoms: C_12  and  C_13 
ROOT
HETATM    1  C   UNL     1     -41.186  52.854 -53.860  1.00  0.00     0.050 A 
HETATM    2  C   UNL     1     -40.972  53.249 -52.520  1.00  0.00     0.058 A 
HETATM    3  C   UNL     1     -40.046  52.549 -51.722  1.00  0.00     0.019 A 
HETATM    4  C   UNL     1     -39.370  51.441 -52.227  1.00  0.00     0.001 A 
HETATM    5  C   UNL     1     -39.605  51.028 -53.533  1.00  0.00     0.002 A 
HETATM    6  C   UNL     1     -40.500  51.731 -54.343  1.00  0.00     0.030 A 
ENDROOT
BRANCH   1   7
HETATM    7  N   UNL     1     -42.036  53.626 -54.694  1.00  0.00    -0.324 N 
HETATM    8  C   UNL     1     -41.824  54.915 -55.151  1.00  0.00     0.246 C 
HETATM    9  O   UNL     1     -40.758  55.523 -55.084  1.00  0.00    -0.271 OA
HETATM   10  H   UNL     1     -42.899  53.154 -54.973  1.00  0.00     0.169 HD
BRANCH   8  11
HETATM   11  C   UNL     1     -43.066  55.553 -55.775  1.00  0.00     0.278 C 
BRANCH  11  12
HETATM   12  O   UNL     1     -43.060  55.196 -57.153  1.00  0.00    -0.342 OA
BRANCH  12  13
HETATM   13  C   UNL     1     -42.995  56.193 -58.084  1.00  0.00     0.075 A 
HETATM   14  C   UNL     1     -43.582  55.900 -59.329  1.00  0.00    -0.029 A 
HETATM   15  C   UNL     1     -44.276  54.588 -59.574  1.00  0.00     0.051 C 
HETATM   16  C   UNL     1     -43.579  56.874 -60.339  1.00  0.00     0.009 A 
HETATM   17  C   UNL     1     -42.976  58.111 -60.127  1.00  0.00     0.001 A 
HETATM   18  C   UNL     1     -42.375  58.388 -58.902  1.00  0.00     0.003 A 
HETATM   19  C   UNL     1     -42.383  57.433 -57.882  1.00  0.00     0.037 A 
ENDBRANCH  12  13
ENDBRANCH  11  12
ENDBRANCH   8  11
ENDBRANCH   1   7
BRANCH   2  20
HETATM   20  C   UNL     1     -41.725  54.403 -51.939  1.00  0.00     0.254 C 
HETATM   21  N   UNL     1     -41.026  55.577 -51.785  1.00  0.00    -0.351 N 
HETATM   22  H   UNL     1     -40.044  55.641 -52.018  1.00  0.00     0.163 HD
HETATM   23  O   UNL     1     -42.895  54.271 -51.583  1.00  0.00    -0.268 OA
BRANCH  21  24
HETATM   24  C   UNL     1     -41.648  56.782 -51.287  1.00  0.00     0.187 C 
BRANCH  24  25
HETATM   25  C   UNL     1     -41.715  57.774 -52.389  1.00  0.00     0.070 A 
HETATM   26  O   UNL     1     -42.901  57.869 -53.065  1.00  0.00    -0.325 OA
HETATM   27  C   UNL     1     -42.737  58.815 -54.025  1.00  0.00     0.142 A 
HETATM   28  C   UNL     1     -41.464  59.331 -53.981  1.00  0.00     0.027 A 
HETATM   29  C   UNL     1     -40.802  58.660 -52.925  1.00  0.00     0.036 A 
ENDBRANCH  24  25
ENDBRANCH  21  24
ENDBRANCH   2  20
TORSDOF 7
ENDMDL
MODEL 4
REMARK VINA RESULT:      -7.7      1.775      5.178
REMARK  7 active torsions:
REMARK  status: ('A' for Active; 'I' for Inactive)
REMARK    1  A    between atoms: C_3  and  O_4 
REMARK    2  A    between atoms: O_4  and  C_5 
REMARK    3  A    between atoms: C_5  and  C_6 
REMARK       I    between atoms: C_6  and  N_7 
REMARK    4  A    between atoms: N_7  and  C_8 
REMARK    5  A    between atoms: C_9  and  C_10 
REMARK       I    between atoms: C_10  and  N_11 
REMARK    6  A    between atoms: N_11  and  C_12 
REMARK    7  A    between atoms: C_12  and  C_13 
ROOT
HETATM    1  C   UNL     1     -42.727  56.400 -56.909  1.00  0.00     0.050 A 
HETATM    2  C   UNL     1     -43.369  57.587 -56.489  1.00  0.00     0.058 A 
HETATM    3  C   UNL     1     -44.414  58.129 -57.261  1.00  0.00     0.019 A 
HETATM    4  C   UNL     1     -44.792  57.532 -58.462  1.00  0.00     0.001 A 
HETATM    5  C   UNL     1     -44.138  56.386 -58.896  1.00  0.00     0.002 A 
HETATM    6  C   UNL     1     -43.119  55.822 -58.124  1.00  0.00     0.030 A 
ENDROOT
BRANCH   1   7
HETATM    7  N   UNL     1     -41.750  55.796 -56.075  1.00  0.00    -0.324 N 
HETATM    8  C   UNL     1     -41.948  55.195 -54.844  1.00  0.00     0.246 C 
HETATM    9  O   UNL     1     -43.042  54.895 -54.371  1.00  0.00    -0.271 OA
HETATM   10  H   UNL     1     -40.798  55.823 -56.448  1.00  0.00     0.169 HD
BRANCH   8  11
HETATM   11  C   UNL     1     -40.649  54.917 -54.085  1.00  0.00     0.278 C 
BRANCH  11  12
HETATM   12  O   UNL     1     -40.978  54.020 -53.030  1.00  0.00    -0.342 OA
BRANCH  12  13
HETATM   13  C   UNL     1     -40.512  52.737 -53.097  1.00  0.00     0.075 A 
HETATM   14  C   UNL     1     -39.989  52.217 -51.899  1.00  0.00    -0.029 A 
HETATM   15  C   UNL     1     -40.002  53.023 -50.628  1.00  0.00     0.051 C 
HETATM   16  C   UNL     1     -39.508  50.900 -51.871  1.00  0.00     0.009 A 
HETATM   17  C   UNL     1     -39.517  50.118 -53.023  1.00  0.00     0.001 A 
HETATM   18  C   UNL     1     -40.013  50.644 -54.213  1.00  0.00     0.003 A 
HETATM   19  C   UNL     1     -40.510  51.949 -54.252  1.00  0.00     0.037 A 
ENDBRANCH  12  13
ENDBRANCH  11  12
ENDBRANCH   8  11
ENDBRANCH   1   7
BRANCH   2  20
HETATM   20  C   UNL     1     -42.945  58.276 -55.230  1.00  0.00     0.254 C 
HETATM   21  N   UNL     1     -43.803  58.182 -54.161  1.00  0.00    -0.351 N 
HETATM   22  H   UNL     1     -44.691  57.703 -54.236  1.00  0.00     0.163 HD
HETATM   23  O   UNL     1     -41.901  58.923 -55.194  1.00  0.00    -0.268 OA
BRANCH  21  24
HETATM   24  C   UNL     1     -43.490  58.754 -52.872  1.00  0.00     0.187 C 
BRANCH  24  25
HETATM   25  C   UNL     1     -43.000  57.675 -51.977  1.00  0.00     0.070 A 
HETATM   26  O   UNL     1     -43.883  56.675 -51.674  1.00  0.00    -0.325 OA
HETATM   27  C   UNL     1     -43.239  55.814 -50.844  1.00  0.00     0.142 A 
HETATM   28  C   UNL     1     -41.955  56.244 -50.606  1.00  0.00     0.027 A 
HETATM   29  C   UNL     1     -41.798  57.446 -51.338  1.00  0.00     0.036 A 
ENDBRANCH  24  25
ENDBRANCH  21  24
ENDBRANCH   2  20
TORSDOF 7
ENDMDL
MODEL 5
REMARK VINA RESULT:      -7.6      2.178      5.527
REMARK  7 active torsions:
REMARK  status: ('A' for Active; 'I' for Inactive)
REMARK    1  A    between atoms: C_3  and  O_4 
REMARK    2  A    between atoms: O_4  and  C_5 
REMARK    3  A    between atoms: C_5  and  C_6 
REMARK       I    between atoms: C_6  and  N_7 
REMARK    4  A    between atoms: N_7  and  C_8 
REMARK    5  A    between atoms: C_9  and  C_10 
REMARK       I    between atoms: C_10  and  N_11 
REMARK    6  A    between atoms: N_11  and  C_12 
REMARK    7  A    between atoms: C_12  and  C_13 
ROOT
HETATM    1  C   UNL     1     -43.130  56.387 -58.043  1.00  0.00     0.050 A 
HETATM    2  C   UNL     1     -44.134  57.342 -57.761  1.00  0.00     0.058 A 
HETATM    3  C   UNL     1     -45.121  57.626 -58.724  1.00  0.00     0.019 A 
HETATM    4  C   UNL     1     -45.093  57.008 -59.972  1.00  0.00     0.001 A 
HETATM    5  C   UNL     1     -44.086  56.096 -60.266  1.00  0.00     0.002 A 
HETATM    6  C   UNL     1     -43.118  55.785 -59.308  1.00  0.00     0.030 A 
ENDROOT
BRANCH   1   7
HETATM    7  N   UNL     1     -42.202  56.023 -57.033  1.00  0.00    -0.324 N 
HETATM    8  C   UNL     1     -42.346  55.039 -56.072  1.00  0.00     0.246 C 
HETATM    9  O   UNL     1     -43.216  54.170 -56.073  1.00  0.00    -0.271 OA
HETATM   10  H   UNL     1     -41.336  56.568 -57.036  1.00  0.00     0.169 HD
BRANCH   8  11
HETATM   11  C   UNL     1     -41.295  55.111 -54.962  1.00  0.00     0.278 C 
BRANCH  11  12
HETATM   12  O   UNL     1     -41.786  54.322 -53.884  1.00  0.00    -0.342 OA
BRANCH  12  13
HETATM   13  C   UNL     1     -41.010  53.297 -53.421  1.00  0.00     0.075 A 
HETATM   14  C   UNL     1     -40.686  53.350 -52.053  1.00  0.00    -0.029 A 
HETATM   15  C   UNL     1     -41.218  54.445 -51.168  1.00  0.00     0.051 C 
HETATM   16  C   UNL     1     -39.911  52.327 -51.487  1.00  0.00     0.009 A 
HETATM   17  C   UNL     1     -39.436  51.281 -52.274  1.00  0.00     0.001 A 
HETATM   18  C   UNL     1     -39.737  51.245 -53.633  1.00  0.00     0.003 A 
HETATM   19  C   UNL     1     -40.521  52.249 -54.207  1.00  0.00     0.037 A 
ENDBRANCH  12  13
ENDBRANCH  11  12
ENDBRANCH   8  11
ENDBRANCH   1   7
BRANCH   2  20
HETATM   20  C   UNL     1     -44.154  58.058 -56.447  1.00  0.00     0.254 C 
HETATM   21  N   UNL     1     -43.159  58.983 -56.238  1.00  0.00    -0.351 N 
HETATM   22  H   UNL     1     -42.432  59.141 -56.923  1.00  0.00     0.163 HD
HETATM   23  O   UNL     1     -44.999  57.781 -55.598  1.00  0.00    -0.268 OA
BRANCH  21  24
HETATM   24  C   UNL     1     -43.093  59.782 -55.037  1.00  0.00     0.187 C 
BRANCH  24  25
HETATM   25  C   UNL     1     -42.198  59.107 -54.063  1.00  0.00     0.070 A 
HETATM   26  O   UNL     1     -40.903  59.548 -54.006  1.00  0.00    -0.325 OA
HETATM   27  C   UNL     1     -40.269  58.794 -53.072  1.00  0.00     0.142 A 
HETATM   28  C   UNL     1     -41.132  57.873 -52.527  1.00  0.00     0.027 A 
HETATM   29  C   UNL     1     -42.379  58.074 -53.166  1.00  0.00     0.036 A 
ENDBRANCH  24  25
ENDBRANCH  21  24
ENDBRANCH   2  20
TORSDOF 7
ENDMDL
MODEL 6
REMARK VINA RESULT:      -7.5      2.150      7.201
REMARK  7 active torsions:
REMARK  status: ('A' for Active; 'I' for Inactive)
REMARK    1  A    between atoms: C_3  and  O_4 
REMARK    2  A    between atoms: O_4  and  C_5 
REMARK    3  A    between atoms: C_5  and  C_6 
REMARK       I    between atoms: C_6  and  N_7 
REMARK    4  A    between atoms: N_7  and  C_8 
REMARK    5  A    between atoms: C_9  and  C_10 
REMARK       I    between atoms: C_10  and  N_11 
REMARK    6  A    between atoms: N_11  and  C_12 
REMARK    7  A    between atoms: C_12  and  C_13 
ROOT
HETATM    1  C   UNL     1     -43.086  56.255 -53.150  1.00  0.00     0.050 A 
HETATM    2  C   UNL     1     -42.839  54.885 -52.904  1.00  0.00     0.058 A 
HETATM    3  C   UNL     1     -43.237  54.309 -51.682  1.00  0.00     0.019 A 
HETATM    4  C   UNL     1     -43.833  55.087 -50.692  1.00  0.00     0.001 A 
HETATM    5  C   UNL     1     -44.044  56.442 -50.916  1.00  0.00     0.002 A 
HETATM    6  C   UNL     1     -43.680  57.019 -52.136  1.00  0.00     0.030 A 
ENDROOT
BRANCH   1   7
HETATM    7  N   UNL     1     -42.784  56.807 -54.422  1.00  0.00    -0.324 N 
HETATM    8  C   UNL     1     -43.676  57.210 -55.399  1.00  0.00     0.246 C 
HETATM    9  O   UNL     1     -44.886  57.356 -55.237  1.00  0.00    -0.271 OA
HETATM   10  H   UNL     1     -41.784  56.905 -54.614  1.00  0.00     0.169 HD
BRANCH   8  11
HETATM   11  C   UNL     1     -43.018  57.476 -56.754  1.00  0.00     0.278 C 
BRANCH  11  12
HETATM   12  O   UNL     1     -44.065  57.808 -57.659  1.00  0.00    -0.342 OA
BRANCH  12  13
HETATM   13  C   UNL     1     -44.398  56.906 -58.630  1.00  0.00     0.075 A 
HETATM   14  C   UNL     1     -45.695  57.036 -59.160  1.00  0.00    -0.029 A 
HETATM   15  C   UNL     1     -46.616  58.137 -58.708  1.00  0.00     0.051 C 
HETATM   16  C   UNL     1     -46.115  56.165 -60.177  1.00  0.00     0.009 A 
HETATM   17  C   UNL     1     -45.270  55.160 -60.641  1.00  0.00     0.001 A 
HETATM   18  C   UNL     1     -43.997  55.019 -60.096  1.00  0.00     0.003 A 
HETATM   19  C   UNL     1     -43.559  55.889 -59.094  1.00  0.00     0.037 A 
ENDBRANCH  12  13
ENDBRANCH  11  12
ENDBRANCH   8  11
ENDBRANCH   1   7
BRANCH   2  20
HETATM   20  C   UNL     1     -42.153  54.041 -53.931  1.00  0.00     0.254 C 
HETATM   21  N   UNL     1     -40.866  53.652 -53.645  1.00  0.00    -0.351 N 
HETATM   22  H   UNL     1     -40.398  53.954 -52.801  1.00  0.00     0.163 HD
HETATM   23  O   UNL     1     -42.716  53.762 -54.988  1.00  0.00    -0.268 OA
BRANCH  21  24
HETATM   24  C   UNL     1     -40.110  52.791 -54.525  1.00  0.00     0.187 C 
BRANCH  24  25
HETATM   25  C   UNL     1     -39.881  51.493 -53.842  1.00  0.00     0.070 A 
HETATM   26  O   UNL     1     -39.715  51.529 -52.484  1.00  0.00    -0.325 OA
HETATM   27  C   UNL     1     -39.510  50.251 -52.075  1.00  0.00     0.142 A 
HETATM   28  C   UNL     1     -39.539  49.391 -53.147  1.00  0.00     0.027 A 
HETATM   29  C   UNL     1     -39.780  50.191 -54.289  1.00  0.00     0.036 A 
ENDBRANCH  24  25
ENDBRANCH  21  24
ENDBRANCH   2  20
TORSDOF 7
ENDMDL
MODEL 7
REMARK VINA RESULT:      -7.1      1.843      2.726
REMARK  7 active torsions:
REMARK  status: ('A' for Active; 'I' for Inactive)
REMARK    1  A    between atoms: C_3  and  O_4 
REMARK    2  A    between atoms: O_4  and  C_5 
REMARK    3  A    between atoms: C_5  and  C_6 
REMARK       I    between atoms: C_6  and  N_7 
REMARK    4  A    between atoms: N_7  and  C_8 
REMARK    5  A    between atoms: C_9  and  C_10 
REMARK       I    between atoms: C_10  and  N_11 
REMARK    6  A    between atoms: N_11  and  C_12 
REMARK    7  A    between atoms: C_12  and  C_13 
ROOT
HETATM    1  C   UNL     1     -43.759  57.613 -52.154  1.00  0.00     0.050 A 
HETATM    2  C   UNL     1     -43.781  57.851 -53.548  1.00  0.00     0.058 A 
HETATM    3  C   UNL     1     -44.584  58.882 -54.071  1.00  0.00     0.019 A 
HETATM    4  C   UNL     1     -45.396  59.642 -53.231  1.00  0.00     0.001 A 
HETATM    5  C   UNL     1     -45.405  59.387 -51.866  1.00  0.00     0.002 A 
HETATM    6  C   UNL     1     -44.590  58.386 -51.332  1.00  0.00     0.030 A 
ENDROOT
BRANCH   1   7
HETATM    7  N   UNL     1     -42.867  56.647 -51.620  1.00  0.00    -0.324 N 
HETATM    8  C   UNL     1     -41.671  56.877 -50.963  1.00  0.00     0.246 C 
HETATM    9  O   UNL     1     -41.291  57.969 -50.545  1.00  0.00    -0.271 OA
HETATM   10  H   UNL     1     -43.165  55.677 -51.749  1.00  0.00     0.169 HD
BRANCH   8  11
HETATM   11  C   UNL     1     -40.820  55.618 -50.785  1.00  0.00     0.278 C 
BRANCH  11  12
HETATM   12  O   UNL     1     -41.591  54.531 -51.284  1.00  0.00    -0.342 OA
BRANCH  12  13
HETATM   13  C   UNL     1     -41.011  53.679 -52.182  1.00  0.00     0.075 A 
HETATM   14  C   UNL     1     -40.358  52.564 -51.625  1.00  0.00    -0.029 A 
HETATM   15  C   UNL     1     -40.359  52.320 -50.140  1.00  0.00     0.051 C 
HETATM   16  C   UNL     1     -39.752  51.625 -52.474  1.00  0.00     0.009 A 
HETATM   17  C   UNL     1     -39.768  51.805 -53.854  1.00  0.00     0.001 A 
HETATM   18  C   UNL     1     -40.394  52.923 -54.400  1.00  0.00     0.003 A 
HETATM   19  C   UNL     1     -41.014  53.858 -53.568  1.00  0.00     0.037 A 
ENDBRANCH  12  13
ENDBRANCH  11  12
ENDBRANCH   8  11
ENDBRANCH   1   7
BRANCH   2  20
HETATM   20  C   UNL     1     -42.958  57.012 -54.474  1.00  0.00     0.254 C 
HETATM   21  N   UNL     1     -43.649  56.215 -55.355  1.00  0.00    -0.351 N 
HETATM   22  H   UNL     1     -44.659  56.171 -55.349  1.00  0.00     0.163 HD
HETATM   23  O   UNL     1     -41.731  57.019 -54.400  1.00  0.00    -0.268 OA
BRANCH  21  24
HETATM   24  C   UNL     1     -42.978  55.397 -56.340  1.00  0.00     0.187 C 
BRANCH  24  25
HETATM   25  C   UNL     1     -42.902  56.152 -57.616  1.00  0.00     0.070 A 
HETATM   26  O   UNL     1     -43.178  55.459 -58.762  1.00  0.00    -0.325 OA
HETATM   27  C   UNL     1     -43.038  56.328 -59.796  1.00  0.00     0.142 A 
HETATM   28  C   UNL     1     -42.674  57.571 -59.335  1.00  0.00     0.027 A 
HETATM   29  C   UNL     1     -42.586  57.460 -57.926  1.00  0.00     0.036 A 
ENDBRANCH  24  25
ENDBRANCH  21  24
ENDBRANCH   2  20
TORSDOF 7
ENDMDL
MODEL 8
REMARK VINA RESULT:      -7.1      2.146      7.034
REMARK  7 active torsions:
REMARK  status: ('A' for Active; 'I' for Inactive)
REMARK    1  A    between atoms: C_3  and  O_4 
REMARK    2  A    between atoms: O_4  and  C_5 
REMARK    3  A    between atoms: C_5  and  C_6 
REMARK       I    between atoms: C_6  and  N_7 
REMARK    4  A    between atoms: N_7  and  C_8 
REMARK    5  A    between atoms: C_9  and  C_10 
REMARK       I    between atoms: C_10  and  N_11 
REMARK    6  A    between atoms: N_11  and  C_12 
REMARK    7  A    between atoms: C_12  and  C_13 
ROOT
HETATM    1  C   UNL     1     -40.923  54.284 -53.953  1.00  0.00     0.050 A 
HETATM    2  C   UNL     1     -41.005  54.187 -52.545  1.00  0.00     0.058 A 
HETATM    3  C   UNL     1     -40.460  53.067 -51.887  1.00  0.00     0.019 A 
HETATM    4  C   UNL     1     -39.881  52.030 -52.615  1.00  0.00     0.001 A 
HETATM    5  C   UNL     1     -39.832  52.105 -54.001  1.00  0.00     0.002 A 
HETATM    6  C   UNL     1     -40.343  53.225 -54.663  1.00  0.00     0.030 A 
ENDROOT
BRANCH   1   7
HETATM    7  N   UNL     1     -41.374  55.463 -54.603  1.00  0.00    -0.324 N 
HETATM    8  C   UNL     1     -42.303  55.559 -55.624  1.00  0.00     0.246 C 
HETATM    9  O   UNL     1     -43.052  54.654 -55.987  1.00  0.00    -0.271 OA
HETATM   10  H   UNL     1     -40.946  56.326 -54.260  1.00  0.00     0.169 HD
BRANCH   8  11
HETATM   11  C   UNL     1     -42.335  56.935 -56.293  1.00  0.00     0.278 C 
BRANCH  11  12
HETATM   12  O   UNL     1     -42.731  56.723 -57.643  1.00  0.00    -0.342 OA
BRANCH  12  13
HETATM   13  C   UNL     1     -44.000  57.070 -58.012  1.00  0.00     0.075 A 
HETATM   14  C   UNL     1     -44.503  56.411 -59.149  1.00  0.00    -0.029 A 
HETATM   15  C   UNL     1     -43.697  55.359 -59.861  1.00  0.00     0.051 C 
HETATM   16  C   UNL     1     -45.806  56.690 -59.587  1.00  0.00     0.009 A 
HETATM   17  C   UNL     1     -46.589  57.633 -58.925  1.00  0.00     0.001 A 
HETATM   18  C   UNL     1     -46.078  58.300 -57.815  1.00  0.00     0.003 A 
HETATM   19  C   UNL     1     -44.788  58.021 -57.358  1.00  0.00     0.037 A 
ENDBRANCH  12  13
ENDBRANCH  11  12
ENDBRANCH   8  11
ENDBRANCH   1   7
BRANCH   2  20
HETATM   20  C   UNL     1     -41.669  55.263 -51.746  1.00  0.00     0.254 C 
HETATM   21  N   UNL     1     -43.033  55.170 -51.607  1.00  0.00    -0.351 N 
HETATM   22  H   UNL     1     -43.561  54.432 -52.054  1.00  0.00     0.163 HD
HETATM   23  O   UNL     1     -41.013  56.197 -51.288  1.00  0.00    -0.268 OA
BRANCH  21  24
HETATM   24  C   UNL     1     -43.791  56.112 -50.816  1.00  0.00     0.187 C 
BRANCH  24  25
HETATM   25  C   UNL     1     -44.280  57.196 -51.706  1.00  0.00     0.070 A 
HETATM   26  O   UNL     1     -44.056  57.044 -53.047  1.00  0.00    -0.325 OA
HETATM   27  C   UNL     1     -44.567  58.142 -53.662  1.00  0.00     0.142 A 
HETATM   28  C   UNL     1     -45.114  59.000 -52.739  1.00  0.00     0.027 A 
HETATM   29  C   UNL     1     -44.931  58.391 -51.474  1.00  0.00     0.036 A 
ENDBRANCH  24  25
ENDBRANCH  21  24
ENDBRANCH   2  20
TORSDOF 7
ENDMDL
MODEL 9
REMARK VINA RESULT:      -7.0      1.954      3.152
REMARK  7 active torsions:
REMARK  status: ('A' for Active; 'I' for Inactive)
REMARK    1  A    between atoms: C_3  and  O_4 
REMARK    2  A    between atoms: O_4  and  C_5 
REMARK    3  A    between atoms: C_5  and  C_6 
REMARK       I    between atoms: C_6  and  N_7 
REMARK    4  A    between atoms: N_7  and  C_8 
REMARK    5  A    between atoms: C_9  and  C_10 
REMARK       I    between atoms: C_10  and  N_11 
REMARK    6  A    between atoms: N_11  and  C_12 
REMARK    7  A    between atoms: C_12  and  C_13 
ROOT
HETATM    1  C   UNL     1     -43.429  58.697 -52.192  1.00  0.00     0.050 A 
HETATM    2  C   UNL     1     -42.953  59.752 -53.004  1.00  0.00     0.058 A 
HETATM    3  C   UNL     1     -43.238  61.087 -52.656  1.00  0.00     0.019 A 
HETATM    4  C   UNL     1     -44.024  61.377 -51.544  1.00  0.00     0.001 A 
HETATM    5  C   UNL     1     -44.524  60.341 -50.765  1.00  0.00     0.002 A 
HETATM    6  C   UNL     1     -44.224  59.014 -51.083  1.00  0.00     0.030 A 
ENDROOT
BRANCH   1   7
HETATM    7  N   UNL     1     -43.049  57.361 -52.483  1.00  0.00    -0.324 N 
HETATM    8  C   UNL     1     -43.693  56.464 -53.316  1.00  0.00     0.246 C 
HETATM    9  O   UNL     1     -44.586  56.751 -54.111  1.00  0.00    -0.271 OA
HETATM   10  H   UNL     1     -42.198  57.049 -52.008  1.00  0.00     0.169 HD
BRANCH   8  11
HETATM   11  C   UNL     1     -43.190  55.026 -53.172  1.00  0.00     0.278 C 
BRANCH  11  12
HETATM   12  O   UNL     1     -41.771  55.097 -53.087  1.00  0.00    -0.342 OA
BRANCH  12  13
HETATM   13  C   UNL     1     -41.087  53.989 -52.672  1.00  0.00     0.075 A 
HETATM   14  C   UNL     1     -40.426  53.269 -53.685  1.00  0.00    -0.029 A 
HETATM   15  C   UNL     1     -40.443  53.741 -55.114  1.00  0.00     0.051 C 
HETATM   16  C   UNL     1     -39.682  52.130 -53.347  1.00  0.00     0.009 A 
HETATM   17  C   UNL     1     -39.618  51.691 -52.027  1.00  0.00     0.001 A 
HETATM   18  C   UNL     1     -40.294  52.392 -51.031  1.00  0.00     0.003 A 
HETATM   19  C   UNL     1     -41.027  53.538 -51.351  1.00  0.00     0.037 A 
ENDBRANCH  12  13
ENDBRANCH  11  12
ENDBRANCH   8  11
ENDBRANCH   1   7
BRANCH   2  20
HETATM   20  C   UNL     1     -42.150  59.463 -54.233  1.00  0.00     0.254 C 
HETATM   21  N   UNL     1     -42.852  59.344 -55.409  1.00  0.00    -0.351 N 
HETATM   22  H   UNL     1     -43.861  59.412 -55.432  1.00  0.00     0.163 HD
HETATM   23  O   UNL     1     -40.934  59.299 -54.161  1.00  0.00    -0.268 OA
BRANCH  21  24
HETATM   24  C   UNL     1     -42.195  59.120 -56.676  1.00  0.00     0.187 C 
BRANCH  24  25
HETATM   25  C   UNL     1     -42.640  57.811 -57.219  1.00  0.00     0.070 A 
HETATM   26  O   UNL     1     -42.360  56.703 -56.467  1.00  0.00    -0.325 OA
HETATM   27  C   UNL     1     -42.838  55.630 -57.148  1.00  0.00     0.142 A 
HETATM   28  C   UNL     1     -43.420  56.028 -58.328  1.00  0.00     0.027 A 
HETATM   29  C   UNL     1     -43.294  57.437 -58.375  1.00  0.00     0.036 A 
ENDBRANCH  24  25
ENDBRANCH  21  24
ENDBRANCH   2  20
TORSDOF 7
ENDMDL
MODEL 10
REMARK VINA RESULT:      -7.0      1.725      2.970
REMARK  7 active torsions:
REMARK  status: ('A' for Active; 'I' for Inactive)
REMARK    1  A    between atoms: C_3  and  O_4 
REMARK    2  A    between atoms: O_4  and  C_5 
REMARK    3  A    between atoms: C_5  and  C_6 
REMARK       I    between atoms: C_6  and  N_7 
REMARK    4  A    between atoms: N_7  and  C_8 
REMARK    5  A    between atoms: C_9  and  C_10 
REMARK       I    between atoms: C_10  and  N_11 
REMARK    6  A    between atoms: N_11  and  C_12 
REMARK    7  A    between atoms: C_12  and  C_13 
ROOT
HETATM    1  C   UNL     1     -42.027  58.938 -52.551  1.00  0.00     0.050 A 
HETATM    2  C   UNL     1     -42.503  59.991 -53.366  1.00  0.00     0.058 A 
HETATM    3  C   UNL     1     -42.932  61.195 -52.775  1.00  0.00     0.019 A 
HETATM    4  C   UNL     1     -42.936  61.343 -51.390  1.00  0.00     0.001 A 
HETATM    5  C   UNL     1     -42.503  60.297 -50.585  1.00  0.00     0.002 A 
HETATM    6  C   UNL     1     -42.048  59.108 -51.160  1.00  0.00     0.030 A 
ENDROOT
BRANCH   1   7
HETATM    7  N   UNL     1     -41.493  57.769 -53.154  1.00  0.00    -0.324 N 
HETATM    8  C   UNL     1     -41.979  56.477 -53.062  1.00  0.00     0.246 C 
HETATM    9  O   UNL     1     -43.080  56.165 -52.614  1.00  0.00    -0.271 OA
HETATM   10  H   UNL     1     -40.653  57.928 -53.715  1.00  0.00     0.169 HD
BRANCH   8  11
HETATM   11  C   UNL     1     -41.003  55.420 -53.582  1.00  0.00     0.278 C 
BRANCH  11  12
HETATM   12  O   UNL     1     -40.791  54.500 -52.517  1.00  0.00    -0.342 OA
BRANCH  12  13
HETATM   13  C   UNL     1     -40.430  53.219 -52.824  1.00  0.00     0.075 A 
HETATM   14  C   UNL     1     -40.001  52.432 -51.740  1.00  0.00    -0.029 A 
HETATM   15  C   UNL     1     -40.000  52.974 -50.336  1.00  0.00     0.051 C 
HETATM   16  C   UNL     1     -39.631  51.097 -51.960  1.00  0.00     0.009 A 
HETATM   17  C   UNL     1     -39.657  50.558 -53.244  1.00  0.00     0.001 A 
HETATM   18  C   UNL     1     -40.059  51.347 -54.318  1.00  0.00     0.003 A 
HETATM   19  C   UNL     1     -40.445  52.674 -54.111  1.00  0.00     0.037 A 
ENDBRANCH  12  13
ENDBRANCH  11  12
ENDBRANCH   8  11
ENDBRANCH   1   7
BRANCH   2  20
HETATM   20  C   UNL     1     -42.558  59.836 -54.853  1.00  0.00     0.254 C 
HETATM   21  N   UNL     1     -43.734  59.354 -55.375  1.00  0.00    -0.351 N 
HETATM   22  H   UNL     1     -44.506  59.083 -54.780  1.00  0.00     0.163 HD
HETATM   23  O   UNL     1     -41.574  60.090 -55.544  1.00  0.00    -0.268 OA
BRANCH  21  24
HETATM   24  C   UNL     1     -43.940  59.207 -56.798  1.00  0.00     0.187 C 
BRANCH  24  25
HETATM   25  C   UNL     1     -43.609  57.812 -57.186  1.00  0.00     0.070 A 
HETATM   26  O   UNL     1     -43.596  57.530 -58.525  1.00  0.00    -0.325 OA
HETATM   27  C   UNL     1     -43.288  56.213 -58.650  1.00  0.00     0.142 A 
HETATM   28  C   UNL     1     -43.102  55.642 -57.414  1.00  0.00     0.027 A 
HETATM   29  C   UNL     1     -43.309  56.673 -56.466  1.00  0.00     0.036 A 
ENDBRANCH  24  25
ENDBRANCH  21  24
ENDBRANCH   2  20
TORSDOF 7
ENDMDL
