MODEL 1
REMARK VINA RESULT:      -8.8      0.000      0.000
REMARK  8 active torsions:
REMARK  status: ('A' for Active; 'I' for Inactive)
REMARK    1  A    between atoms: C_6  and  N_7 
REMARK       I    between atoms: N_7  and  C_8 
REMARK    2  A    between atoms: C_8  and  C_9 
REMARK    3  A    between atoms: C_9  and  N_10 
REMARK    4  A    between atoms: C_13  and  C_14 
REMARK       I    between atoms: C_14  and  N_15 
REMARK    5  A    between atoms: N_15  and  C_16 
REMARK    6  A    between atoms: C_16  and  C_17 
REMARK    7  A    between atoms: C_20  and  O_21 
REMARK    8  A    between atoms: C_26  and  N_27 
ROOT
HETATM    1  N   UNL     1     -42.788  57.347 -53.246  1.00  0.00    -0.248 N 
HETATM    2  N   UNL     1     -41.702  58.145 -53.158  1.00  0.00     0.007 NA
HETATM    3  N   UNL     1     -41.500  58.670 -54.356  1.00  0.00    -0.150 NA
HETATM    4  C   UNL     1     -42.467  58.183 -55.213  1.00  0.00     0.186 A 
HETATM    5  C   UNL     1     -43.311  57.337 -54.513  1.00  0.00     0.151 A 
ENDROOT
BRANCH   1   6
HETATM    6  C   UNL     1     -43.209  56.614 -52.077  1.00  0.00     0.251 C 
BRANCH   6   7
HETATM    7  C   UNL     1     -42.774  55.167 -52.131  1.00  0.00     0.241 C 
HETATM    8  N   UNL     1     -41.486  54.981 -52.613  1.00  0.00    -0.325 N 
HETATM    9  H   UNL     1     -41.056  55.802 -53.028  1.00  0.00     0.169 HD
HETATM   10  O   UNL     1     -43.586  54.282 -51.874  1.00  0.00    -0.271 OA
BRANCH   8  11
HETATM   11  C   UNL     1     -40.854  53.745 -52.894  1.00  0.00     0.046 A 
HETATM   12  C   UNL     1     -40.782  53.354 -54.254  1.00  0.00    -0.034 A 
HETATM   13  C   UNL     1     -40.240  52.101 -54.595  1.00  0.00     0.015 A 
HETATM   14  C   UNL     1     -41.313  54.217 -55.372  1.00  0.00     0.050 C 
HETATM   15  C   UNL     1     -39.749  51.239 -53.616  1.00  0.00    -0.061 A 
HETATM   16  C   UNL     1     -39.208  49.887 -53.972  1.00  0.00     0.048 C 
HETATM   17  C   UNL     1     -39.763  51.660 -52.285  1.00  0.00     0.015 A 
HETATM   18  C   UNL     1     -40.273  52.919 -51.911  1.00  0.00    -0.034 A 
HETATM   19  C   UNL     1     -40.092  53.309 -50.468  1.00  0.00     0.050 C 
ENDBRANCH   8  11
ENDBRANCH   6   7
ENDBRANCH   1   6
BRANCH   5  20
HETATM   20  N   UNL     1     -44.390  56.613 -54.883  1.00  0.00    -0.382 N 
HETATM   21  H   UNL     1     -45.061  57.030 -55.535  1.00  0.00     0.157 HD
HETATM   22  H   UNL     1     -44.800  55.872 -54.320  1.00  0.00     0.157 HD
ENDBRANCH   5  20
BRANCH   4  23
HETATM   23  C   UNL     1     -42.516  58.546 -56.623  1.00  0.00     0.275 C 
HETATM   24  N   UNL     1     -42.213  57.497 -57.454  1.00  0.00    -0.351 N 
HETATM   25  H   UNL     1     -41.935  56.620 -57.025  1.00  0.00     0.163 HD
HETATM   26  O   UNL     1     -42.807  59.668 -57.027  1.00  0.00    -0.266 OA
BRANCH  24  27
HETATM   27  C   UNL     1     -42.254  57.594 -58.890  1.00  0.00     0.161 C 
BRANCH  27  28
HETATM   28  C   UNL     1     -43.593  57.123 -59.391  1.00  0.00    -0.040 A 
HETATM   29  C   UNL     1     -44.612  58.052 -59.641  1.00  0.00     0.011 A 
HETATM   30  C   UNL     1     -45.883  57.621 -60.026  1.00  0.00     0.037 A 
HETATM   31  C   UNL     1     -46.160  56.260 -60.165  1.00  0.00     0.068 A 
HETATM   32  C   UNL     1     -45.146  55.331 -59.934  1.00  0.00     0.037 A 
HETATM   33  C   UNL     1     -43.871  55.759 -59.545  1.00  0.00     0.011 A 
BRANCH  31  34
HETATM   34  O   UNL     1     -47.448  55.975 -60.526  1.00  0.00    -0.356 OA
HETATM   35  C   UNL     1     -47.948  56.629 -61.686  1.00  0.00     0.210 C 
ENDBRANCH  31  34
ENDBRANCH  27  28
ENDBRANCH  24  27
ENDBRANCH   4  23
TORSDOF 8
ENDMDL
MODEL 2
REMARK VINA RESULT:      -8.8      1.577      1.921
REMARK  8 active torsions:
REMARK  status: ('A' for Active; 'I' for Inactive)
REMARK    1  A    between atoms: C_6  and  N_7 
REMARK       I    between atoms: N_7  and  C_8 
REMARK    2  A    between atoms: C_8  and  C_9 
REMARK    3  A    between atoms: C_9  and  N_10 
REMARK    4  A    between atoms: C_13  and  C_14 
REMARK       I    between atoms: C_14  and  N_15 
REMARK    5  A    between atoms: N_15  and  C_16 
REMARK    6  A    between atoms: C_16  and  C_17 
REMARK    7  A    between atoms: C_20  and  O_21 
REMARK    8  A    between atoms: C_26  and  N_27 
ROOT
HETATM    1  N   UNL     1     -43.156  57.155 -51.749  1.00  0.00    -0.248 N 
HETATM    2  N   UNL     1     -42.011  57.733 -51.326  1.00  0.00     0.007 NA
HETATM    3  N   UNL     1     -41.649  58.611 -52.248  1.00  0.00    -0.150 NA
HETATM    4  C   UNL     1     -42.574  58.575 -53.272  1.00  0.00     0.186 A 
HETATM    5  C   UNL     1     -43.557  57.649 -52.964  1.00  0.00     0.151 A 
ENDROOT
BRANCH   1   6
HETATM    6  C   UNL     1     -43.753  56.120 -50.941  1.00  0.00     0.251 C 
BRANCH   6   7
HETATM    7  C   UNL     1     -43.209  54.752 -51.283  1.00  0.00     0.241 C 
HETATM    8  N   UNL     1     -41.960  54.774 -51.887  1.00  0.00    -0.325 N 
HETATM    9  H   UNL     1     -41.638  55.690 -52.182  1.00  0.00     0.169 HD
HETATM   10  O   UNL     1     -43.921  53.762 -51.127  1.00  0.00    -0.271 OA
BRANCH   8  11
HETATM   11  C   UNL     1     -41.259  53.669 -52.430  1.00  0.00     0.046 A 
HETATM   12  C   UNL     1     -41.467  53.387 -53.804  1.00  0.00    -0.034 A 
HETATM   13  C   UNL     1     -40.865  52.257 -54.386  1.00  0.00     0.015 A 
HETATM   14  C   UNL     1     -42.360  54.234 -54.676  1.00  0.00     0.050 C 
HETATM   15  C   UNL     1     -40.044  51.414 -53.639  1.00  0.00    -0.061 A 
HETATM   16  C   UNL     1     -39.434  50.187 -54.245  1.00  0.00     0.048 C 
HETATM   17  C   UNL     1     -39.791  51.736 -52.304  1.00  0.00     0.015 A 
HETATM   18  C   UNL     1     -40.355  52.875 -51.697  1.00  0.00    -0.034 A 
HETATM   19  C   UNL     1     -39.883  53.189 -50.301  1.00  0.00     0.050 C 
ENDBRANCH   8  11
ENDBRANCH   6   7
ENDBRANCH   1   6
BRANCH   5  20
HETATM   20  N   UNL     1     -44.662  57.236 -53.624  1.00  0.00    -0.382 N 
HETATM   21  H   UNL     1     -45.308  56.599 -53.148  1.00  0.00     0.157 HD
HETATM   22  H   UNL     1     -44.734  57.183 -54.637  1.00  0.00     0.157 HD
ENDBRANCH   5  20
BRANCH   4  23
HETATM   23  C   UNL     1     -42.456  59.406 -54.462  1.00  0.00     0.275 C 
HETATM   24  N   UNL     1     -42.197  58.679 -55.597  1.00  0.00    -0.351 N 
HETATM   25  H   UNL     1     -42.056  57.679 -55.495  1.00  0.00     0.163 HD
HETATM   26  O   UNL     1     -42.584  60.627 -54.454  1.00  0.00    -0.266 OA
BRANCH  24  27
HETATM   27  C   UNL     1     -42.098  59.272 -56.906  1.00  0.00     0.161 C 
BRANCH  27  28
HETATM   28  C   UNL     1     -42.508  58.266 -57.948  1.00  0.00    -0.040 A 
HETATM   29  C   UNL     1     -42.600  58.652 -59.292  1.00  0.00     0.011 A 
HETATM   30  C   UNL     1     -43.057  57.752 -60.257  1.00  0.00     0.037 A 
HETATM   31  C   UNL     1     -43.433  56.456 -59.897  1.00  0.00     0.068 A 
HETATM   32  C   UNL     1     -43.328  56.061 -58.564  1.00  0.00     0.037 A 
HETATM   33  C   UNL     1     -42.872  56.962 -57.594  1.00  0.00     0.011 A 
BRANCH  31  34
HETATM   34  O   UNL     1     -43.883  55.685 -60.934  1.00  0.00    -0.356 OA
HETATM   35  C   UNL     1     -44.997  54.843 -60.670  1.00  0.00     0.210 C 
ENDBRANCH  31  34
ENDBRANCH  27  28
ENDBRANCH  24  27
ENDBRANCH   4  23
TORSDOF 8
ENDMDL
MODEL 3
REMARK VINA RESULT:      -8.7      1.591      2.460
REMARK  8 active torsions:
REMARK  status: ('A' for Active; 'I' for Inactive)
REMARK    1  A    between atoms: C_6  and  N_7 
REMARK       I    between atoms: N_7  and  C_8 
REMARK    2  A    between atoms: C_8  and  C_9 
REMARK    3  A    between atoms: C_9  and  N_10 
REMARK    4  A    between atoms: C_13  and  C_14 
REMARK       I    between atoms: C_14  and  N_15 
REMARK    5  A    between atoms: N_15  and  C_16 
REMARK    6  A    between atoms: C_16  and  C_17 
REMARK    7  A    between atoms: C_20  and  O_21 
REMARK    8  A    between atoms: C_26  and  N_27 
ROOT
HETATM    1  N   UNL     1     -42.635  57.257 -51.749  1.00  0.00    -0.248 N 
HETATM    2  N   UNL     1     -41.368  57.678 -51.546  1.00  0.00     0.007 NA
HETATM    3  N   UNL     1     -41.079  58.535 -52.511  1.00  0.00    -0.150 NA
HETATM    4  C   UNL     1     -42.176  58.644 -53.343  1.00  0.00     0.186 A 
HETATM    5  C   UNL     1     -43.191  57.834 -52.862  1.00  0.00     0.151 A 
ENDROOT
BRANCH   1   6
HETATM    6  C   UNL     1     -43.195  56.276 -50.851  1.00  0.00     0.251 C 
BRANCH   6   7
HETATM    7  C   UNL     1     -42.890  54.864 -51.297  1.00  0.00     0.241 C 
HETATM    8  N   UNL     1     -41.659  54.720 -51.920  1.00  0.00    -0.325 N 
HETATM    9  H   UNL     1     -41.189  55.589 -52.157  1.00  0.00     0.169 HD
HETATM   10  O   UNL     1     -43.755  53.998 -51.195  1.00  0.00    -0.271 OA
BRANCH   8  11
HETATM   11  C   UNL     1     -41.155  53.555 -52.550  1.00  0.00     0.046 A 
HETATM   12  C   UNL     1     -40.353  52.694 -51.760  1.00  0.00    -0.034 A 
HETATM   13  C   UNL     1     -39.755  51.562 -52.345  1.00  0.00     0.015 A 
HETATM   14  C   UNL     1     -40.069  52.964 -50.303  1.00  0.00     0.050 C 
HETATM   15  C   UNL     1     -39.953  51.258 -53.690  1.00  0.00    -0.061 A 
HETATM   16  C   UNL     1     -39.285  50.077 -54.327  1.00  0.00     0.048 C 
HETATM   17  C   UNL     1     -40.798  52.076 -54.445  1.00  0.00     0.015 A 
HETATM   18  C   UNL     1     -41.435  53.200 -53.884  1.00  0.00    -0.034 A 
HETATM   19  C   UNL     1     -42.433  53.907 -54.763  1.00  0.00     0.050 C 
ENDBRANCH   8  11
ENDBRANCH   6   7
ENDBRANCH   1   6
BRANCH   5  20
HETATM   20  N   UNL     1     -44.443  57.579 -53.305  1.00  0.00    -0.382 N 
HETATM   21  H   UNL     1     -44.566  57.262 -54.271  1.00  0.00     0.157 HD
HETATM   22  H   UNL     1     -45.281  58.009 -52.923  1.00  0.00     0.157 HD
ENDBRANCH   5  20
BRANCH   4  23
HETATM   23  C   UNL     1     -42.179  59.493 -54.526  1.00  0.00     0.275 C 
HETATM   24  N   UNL     1     -42.050  58.782 -55.693  1.00  0.00    -0.351 N 
HETATM   25  H   UNL     1     -41.908  57.779 -55.621  1.00  0.00     0.163 HD
HETATM   26  O   UNL     1     -42.295  60.714 -54.486  1.00  0.00    -0.266 OA
BRANCH  24  27
HETATM   27  C   UNL     1     -42.088  59.394 -56.995  1.00  0.00     0.161 C 
BRANCH  27  28
HETATM   28  C   UNL     1     -42.517  58.378 -58.020  1.00  0.00    -0.040 A 
HETATM   29  C   UNL     1     -42.573  58.732 -59.374  1.00  0.00     0.011 A 
HETATM   30  C   UNL     1     -43.047  57.825 -60.323  1.00  0.00     0.037 A 
HETATM   31  C   UNL     1     -43.478  56.554 -59.938  1.00  0.00     0.068 A 
HETATM   32  C   UNL     1     -43.410  56.189 -58.594  1.00  0.00     0.037 A 
HETATM   33  C   UNL     1     -42.937  57.098 -57.639  1.00  0.00     0.011 A 
BRANCH  31  34
HETATM   34  O   UNL     1     -43.939  55.774 -60.963  1.00  0.00    -0.356 OA
HETATM   35  C   UNL     1     -44.911  54.791 -60.632  1.00  0.00     0.210 C 
ENDBRANCH  31  34
ENDBRANCH  27  28
ENDBRANCH  24  27
ENDBRANCH   4  23
TORSDOF 8
ENDMDL
MODEL 4
REMARK VINA RESULT:      -8.2      2.797      8.126
REMARK  8 active torsions:
REMARK  status: ('A' for Active; 'I' for Inactive)
REMARK    1  A    between atoms: C_6  and  N_7 
REMARK       I    between atoms: N_7  and  C_8 
REMARK    2  A    between atoms: C_8  and  C_9 
REMARK    3  A    between atoms: C_9  and  N_10 
REMARK    4  A    between atoms: C_13  and  C_14 
REMARK       I    between atoms: C_14  and  N_15 
REMARK    5  A    between atoms: N_15  and  C_16 
REMARK    6  A    between atoms: C_16  and  C_17 
REMARK    7  A    between atoms: C_20  and  O_21 
REMARK    8  A    between atoms: C_26  and  N_27 
ROOT
HETATM    1  N   UNL     1     -42.900  57.558 -51.345  1.00  0.00    -0.248 N 
HETATM    2  N   UNL     1     -41.722  58.164 -51.082  1.00  0.00     0.007 NA
HETATM    3  N   UNL     1     -41.013  57.337 -50.331  1.00  0.00    -0.150 NA
HETATM    4  C   UNL     1     -41.763  56.199 -50.106  1.00  0.00     0.186 A 
HETATM    5  C   UNL     1     -42.978  56.320 -50.760  1.00  0.00     0.151 A 
ENDROOT
BRANCH   1   6
HETATM    6  C   UNL     1     -43.887  58.265 -52.124  1.00  0.00     0.251 C 
BRANCH   6   7
HETATM    7  C   UNL     1     -43.533  58.293 -53.594  1.00  0.00     0.241 C 
HETATM    8  N   UNL     1     -44.127  57.284 -54.338  1.00  0.00    -0.325 N 
HETATM    9  H   UNL     1     -44.582  56.556 -53.796  1.00  0.00     0.169 HD
HETATM   10  O   UNL     1     -42.689  59.089 -53.997  1.00  0.00    -0.271 OA
BRANCH   8  11
HETATM   11  C   UNL     1     -43.889  56.980 -55.701  1.00  0.00     0.046 A 
HETATM   12  C   UNL     1     -43.159  55.797 -55.978  1.00  0.00    -0.034 A 
HETATM   13  C   UNL     1     -42.819  55.479 -57.305  1.00  0.00     0.015 A 
HETATM   14  C   UNL     1     -42.682  54.868 -54.889  1.00  0.00     0.050 C 
HETATM   15  C   UNL     1     -43.204  56.299 -58.364  1.00  0.00    -0.061 A 
HETATM   16  C   UNL     1     -42.808  55.985 -59.775  1.00  0.00     0.048 C 
HETATM   17  C   UNL     1     -43.979  57.428 -58.089  1.00  0.00     0.015 A 
HETATM   18  C   UNL     1     -44.362  57.761 -56.774  1.00  0.00    -0.034 A 
HETATM   19  C   UNL     1     -45.319  58.915 -56.632  1.00  0.00     0.050 C 
ENDBRANCH   8  11
ENDBRANCH   6   7
ENDBRANCH   1   6
BRANCH   5  20
HETATM   20  N   UNL     1     -44.052  55.505 -50.849  1.00  0.00    -0.382 N 
HETATM   21  H   UNL     1     -44.099  54.839 -51.626  1.00  0.00     0.157 HD
HETATM   22  H   UNL     1     -44.968  55.724 -50.465  1.00  0.00     0.157 HD
ENDBRANCH   5  20
BRANCH   4  23
HETATM   23  C   UNL     1     -41.282  55.094 -49.289  1.00  0.00     0.275 C 
HETATM   24  N   UNL     1     -41.101  53.939 -50.008  1.00  0.00    -0.351 N 
HETATM   25  H   UNL     1     -41.368  53.946 -50.988  1.00  0.00     0.163 HD
HETATM   26  O   UNL     1     -41.051  55.187 -48.087  1.00  0.00    -0.266 OA
BRANCH  24  27
HETATM   27  C   UNL     1     -40.575  52.728 -49.433  1.00  0.00     0.161 C 
BRANCH  27  28
HETATM   28  C   UNL     1     -40.185  51.775 -50.531  1.00  0.00    -0.040 A 
HETATM   29  C   UNL     1     -40.025  52.245 -51.841  1.00  0.00     0.011 A 
HETATM   30  C   UNL     1     -39.744  51.358 -52.881  1.00  0.00     0.037 A 
HETATM   31  C   UNL     1     -39.622  49.990 -52.635  1.00  0.00     0.068 A 
HETATM   32  C   UNL     1     -39.763  49.517 -51.330  1.00  0.00     0.037 A 
HETATM   33  C   UNL     1     -40.048  50.403 -50.284  1.00  0.00     0.011 A 
BRANCH  31  34
HETATM   34  O   UNL     1     -39.367  49.231 -53.744  1.00  0.00    -0.356 OA
HETATM   35  C   UNL     1     -39.661  49.820 -55.004  1.00  0.00     0.210 C 
ENDBRANCH  31  34
ENDBRANCH  27  28
ENDBRANCH  24  27
ENDBRANCH   4  23
TORSDOF 8
ENDMDL
MODEL 5
REMARK VINA RESULT:      -7.9      1.479      2.212
REMARK  8 active torsions:
REMARK  status: ('A' for Active; 'I' for Inactive)
REMARK    1  A    between atoms: C_6  and  N_7 
REMARK       I    between atoms: N_7  and  C_8 
REMARK    2  A    between atoms: C_8  and  C_9 
REMARK    3  A    between atoms: C_9  and  N_10 
REMARK    4  A    between atoms: C_13  and  C_14 
REMARK       I    between atoms: C_14  and  N_15 
REMARK    5  A    between atoms: N_15  and  C_16 
REMARK    6  A    between atoms: C_16  and  C_17 
REMARK    7  A    between atoms: C_20  and  O_21 
REMARK    8  A    between atoms: C_26  and  N_27 
ROOT
HETATM    1  N   UNL     1     -43.297  57.458 -52.243  1.00  0.00    -0.248 N 
HETATM    2  N   UNL     1     -44.624  57.598 -52.033  1.00  0.00     0.007 NA
HETATM    3  N   UNL     1     -45.121  58.250 -53.071  1.00  0.00    -0.150 NA
HETATM    4  C   UNL     1     -44.088  58.537 -53.941  1.00  0.00     0.186 A 
HETATM    5  C   UNL     1     -42.907  58.026 -53.428  1.00  0.00     0.151 A 
ENDROOT
BRANCH   1   6
HETATM    6  C   UNL     1     -42.498  56.807 -51.233  1.00  0.00     0.251 C 
BRANCH   6   7
HETATM    7  C   UNL     1     -42.286  55.341 -51.539  1.00  0.00     0.241 C 
HETATM    8  N   UNL     1     -41.035  55.047 -52.061  1.00  0.00    -0.325 N 
HETATM    9  H   UNL     1     -40.479  55.851 -52.335  1.00  0.00     0.169 HD
HETATM   10  O   UNL     1     -43.227  54.559 -51.427  1.00  0.00    -0.271 OA
BRANCH   8  11
HETATM   11  C   UNL     1     -40.594  53.795 -52.556  1.00  0.00     0.046 A 
HETATM   12  C   UNL     1     -40.496  53.659 -53.963  1.00  0.00    -0.034 A 
HETATM   13  C   UNL     1     -40.141  52.418 -54.523  1.00  0.00     0.015 A 
HETATM   14  C   UNL     1     -40.804  54.793 -54.909  1.00  0.00     0.050 C 
HETATM   15  C   UNL     1     -39.863  51.317 -53.716  1.00  0.00    -0.061 A 
HETATM   16  C   UNL     1     -39.526  49.982 -54.311  1.00  0.00     0.048 C 
HETATM   17  C   UNL     1     -39.898  51.476 -52.329  1.00  0.00     0.015 A 
HETATM   18  C   UNL     1     -40.222  52.712 -51.734  1.00  0.00    -0.034 A 
HETATM   19  C   UNL     1     -40.077  52.789 -50.237  1.00  0.00     0.050 C 
ENDBRANCH   8  11
ENDBRANCH   6   7
ENDBRANCH   1   6
BRANCH   5  20
HETATM   20  N   UNL     1     -41.633  58.043 -53.879  1.00  0.00    -0.382 N 
HETATM   21  H   UNL     1     -41.417  57.561 -54.757  1.00  0.00     0.157 HD
HETATM   22  H   UNL     1     -40.818  58.151 -53.280  1.00  0.00     0.157 HD
ENDBRANCH   5  20
BRANCH   4  23
HETATM   23  C   UNL     1     -44.291  59.275 -55.180  1.00  0.00     0.275 C 
HETATM   24  N   UNL     1     -45.567  59.151 -55.671  1.00  0.00    -0.351 N 
HETATM   25  H   UNL     1     -46.204  58.532 -55.179  1.00  0.00     0.163 HD
HETATM   26  O   UNL     1     -43.419  59.946 -55.723  1.00  0.00    -0.266 OA
BRANCH  24  27
HETATM   27  C   UNL     1     -46.026  59.837 -56.851  1.00  0.00     0.161 C 
BRANCH  27  28
HETATM   28  C   UNL     1     -45.975  58.903 -58.031  1.00  0.00    -0.040 A 
HETATM   29  C   UNL     1     -46.960  57.919 -58.186  1.00  0.00     0.011 A 
HETATM   30  C   UNL     1     -46.878  56.996 -59.230  1.00  0.00     0.037 A 
HETATM   31  C   UNL     1     -45.814  57.035 -60.132  1.00  0.00     0.068 A 
HETATM   32  C   UNL     1     -44.839  58.023 -59.994  1.00  0.00     0.037 A 
HETATM   33  C   UNL     1     -44.916  58.949 -58.946  1.00  0.00     0.011 A 
BRANCH  31  34
HETATM   34  O   UNL     1     -45.844  56.062 -61.093  1.00  0.00    -0.356 OA
HETATM   35  C   UNL     1     -44.975  54.952 -60.907  1.00  0.00     0.210 C 
ENDBRANCH  31  34
ENDBRANCH  27  28
ENDBRANCH  24  27
ENDBRANCH   4  23
TORSDOF 8
ENDMDL
MODEL 6
REMARK VINA RESULT:      -7.7      2.172      7.845
REMARK  8 active torsions:
REMARK  status: ('A' for Active; 'I' for Inactive)
REMARK    1  A    between atoms: C_6  and  N_7 
REMARK       I    between atoms: N_7  and  C_8 
REMARK    2  A    between atoms: C_8  and  C_9 
REMARK    3  A    between atoms: C_9  and  N_10 
REMARK    4  A    between atoms: C_13  and  C_14 
REMARK       I    between atoms: C_14  and  N_15 
REMARK    5  A    between atoms: N_15  and  C_16 
REMARK    6  A    between atoms: C_16  and  C_17 
REMARK    7  A    between atoms: C_20  and  O_21 
REMARK    8  A    between atoms: C_26  and  N_27 
ROOT
HETATM    1  N   UNL     1     -42.672  59.688 -54.217  1.00  0.00    -0.248 N 
HETATM    2  N   UNL     1     -41.360  59.893 -54.461  1.00  0.00     0.007 NA
HETATM    3  N   UNL     1     -40.679  59.169 -53.587  1.00  0.00    -0.150 NA
HETATM    4  C   UNL     1     -41.578  58.510 -52.772  1.00  0.00     0.186 A 
HETATM    5  C   UNL     1     -42.867  58.825 -53.170  1.00  0.00     0.151 A 
ENDROOT
BRANCH   1   6
HETATM    6  C   UNL     1     -43.646  60.396 -55.012  1.00  0.00     0.251 C 
BRANCH   6   7
HETATM    7  C   UNL     1     -43.807  59.784 -56.385  1.00  0.00     0.241 C 
HETATM    8  N   UNL     1     -44.440  58.549 -56.383  1.00  0.00    -0.325 N 
HETATM    9  H   UNL     1     -44.564  58.127 -55.468  1.00  0.00     0.169 HD
HETATM   10  O   UNL     1     -43.287  60.330 -57.355  1.00  0.00    -0.271 OA
BRANCH   8  11
HETATM   11  C   UNL     1     -44.619  57.684 -57.491  1.00  0.00     0.046 A 
HETATM   12  C   UNL     1     -43.661  56.653 -57.663  1.00  0.00    -0.034 A 
HETATM   13  C   UNL     1     -43.735  55.810 -58.787  1.00  0.00     0.015 A 
HETATM   14  C   UNL     1     -42.518  56.444 -56.701  1.00  0.00     0.050 C 
HETATM   15  C   UNL     1     -44.749  55.956 -59.731  1.00  0.00    -0.061 A 
HETATM   16  C   UNL     1     -44.806  55.086 -60.950  1.00  0.00     0.048 C 
HETATM   17  C   UNL     1     -45.726  56.931 -59.520  1.00  0.00     0.015 A 
HETATM   18  C   UNL     1     -45.700  57.774 -58.391  1.00  0.00    -0.034 A 
HETATM   19  C   UNL     1     -46.891  58.677 -58.206  1.00  0.00     0.050 C 
ENDBRANCH   8  11
ENDBRANCH   6   7
ENDBRANCH   1   6
BRANCH   5  20
HETATM   20  N   UNL     1     -44.082  58.457 -52.705  1.00  0.00    -0.382 N 
HETATM   21  H   UNL     1     -44.179  58.230 -51.711  1.00  0.00     0.157 HD
HETATM   22  H   UNL     1     -44.805  58.028 -53.277  1.00  0.00     0.157 HD
ENDBRANCH   5  20
BRANCH   4  23
HETATM   23  C   UNL     1     -41.154  57.643 -51.681  1.00  0.00     0.275 C 
HETATM   24  N   UNL     1     -41.385  56.314 -51.936  1.00  0.00    -0.351 N 
HETATM   25  H   UNL     1     -41.866  56.075 -52.798  1.00  0.00     0.163 HD
HETATM   26  O   UNL     1     -40.636  58.054 -50.648  1.00  0.00    -0.266 OA
BRANCH  24  27
HETATM   27  C   UNL     1     -40.997  55.261 -51.035  1.00  0.00     0.161 C 
BRANCH  27  28
HETATM   28  C   UNL     1     -40.580  54.048 -51.823  1.00  0.00    -0.040 A 
HETATM   29  C   UNL     1     -40.816  53.996 -53.203  1.00  0.00     0.011 A 
HETATM   30  C   UNL     1     -40.509  52.845 -53.930  1.00  0.00     0.037 A 
HETATM   31  C   UNL     1     -39.967  51.727 -53.295  1.00  0.00     0.068 A 
HETATM   32  C   UNL     1     -39.714  51.777 -51.924  1.00  0.00     0.037 A 
HETATM   33  C   UNL     1     -40.023  52.929 -51.191  1.00  0.00     0.011 A 
BRANCH  31  34
HETATM   34  O   UNL     1     -39.734  50.660 -54.119  1.00  0.00    -0.356 OA
HETATM   35  C   UNL     1     -39.424  49.422 -53.492  1.00  0.00     0.210 C 
ENDBRANCH  31  34
ENDBRANCH  27  28
ENDBRANCH  24  27
ENDBRANCH   4  23
TORSDOF 8
ENDMDL
MODEL 7
REMARK VINA RESULT:      -7.7      5.903      9.496
REMARK  8 active torsions:
REMARK  status: ('A' for Active; 'I' for Inactive)
REMARK    1  A    between atoms: C_6  and  N_7 
REMARK       I    between atoms: N_7  and  C_8 
REMARK    2  A    between atoms: C_8  and  C_9 
REMARK    3  A    between atoms: C_9  and  N_10 
REMARK    4  A    between atoms: C_13  and  C_14 
REMARK       I    between atoms: C_14  and  N_15 
REMARK    5  A    between atoms: N_15  and  C_16 
REMARK    6  A    between atoms: C_16  and  C_17 
REMARK    7  A    between atoms: C_20  and  O_21 
REMARK    8  A    between atoms: C_26  and  N_27 
ROOT
HETATM    1  N   UNL     1     -45.050  58.512 -51.879  1.00  0.00    -0.248 N 
HETATM    2  N   UNL     1     -45.727  58.071 -50.796  1.00  0.00     0.007 NA
HETATM    3  N   UNL     1     -45.859  59.095 -49.969  1.00  0.00    -0.150 NA
HETATM    4  C   UNL     1     -45.243  60.195 -50.535  1.00  0.00     0.186 A 
HETATM    5  C   UNL     1     -44.725  59.840 -51.769  1.00  0.00     0.151 A 
ENDROOT
BRANCH   1   6
HETATM    6  C   UNL     1     -44.733  57.577 -52.930  1.00  0.00     0.251 C 
BRANCH   6   7
HETATM    7  C   UNL     1     -43.397  56.906 -52.705  1.00  0.00     0.241 C 
HETATM    8  N   UNL     1     -43.413  55.533 -52.903  1.00  0.00    -0.325 N 
HETATM    9  H   UNL     1     -44.335  55.120 -53.004  1.00  0.00     0.169 HD
HETATM   10  O   UNL     1     -42.457  57.563 -52.265  1.00  0.00    -0.271 OA
BRANCH   8  11
HETATM   11  C   UNL     1     -42.355  54.625 -52.648  1.00  0.00     0.046 A 
HETATM   12  C   UNL     1     -41.604  54.183 -53.766  1.00  0.00    -0.034 A 
HETATM   13  C   UNL     1     -40.593  53.220 -53.594  1.00  0.00     0.015 A 
HETATM   14  C   UNL     1     -41.875  54.673 -55.167  1.00  0.00     0.050 C 
HETATM   15  C   UNL     1     -40.299  52.703 -52.334  1.00  0.00    -0.061 A 
HETATM   16  C   UNL     1     -39.251  51.647 -52.152  1.00  0.00     0.048 C 
HETATM   17  C   UNL     1     -40.999  53.192 -51.228  1.00  0.00     0.015 A 
HETATM   18  C   UNL     1     -41.998  54.177 -51.361  1.00  0.00    -0.034 A 
HETATM   19  C   UNL     1     -42.568  54.724 -50.079  1.00  0.00     0.050 C 
ENDBRANCH   8  11
ENDBRANCH   6   7
ENDBRANCH   1   6
BRANCH   5  20
HETATM   20  N   UNL     1     -44.035  60.532 -52.703  1.00  0.00    -0.382 N 
HETATM   21  H   UNL     1     -43.317  61.193 -52.393  1.00  0.00     0.157 HD
HETATM   22  H   UNL     1     -44.390  60.745 -53.632  1.00  0.00     0.157 HD
ENDBRANCH   5  20
BRANCH   4  23
HETATM   23  C   UNL     1     -45.185  61.487 -49.867  1.00  0.00     0.275 C 
HETATM   24  N   UNL     1     -46.190  61.659 -48.948  1.00  0.00    -0.351 N 
HETATM   25  H   UNL     1     -46.887  60.924 -48.868  1.00  0.00     0.163 HD
HETATM   26  O   UNL     1     -44.323  62.331 -50.092  1.00  0.00    -0.266 OA
BRANCH  24  27
HETATM   27  C   UNL     1     -46.306  62.829 -48.118  1.00  0.00     0.161 C 
BRANCH  27  28
HETATM   28  C   UNL     1     -45.681  62.562 -46.775  1.00  0.00    -0.040 A 
HETATM   29  C   UNL     1     -45.388  63.629 -45.915  1.00  0.00     0.011 A 
HETATM   30  C   UNL     1     -44.734  63.402 -44.703  1.00  0.00     0.037 A 
HETATM   31  C   UNL     1     -44.359  62.110 -44.330  1.00  0.00     0.068 A 
HETATM   32  C   UNL     1     -44.662  61.042 -45.173  1.00  0.00     0.037 A 
HETATM   33  C   UNL     1     -45.316  61.266 -46.391  1.00  0.00     0.011 A 
BRANCH  31  34
HETATM   34  O   UNL     1     -43.707  62.031 -43.130  1.00  0.00    -0.356 OA
HETATM   35  C   UNL     1     -43.312  63.259 -42.533  1.00  0.00     0.210 C 
ENDBRANCH  31  34
ENDBRANCH  27  28
ENDBRANCH  24  27
ENDBRANCH   4  23
TORSDOF 8
ENDMDL
MODEL 8
REMARK VINA RESULT:      -7.6      2.572      3.752
REMARK  8 active torsions:
REMARK  status: ('A' for Active; 'I' for Inactive)
REMARK    1  A    between atoms: C_6  and  N_7 
REMARK       I    between atoms: N_7  and  C_8 
REMARK    2  A    between atoms: C_8  and  C_9 
REMARK    3  A    between atoms: C_9  and  N_10 
REMARK    4  A    between atoms: C_13  and  C_14 
REMARK       I    between atoms: C_14  and  N_15 
REMARK    5  A    between atoms: N_15  and  C_16 
REMARK    6  A    between atoms: C_16  and  C_17 
REMARK    7  A    between atoms: C_20  and  O_21 
REMARK    8  A    between atoms: C_26  and  N_27 
ROOT
HETATM    1  N   UNL     1     -42.815  56.676 -53.904  1.00  0.00    -0.248 N 
HETATM    2  N   UNL     1     -41.507  56.700 -54.240  1.00  0.00     0.007 NA
HETATM    3  N   UNL     1     -41.440  56.813 -55.556  1.00  0.00    -0.150 NA
HETATM    4  C   UNL     1     -42.726  56.846 -56.058  1.00  0.00     0.186 A 
HETATM    5  C   UNL     1     -43.625  56.769 -55.007  1.00  0.00     0.151 A 
ENDROOT
BRANCH   1   6
HETATM    6  C   UNL     1     -43.176  56.520 -52.516  1.00  0.00     0.251 C 
BRANCH   6   7
HETATM    7  C   UNL     1     -42.838  55.140 -51.998  1.00  0.00     0.241 C 
HETATM    8  N   UNL     1     -41.482  54.848 -52.007  1.00  0.00    -0.325 N 
HETATM    9  H   UNL     1     -40.899  55.510 -52.510  1.00  0.00     0.169 HD
HETATM   10  O   UNL     1     -43.746  54.357 -51.729  1.00  0.00    -0.271 OA
BRANCH   8  11
HETATM   11  C   UNL     1     -40.878  53.604 -51.702  1.00  0.00     0.046 A 
HETATM   12  C   UNL     1     -40.382  52.845 -52.792  1.00  0.00    -0.034 A 
HETATM   13  C   UNL     1     -39.843  51.565 -52.566  1.00  0.00     0.015 A 
HETATM   14  C   UNL     1     -40.448  53.338 -54.216  1.00  0.00     0.050 C 
HETATM   15  C   UNL     1     -39.768  51.032 -51.281  1.00  0.00    -0.061 A 
HETATM   16  C   UNL     1     -39.233  49.652 -51.042  1.00  0.00     0.048 C 
HETATM   17  C   UNL     1     -40.198  51.812 -50.206  1.00  0.00     0.015 A 
HETATM   18  C   UNL     1     -40.717  53.109 -50.392  1.00  0.00    -0.034 A 
HETATM   19  C   UNL     1     -41.003  53.898 -49.142  1.00  0.00     0.050 C 
ENDBRANCH   8  11
ENDBRANCH   6   7
ENDBRANCH   1   6
BRANCH   5  20
HETATM   20  N   UNL     1     -44.976  56.755 -54.961  1.00  0.00    -0.382 N 
HETATM   21  H   UNL     1     -45.439  56.999 -54.080  1.00  0.00     0.157 HD
HETATM   22  H   UNL     1     -45.562  56.187 -55.567  1.00  0.00     0.157 HD
ENDBRANCH   5  20
BRANCH   4  23
HETATM   23  C   UNL     1     -43.007  56.941 -57.484  1.00  0.00     0.275 C 
HETATM   24  N   UNL     1     -42.107  57.732 -58.153  1.00  0.00    -0.351 N 
HETATM   25  H   UNL     1     -41.396  58.206 -57.605  1.00  0.00     0.163 HD
HETATM   26  O   UNL     1     -43.942  56.366 -58.032  1.00  0.00    -0.266 OA
BRANCH  24  27
HETATM   27  C   UNL     1     -42.140  57.928 -59.579  1.00  0.00     0.161 C 
BRANCH  27  28
HETATM   28  C   UNL     1     -41.962  59.390 -59.893  1.00  0.00    -0.040 A 
HETATM   29  C   UNL     1     -41.945  59.821 -61.226  1.00  0.00     0.011 A 
HETATM   30  C   UNL     1     -41.700  61.161 -61.532  1.00  0.00     0.037 A 
HETATM   31  C   UNL     1     -41.463  62.090 -60.517  1.00  0.00     0.068 A 
HETATM   32  C   UNL     1     -41.495  61.671 -59.188  1.00  0.00     0.037 A 
HETATM   33  C   UNL     1     -41.738  60.327 -58.877  1.00  0.00     0.011 A 
BRANCH  31  34
HETATM   34  O   UNL     1     -41.215  63.362 -60.956  1.00  0.00    -0.356 OA
HETATM   35  C   UNL     1     -42.256  64.004 -61.680  1.00  0.00     0.210 C 
ENDBRANCH  31  34
ENDBRANCH  27  28
ENDBRANCH  24  27
ENDBRANCH   4  23
TORSDOF 8
ENDMDL
MODEL 9
REMARK VINA RESULT:      -7.5      2.082      7.837
REMARK  8 active torsions:
REMARK  status: ('A' for Active; 'I' for Inactive)
REMARK    1  A    between atoms: C_6  and  N_7 
REMARK       I    between atoms: N_7  and  C_8 
REMARK    2  A    between atoms: C_8  and  C_9 
REMARK    3  A    between atoms: C_9  and  N_10 
REMARK    4  A    between atoms: C_13  and  C_14 
REMARK       I    between atoms: C_14  and  N_15 
REMARK    5  A    between atoms: N_15  and  C_16 
REMARK    6  A    between atoms: C_16  and  C_17 
REMARK    7  A    between atoms: C_20  and  O_21 
REMARK    8  A    between atoms: C_26  and  N_27 
ROOT
HETATM    1  N   UNL     1     -43.958  59.427 -54.126  1.00  0.00    -0.248 N 
HETATM    2  N   UNL     1     -45.040  58.763 -53.667  1.00  0.00     0.007 NA
HETATM    3  N   UNL     1     -44.622  57.928 -52.729  1.00  0.00    -0.150 NA
HETATM    4  C   UNL     1     -43.253  58.061 -52.606  1.00  0.00     0.186 A 
HETATM    5  C   UNL     1     -42.809  59.029 -53.492  1.00  0.00     0.151 A 
ENDROOT
BRANCH   1   6
HETATM    6  C   UNL     1     -44.129  60.383 -55.193  1.00  0.00     0.251 C 
BRANCH   6   7
HETATM    7  C   UNL     1     -44.008  59.736 -56.554  1.00  0.00     0.241 C 
HETATM    8  N   UNL     1     -44.721  58.553 -56.685  1.00  0.00    -0.325 N 
HETATM    9  H   UNL     1     -45.094  58.174 -55.820  1.00  0.00     0.169 HD
HETATM   10  O   UNL     1     -43.228  60.206 -57.379  1.00  0.00    -0.271 OA
BRANCH   8  11
HETATM   11  C   UNL     1     -44.701  57.665 -57.789  1.00  0.00     0.046 A 
HETATM   12  C   UNL     1     -45.724  57.821 -58.758  1.00  0.00    -0.034 A 
HETATM   13  C   UNL     1     -45.809  56.922 -59.836  1.00  0.00     0.015 A 
HETATM   14  C   UNL     1     -46.773  58.901 -58.659  1.00  0.00     0.050 C 
HETATM   15  C   UNL     1     -44.890  55.885 -59.983  1.00  0.00    -0.061 A 
HETATM   16  C   UNL     1     -45.002  54.900 -61.108  1.00  0.00     0.048 C 
HETATM   17  C   UNL     1     -43.847  55.778 -59.061  1.00  0.00     0.015 A 
HETATM   18  C   UNL     1     -43.715  56.679 -57.985  1.00  0.00    -0.034 A 
HETATM   19  C   UNL     1     -42.466  56.545 -57.154  1.00  0.00     0.050 C 
ENDBRANCH   8  11
ENDBRANCH   6   7
ENDBRANCH   1   6
BRANCH   5  20
HETATM   20  N   UNL     1     -41.581  59.521 -53.767  1.00  0.00    -0.382 N 
HETATM   21  H   UNL     1     -41.508  60.359 -54.350  1.00  0.00     0.157 HD
HETATM   22  H   UNL     1     -40.732  58.962 -53.775  1.00  0.00     0.157 HD
ENDBRANCH   5  20
BRANCH   4  23
HETATM   23  C   UNL     1     -42.471  57.262 -51.672  1.00  0.00     0.275 C 
HETATM   24  N   UNL     1     -42.995  56.009 -51.473  1.00  0.00    -0.351 N 
HETATM   25  H   UNL     1     -43.875  55.788 -51.928  1.00  0.00     0.163 HD
HETATM   26  O   UNL     1     -41.446  57.662 -51.129  1.00  0.00    -0.266 OA
BRANCH  24  27
HETATM   27  C   UNL     1     -42.366  55.016 -50.642  1.00  0.00     0.161 C 
BRANCH  27  28
HETATM   28  C   UNL     1     -41.640  54.020 -51.505  1.00  0.00    -0.040 A 
HETATM   29  C   UNL     1     -40.589  53.265 -50.967  1.00  0.00     0.011 A 
HETATM   30  C   UNL     1     -39.855  52.397 -51.778  1.00  0.00     0.037 A 
HETATM   31  C   UNL     1     -40.152  52.271 -53.136  1.00  0.00     0.068 A 
HETATM   32  C   UNL     1     -41.208  53.007 -53.674  1.00  0.00     0.037 A 
HETATM   33  C   UNL     1     -41.945  53.880 -52.864  1.00  0.00     0.011 A 
BRANCH  31  34
HETATM   34  O   UNL     1     -39.343  51.405 -53.818  1.00  0.00    -0.356 OA
HETATM   35  C   UNL     1     -39.941  50.202 -54.284  1.00  0.00     0.210 C 
ENDBRANCH  31  34
ENDBRANCH  27  28
ENDBRANCH  24  27
ENDBRANCH   4  23
TORSDOF 8
ENDMDL
MODEL 10
REMARK VINA RESULT:      -7.5      1.723      2.541
REMARK  8 active torsions:
REMARK  status: ('A' for Active; 'I' for Inactive)
REMARK    1  A    between atoms: C_6  and  N_7 
REMARK       I    between atoms: N_7  and  C_8 
REMARK    2  A    between atoms: C_8  and  C_9 
REMARK    3  A    between atoms: C_9  and  N_10 
REMARK    4  A    between atoms: C_13  and  C_14 
REMARK       I    between atoms: C_14  and  N_15 
REMARK    5  A    between atoms: N_15  and  C_16 
REMARK    6  A    between atoms: C_16  and  C_17 
REMARK    7  A    between atoms: C_20  and  O_21 
REMARK    8  A    between atoms: C_26  and  N_27 
ROOT
HETATM    1  N   UNL     1     -42.204  57.703 -52.499  1.00  0.00    -0.248 N 
HETATM    2  N   UNL     1     -40.978  58.267 -52.450  1.00  0.00     0.007 NA
HETATM    3  N   UNL     1     -40.780  58.881 -53.605  1.00  0.00    -0.150 NA
HETATM    4  C   UNL     1     -41.893  58.688 -54.398  1.00  0.00     0.186 A 
HETATM    5  C   UNL     1     -42.825  57.939 -53.699  1.00  0.00     0.151 A 
ENDROOT
BRANCH   1   6
HETATM    6  C   UNL     1     -42.660  56.931 -51.369  1.00  0.00     0.251 C 
BRANCH   6   7
HETATM    7  C   UNL     1     -42.460  55.447 -51.582  1.00  0.00     0.241 C 
HETATM    8  N   UNL     1     -41.343  55.130 -52.341  1.00  0.00    -0.325 N 
HETATM    9  H   UNL     1     -40.895  55.915 -52.802  1.00  0.00     0.169 HD
HETATM   10  O   UNL     1     -43.321  54.660 -51.195  1.00  0.00    -0.271 OA
BRANCH   8  11
HETATM   11  C   UNL     1     -40.970  53.845 -52.808  1.00  0.00     0.046 A 
HETATM   12  C   UNL     1     -40.174  53.053 -51.943  1.00  0.00    -0.034 A 
HETATM   13  C   UNL     1     -39.702  51.801 -52.378  1.00  0.00     0.015 A 
HETATM   14  C   UNL     1     -39.765  53.519 -50.568  1.00  0.00     0.050 C 
HETATM   15  C   UNL     1     -40.019  51.311 -53.643  1.00  0.00    -0.061 A 
HETATM   16  C   UNL     1     -39.483  49.997 -54.125  1.00  0.00     0.048 C 
HETATM   17  C   UNL     1     -40.857  52.069 -54.464  1.00  0.00     0.015 A 
HETATM   18  C   UNL     1     -41.371  53.314 -54.050  1.00  0.00    -0.034 A 
HETATM   19  C   UNL     1     -42.380  53.956 -54.966  1.00  0.00     0.050 C 
ENDBRANCH   8  11
ENDBRANCH   6   7
ENDBRANCH   1   6
BRANCH   5  20
HETATM   20  N   UNL     1     -44.054  57.478 -54.021  1.00  0.00    -0.382 N 
HETATM   21  H   UNL     1     -44.493  56.782 -53.410  1.00  0.00     0.157 HD
HETATM   22  H   UNL     1     -44.426  57.459 -54.967  1.00  0.00     0.157 HD
ENDBRANCH   5  20
BRANCH   4  23
HETATM   23  C   UNL     1     -41.990  59.216 -55.752  1.00  0.00     0.275 C 
HETATM   24  N   UNL     1     -42.285  58.249 -56.681  1.00  0.00    -0.351 N 
HETATM   25  H   UNL     1     -42.345  57.288 -56.360  1.00  0.00     0.163 HD
HETATM   26  O   UNL     1     -41.834  60.400 -56.033  1.00  0.00    -0.266 OA
BRANCH  24  27
HETATM   27  C   UNL     1     -42.492  58.536 -58.077  1.00  0.00     0.161 C 
BRANCH  27  28
HETATM   28  C   UNL     1     -43.937  58.882 -58.314  1.00  0.00    -0.040 A 
HETATM   29  C   UNL     1     -44.946  58.040 -57.827  1.00  0.00     0.011 A 
HETATM   30  C   UNL     1     -46.287  58.306 -58.111  1.00  0.00     0.037 A 
HETATM   31  C   UNL     1     -46.644  59.410 -58.887  1.00  0.00     0.068 A 
HETATM   32  C   UNL     1     -45.646  60.262 -59.361  1.00  0.00     0.037 A 
HETATM   33  C   UNL     1     -44.300  59.997 -59.080  1.00  0.00     0.011 A 
BRANCH  31  34
HETATM   34  O   UNL     1     -47.987  59.542 -59.107  1.00  0.00    -0.356 OA
HETATM   35  C   UNL     1     -48.599  60.736 -58.635  1.00  0.00     0.210 C 
ENDBRANCH  31  34
ENDBRANCH  27  28
ENDBRANCH  24  27
ENDBRANCH   4  23
TORSDOF 8
ENDMDL
