MODEL 1
REMARK VINA RESULT:     -10.4      0.000      0.000
REMARK  7 active torsions:
REMARK  status: ('A' for Active; 'I' for Inactive)
REMARK    1  A    between atoms: C_2  and  C_3 
REMARK    2  A    between atoms: C_4  and  N_5 
REMARK    3  A    between atoms: N_5  and  C_6 
REMARK    4  A    between atoms: C_8  and  N_9 
REMARK    5  A    between atoms: C_11  and  C_12 
REMARK    6  A    between atoms: C_12  and  N_13 
REMARK    7  A    between atoms: C_17  and  C_18 
ROOT
HETATM    1  C   UNL     1     -42.632  58.192 -51.967  1.00  0.00     0.218 C 
ENDROOT
BRANCH   1   2
HETATM    2  C   UNL     1     -42.628  56.727 -51.568  1.00  0.00     0.166 A 
HETATM    3  N   UNL     1     -43.739  56.207 -51.039  1.00  0.00    -0.200 NA
HETATM    4  C   UNL     1     -43.674  54.920 -50.750  1.00  0.00     0.219 A 
HETATM    5  N   UNL     1     -42.638  54.141 -50.994  1.00  0.00    -0.031 NA
HETATM    6  C   UNL     1     -41.572  54.730 -51.527  1.00  0.00     0.731 A 
HETATM    7  N   UNL     1     -41.518  56.028 -51.820  1.00  0.00    -0.045 NA
BRANCH   4   8
HETATM    8  N   UNL     1     -44.794  54.337 -50.194  1.00  0.00    -0.270 NA
HETATM    9  H   UNL     1     -44.646  54.175 -49.208  1.00  0.00     0.127 HD
HETATM   10  H   UNL     1     -45.099  53.552 -50.752  1.00  0.00     0.127 HD
ENDBRANCH   4   8
BRANCH   6  11
HETATM   11  N   UNL     1     -40.409  54.006 -51.782  1.00  0.00    -0.188 N 
HETATM   12  H   UNL     1     -39.610  54.622 -51.776  1.00  0.00     0.184 HD
BRANCH  11  13
HETATM   13  C   UNL     1     -40.196  52.727 -52.322  1.00  0.00     0.055 A 
HETATM   14  C   UNL     1     -40.333  52.508 -53.713  1.00  0.00    -0.031 A 
HETATM   15  C   UNL     1     -40.106  51.222 -54.243  1.00  0.00     0.009 A 
HETATM   16  C   UNL     1     -39.722  50.165 -53.423  1.00  0.00     0.001 A 
HETATM   17  C   UNL     1     -39.552  50.380 -52.062  1.00  0.00     0.002 A 
HETATM   18  C   UNL     1     -39.777  51.650 -51.524  1.00  0.00     0.030 A 
BRANCH  14  19
HETATM   19  C   UNL     1     -40.715  53.610 -54.677  1.00  0.00     0.036 C 
HETATM   20  C   UNL     1     -42.219  53.688 -54.885  1.00  0.00     0.010 C 
ENDBRANCH  14  19
ENDBRANCH  11  13
ENDBRANCH   6  11
ENDBRANCH   1   2
BRANCH   1  21
HETATM   21  N   UNL     1     -42.669  58.394 -53.399  1.00  0.00    -0.260 N 
HETATM   22  C   UNL     1     -41.667  58.965 -54.110  1.00  0.00     0.326 A 
HETATM   23  O   UNL     1     -40.562  59.283 -53.706  1.00  0.00    -0.247 OA
HETATM   24  N   UNL     1     -42.093  59.145 -55.401  1.00  0.00    -0.321 N 
HETATM   25  C   UNL     1     -43.483  58.784 -55.593  1.00  0.00     0.140 A 
HETATM   26  H   UNL     1     -41.489  59.567 -56.092  1.00  0.00     0.165 HD
HETATM   27  C   UNL     1     -44.340  60.033 -55.826  1.00  0.00     0.054 C 
HETATM   28  C   UNL     1     -43.790  58.261 -54.168  1.00  0.00     0.261 A 
HETATM   29  O   UNL     1     -44.872  57.839 -53.776  1.00  0.00    -0.270 OA
BRANCH  25  30
HETATM   30  C   UNL     1     -43.616  57.773 -56.726  1.00  0.00    -0.020 A 
HETATM   31  C   UNL     1     -44.677  57.897 -57.647  1.00  0.00     0.022 A 
HETATM   32  C   UNL     1     -44.856  56.989 -58.708  1.00  0.00    -0.025 A 
HETATM   33  C   UNL     1     -43.947  55.922 -58.860  1.00  0.00    -0.026 A 
HETATM   34  C   UNL     1     -45.919  57.120 -59.617  1.00  0.00     0.012 A 
HETATM   35  C   UNL     1     -42.890  55.792 -57.949  1.00  0.00     0.013 A 
HETATM   36  C   UNL     1     -44.123  55.013 -59.917  1.00  0.00     0.012 A 
HETATM   37  C   UNL     1     -42.727  56.702 -56.899  1.00  0.00     0.011 A 
HETATM   38  C   UNL     1     -45.184  55.156 -60.812  1.00  0.00     0.001 A 
HETATM   39  C   UNL     1     -46.081  56.209 -60.662  1.00  0.00     0.001 A 
ENDBRANCH  25  30
ENDBRANCH   1  21
TORSDOF 7
ENDMDL
MODEL 2
REMARK VINA RESULT:      -9.9      1.478      7.815
REMARK  7 active torsions:
REMARK  status: ('A' for Active; 'I' for Inactive)
REMARK    1  A    between atoms: C_2  and  C_3 
REMARK    2  A    between atoms: C_4  and  N_5 
REMARK    3  A    between atoms: N_5  and  C_6 
REMARK    4  A    between atoms: C_8  and  N_9 
REMARK    5  A    between atoms: C_11  and  C_12 
REMARK    6  A    between atoms: C_12  and  N_13 
REMARK    7  A    between atoms: C_17  and  C_18 
ROOT
HETATM    1  C   UNL     1     -42.679  59.349 -53.739  1.00  0.00     0.218 C 
ENDROOT
BRANCH   1   2
HETATM    2  C   UNL     1     -42.576  59.304 -55.253  1.00  0.00     0.166 A 
HETATM    3  N   UNL     1     -41.819  60.216 -55.868  1.00  0.00    -0.200 NA
HETATM    4  C   UNL     1     -41.748  60.094 -57.181  1.00  0.00     0.219 A 
HETATM    5  N   UNL     1     -42.314  59.130 -57.883  1.00  0.00    -0.031 NA
HETATM    6  C   UNL     1     -43.046  58.257 -57.199  1.00  0.00     0.731 A 
HETATM    7  N   UNL     1     -43.215  58.313 -55.879  1.00  0.00    -0.045 NA
BRANCH   4   8
HETATM    8  N   UNL     1     -40.984  61.017 -57.865  1.00  0.00    -0.270 NA
HETATM    9  H   UNL     1     -41.420  61.928 -57.820  1.00  0.00     0.127 HD
HETATM   10  H   UNL     1     -40.738  60.666 -58.779  1.00  0.00     0.127 HD
ENDBRANCH   4   8
BRANCH   6  11
HETATM   11  N   UNL     1     -43.723  57.227 -57.850  1.00  0.00    -0.188 N 
HETATM   12  H   UNL     1     -43.151  56.397 -57.872  1.00  0.00     0.184 HD
BRANCH  11  13
HETATM   13  C   UNL     1     -44.843  57.226 -58.698  1.00  0.00     0.055 A 
HETATM   14  C   UNL     1     -45.030  56.178 -59.630  1.00  0.00    -0.031 A 
HETATM   15  C   UNL     1     -46.163  56.183 -60.468  1.00  0.00     0.009 A 
HETATM   16  C   UNL     1     -47.120  57.189 -60.376  1.00  0.00     0.001 A 
HETATM   17  C   UNL     1     -46.961  58.203 -59.440  1.00  0.00     0.002 A 
HETATM   18  C   UNL     1     -45.839  58.211 -58.606  1.00  0.00     0.030 A 
BRANCH  14  19
HETATM   19  C   UNL     1     -44.055  55.029 -59.771  1.00  0.00     0.036 C 
HETATM   20  C   UNL     1     -44.734  53.681 -59.588  1.00  0.00     0.010 C 
ENDBRANCH  14  19
ENDBRANCH  11  13
ENDBRANCH   6  11
ENDBRANCH   1   2
BRANCH   1  21
HETATM   21  N   UNL     1     -42.539  58.050 -53.117  1.00  0.00    -0.260 N 
HETATM   22  C   UNL     1     -43.555  57.381 -52.522  1.00  0.00     0.326 A 
HETATM   23  O   UNL     1     -44.735  57.686 -52.513  1.00  0.00    -0.247 OA
HETATM   24  N   UNL     1     -43.045  56.269 -51.903  1.00  0.00    -0.321 N 
HETATM   25  C   UNL     1     -41.599  56.196 -51.974  1.00  0.00     0.140 A 
HETATM   26  H   UNL     1     -43.647  55.638 -51.394  1.00  0.00     0.165 HD
HETATM   27  C   UNL     1     -40.978  56.447 -50.595  1.00  0.00     0.054 C 
HETATM   28  C   UNL     1     -41.341  57.452 -52.842  1.00  0.00     0.261 A 
HETATM   29  O   UNL     1     -40.243  57.872 -53.190  1.00  0.00    -0.270 OA
BRANCH  25  30
HETATM   30  C   UNL     1     -41.164  54.863 -52.569  1.00  0.00    -0.020 A 
HETATM   31  C   UNL     1     -40.743  53.823 -51.713  1.00  0.00     0.022 A 
HETATM   32  C   UNL     1     -40.322  52.574 -52.206  1.00  0.00    -0.025 A 
HETATM   33  C   UNL     1     -40.321  52.348 -53.597  1.00  0.00    -0.026 A 
HETATM   34  C   UNL     1     -39.901  51.548 -51.344  1.00  0.00     0.012 A 
HETATM   35  C   UNL     1     -40.738  53.375 -54.454  1.00  0.00     0.013 A 
HETATM   36  C   UNL     1     -39.900  51.103 -54.093  1.00  0.00     0.012 A 
HETATM   37  C   UNL     1     -41.153  54.613 -53.949  1.00  0.00     0.011 A 
HETATM   38  C   UNL     1     -39.484  50.093 -53.224  1.00  0.00     0.001 A 
HETATM   39  C   UNL     1     -39.484  50.315 -51.851  1.00  0.00     0.001 A 
ENDBRANCH  25  30
ENDBRANCH   1  21
TORSDOF 7
ENDMDL
MODEL 3
REMARK VINA RESULT:      -9.8      1.456      7.646
REMARK  7 active torsions:
REMARK  status: ('A' for Active; 'I' for Inactive)
REMARK    1  A    between atoms: C_2  and  C_3 
REMARK    2  A    between atoms: C_4  and  N_5 
REMARK    3  A    between atoms: N_5  and  C_6 
REMARK    4  A    between atoms: C_8  and  N_9 
REMARK    5  A    between atoms: C_11  and  C_12 
REMARK    6  A    between atoms: C_12  and  N_13 
REMARK    7  A    between atoms: C_17  and  C_18 
ROOT
HETATM    1  C   UNL     1     -42.647  59.616 -53.716  1.00  0.00     0.218 C 
ENDROOT
BRANCH   1   2
HETATM    2  C   UNL     1     -42.729  59.596 -55.233  1.00  0.00     0.166 A 
HETATM    3  N   UNL     1     -41.778  60.225 -55.930  1.00  0.00    -0.200 NA
HETATM    4  C   UNL     1     -41.894  60.135 -57.243  1.00  0.00     0.219 A 
HETATM    5  N   UNL     1     -42.822  59.443 -57.876  1.00  0.00    -0.031 NA
HETATM    6  C   UNL     1     -43.728  58.841 -57.113  1.00  0.00     0.731 A 
HETATM    7  N   UNL     1     -43.727  58.900 -55.782  1.00  0.00    -0.045 NA
BRANCH   4   8
HETATM    8  N   UNL     1     -40.941  60.774 -58.009  1.00  0.00    -0.270 NA
HETATM    9  H   UNL     1     -41.383  61.253 -58.782  1.00  0.00     0.127 HD
HETATM   10  H   UNL     1     -40.181  60.145 -58.228  1.00  0.00     0.127 HD
ENDBRANCH   4   8
BRANCH   6  11
HETATM   11  N   UNL     1     -44.778  58.122 -57.682  1.00  0.00    -0.188 N 
HETATM   12  H   UNL     1     -45.618  58.247 -57.139  1.00  0.00     0.184 HD
BRANCH  11  13
HETATM   13  C   UNL     1     -44.803  57.077 -58.622  1.00  0.00     0.055 A 
HETATM   14  C   UNL     1     -45.868  56.975 -59.546  1.00  0.00    -0.031 A 
HETATM   15  C   UNL     1     -45.877  55.929 -60.490  1.00  0.00     0.009 A 
HETATM   16  C   UNL     1     -44.836  55.006 -60.548  1.00  0.00     0.001 A 
HETATM   17  C   UNL     1     -43.769  55.120 -59.667  1.00  0.00     0.002 A 
HETATM   18  C   UNL     1     -43.752  56.151 -58.723  1.00  0.00     0.030 A 
BRANCH  14  19
HETATM   19  C   UNL     1     -47.021  57.956 -59.572  1.00  0.00     0.036 C 
HETATM   20  C   UNL     1     -46.787  59.083 -60.566  1.00  0.00     0.010 C 
ENDBRANCH  14  19
ENDBRANCH  11  13
ENDBRANCH   6  11
ENDBRANCH   1   2
BRANCH   1  21
HETATM   21  N   UNL     1     -42.554  58.296 -53.132  1.00  0.00    -0.260 N 
HETATM   22  C   UNL     1     -43.591  57.653 -52.543  1.00  0.00     0.326 A 
HETATM   23  O   UNL     1     -44.757  58.005 -52.512  1.00  0.00    -0.247 OA
HETATM   24  N   UNL     1     -43.120  56.505 -51.960  1.00  0.00    -0.321 N 
HETATM   25  C   UNL     1     -41.679  56.375 -52.048  1.00  0.00     0.140 A 
HETATM   26  H   UNL     1     -43.742  55.885 -51.461  1.00  0.00     0.165 HD
HETATM   27  C   UNL     1     -41.034  56.564 -50.671  1.00  0.00     0.054 C 
HETATM   28  C   UNL     1     -41.379  57.643 -52.886  1.00  0.00     0.261 A 
HETATM   29  O   UNL     1     -40.269  58.027 -53.235  1.00  0.00    -0.270 OA
BRANCH  25  30
HETATM   30  C   UNL     1     -41.305  55.042 -52.684  1.00  0.00    -0.020 A 
HETATM   31  C   UNL     1     -40.742  54.024 -51.885  1.00  0.00     0.022 A 
HETATM   32  C   UNL     1     -40.369  52.776 -52.418  1.00  0.00    -0.025 A 
HETATM   33  C   UNL     1     -40.563  52.530 -53.792  1.00  0.00    -0.026 A 
HETATM   34  C   UNL     1     -39.806  51.772 -51.613  1.00  0.00     0.012 A 
HETATM   35  C   UNL     1     -41.121  53.535 -54.593  1.00  0.00     0.013 A 
HETATM   36  C   UNL     1     -40.190  51.285 -54.329  1.00  0.00     0.012 A 
HETATM   37  C   UNL     1     -41.486  54.772 -54.048  1.00  0.00     0.011 A 
HETATM   38  C   UNL     1     -39.632  50.298 -53.516  1.00  0.00     0.001 A 
HETATM   39  C   UNL     1     -39.440  50.540 -52.160  1.00  0.00     0.001 A 
ENDBRANCH  25  30
ENDBRANCH   1  21
TORSDOF 7
ENDMDL
MODEL 4
REMARK VINA RESULT:      -9.6      1.916      7.302
REMARK  7 active torsions:
REMARK  status: ('A' for Active; 'I' for Inactive)
REMARK    1  A    between atoms: C_2  and  C_3 
REMARK    2  A    between atoms: C_4  and  N_5 
REMARK    3  A    between atoms: N_5  and  C_6 
REMARK    4  A    between atoms: C_8  and  N_9 
REMARK    5  A    between atoms: C_11  and  C_12 
REMARK    6  A    between atoms: C_12  and  N_13 
REMARK    7  A    between atoms: C_17  and  C_18 
ROOT
HETATM    1  C   UNL     1     -43.192  59.352 -51.754  1.00  0.00     0.218 C 
ENDROOT
BRANCH   1   2
HETATM    2  C   UNL     1     -43.594  59.661 -53.186  1.00  0.00     0.166 A 
HETATM    3  N   UNL     1     -44.813  60.157 -53.413  1.00  0.00    -0.200 NA
HETATM    4  C   UNL     1     -45.079  60.436 -54.676  1.00  0.00     0.219 A 
HETATM    5  N   UNL     1     -44.227  60.308 -55.675  1.00  0.00    -0.031 NA
HETATM    6  C   UNL     1     -43.032  59.813 -55.369  1.00  0.00     0.731 A 
HETATM    7  N   UNL     1     -42.675  59.463 -54.134  1.00  0.00    -0.045 NA
BRANCH   4   8
HETATM    8  N   UNL     1     -46.329  60.944 -54.965  1.00  0.00    -0.270 NA
HETATM    9  H   UNL     1     -47.041  60.272 -54.715  1.00  0.00     0.127 HD
HETATM   10  H   UNL     1     -46.352  61.317 -55.903  1.00  0.00     0.127 HD
ENDBRANCH   4   8
BRANCH   6  11
HETATM   11  N   UNL     1     -42.074  59.596 -56.357  1.00  0.00    -0.188 N 
HETATM   12  H   UNL     1     -41.248  60.141 -56.164  1.00  0.00     0.184 HD
BRANCH  11  13
HETATM   13  C   UNL     1     -42.160  59.045 -57.647  1.00  0.00     0.055 A 
HETATM   14  C   UNL     1     -42.501  57.683 -57.819  1.00  0.00    -0.031 A 
HETATM   15  C   UNL     1     -42.594  57.145 -59.118  1.00  0.00     0.009 A 
HETATM   16  C   UNL     1     -42.383  57.939 -60.240  1.00  0.00     0.001 A 
HETATM   17  C   UNL     1     -42.082  59.285 -60.081  1.00  0.00     0.002 A 
HETATM   18  C   UNL     1     -41.983  59.830 -58.798  1.00  0.00     0.030 A 
BRANCH  14  19
HETATM   19  C   UNL     1     -42.779  56.759 -56.652  1.00  0.00     0.036 C 
HETATM   20  C   UNL     1     -42.881  55.306 -57.089  1.00  0.00     0.010 C 
ENDBRANCH  14  19
ENDBRANCH  11  13
ENDBRANCH   6  11
ENDBRANCH   1   2
BRANCH   1  21
HETATM   21  N   UNL     1     -42.996  57.939 -51.508  1.00  0.00    -0.260 N 
HETATM   22  C   UNL     1     -43.967  57.105 -51.067  1.00  0.00     0.326 A 
HETATM   23  O   UNL     1     -45.151  57.358 -50.925  1.00  0.00    -0.247 OA
HETATM   24  N   UNL     1     -43.405  55.885 -50.791  1.00  0.00    -0.321 N 
HETATM   25  C   UNL     1     -41.964  55.880 -50.942  1.00  0.00     0.140 A 
HETATM   26  H   UNL     1     -43.967  55.122 -50.441  1.00  0.00     0.165 HD
HETATM   27  C   UNL     1     -41.277  55.776 -49.576  1.00  0.00     0.054 C 
HETATM   28  C   UNL     1     -41.775  57.328 -51.455  1.00  0.00     0.261 A 
HETATM   29  O   UNL     1     -40.704  57.860 -51.728  1.00  0.00    -0.270 OA
BRANCH  25  30
HETATM   30  C   UNL     1     -41.535  54.767 -51.890  1.00  0.00    -0.020 A 
HETATM   31  C   UNL     1     -40.866  53.635 -51.376  1.00  0.00     0.022 A 
HETATM   32  C   UNL     1     -40.438  52.580 -52.204  1.00  0.00    -0.025 A 
HETATM   33  C   UNL     1     -40.685  52.650 -53.590  1.00  0.00    -0.026 A 
HETATM   34  C   UNL     1     -39.770  51.461 -51.681  1.00  0.00     0.012 A 
HETATM   35  C   UNL     1     -41.348  53.770 -54.108  1.00  0.00     0.013 A 
HETATM   36  C   UNL     1     -40.258  51.600 -54.420  1.00  0.00     0.012 A 
HETATM   37  C   UNL     1     -41.766  54.812 -53.272  1.00  0.00     0.011 A 
HETATM   38  C   UNL     1     -39.595  50.494 -53.886  1.00  0.00     0.001 A 
HETATM   39  C   UNL     1     -39.351  50.424 -52.518  1.00  0.00     0.001 A 
ENDBRANCH  25  30
ENDBRANCH   1  21
TORSDOF 7
ENDMDL
MODEL 5
REMARK VINA RESULT:      -9.4      1.932      7.455
REMARK  7 active torsions:
REMARK  status: ('A' for Active; 'I' for Inactive)
REMARK    1  A    between atoms: C_2  and  C_3 
REMARK    2  A    between atoms: C_4  and  N_5 
REMARK    3  A    between atoms: N_5  and  C_6 
REMARK    4  A    between atoms: C_8  and  N_9 
REMARK    5  A    between atoms: C_11  and  C_12 
REMARK    6  A    between atoms: C_12  and  N_13 
REMARK    7  A    between atoms: C_17  and  C_18 
ROOT
HETATM    1  C   UNL     1     -44.539  57.570 -52.588  1.00  0.00     0.218 C 
ENDROOT
BRANCH   1   2
HETATM    2  C   UNL     1     -44.895  58.569 -53.675  1.00  0.00     0.166 A 
HETATM    3  N   UNL     1     -44.936  59.866 -53.360  1.00  0.00    -0.200 NA
HETATM    4  C   UNL     1     -45.217  60.679 -54.363  1.00  0.00     0.219 A 
HETATM    5  N   UNL     1     -45.396  60.302 -55.614  1.00  0.00    -0.031 NA
HETATM    6  C   UNL     1     -45.333  58.996 -55.850  1.00  0.00     0.731 A 
HETATM    7  N   UNL     1     -45.096  58.088 -54.904  1.00  0.00    -0.045 NA
BRANCH   4   8
HETATM    8  N   UNL     1     -45.279  62.029 -54.088  1.00  0.00    -0.270 NA
HETATM    9  H   UNL     1     -46.063  62.222 -53.479  1.00  0.00     0.127 HD
HETATM   10  H   UNL     1     -45.210  62.568 -54.939  1.00  0.00     0.127 HD
ENDBRANCH   4   8
BRANCH   6  11
HETATM   11  N   UNL     1     -45.553  58.489 -57.129  1.00  0.00    -0.188 N 
HETATM   12  H   UNL     1     -46.538  58.328 -57.274  1.00  0.00     0.184 HD
BRANCH  11  13
HETATM   13  C   UNL     1     -44.689  57.904 -58.071  1.00  0.00     0.055 A 
HETATM   14  C   UNL     1     -45.214  57.227 -59.197  1.00  0.00    -0.031 A 
HETATM   15  C   UNL     1     -44.338  56.654 -60.139  1.00  0.00     0.009 A 
HETATM   16  C   UNL     1     -42.958  56.766 -59.996  1.00  0.00     0.001 A 
HETATM   17  C   UNL     1     -42.435  57.458 -58.913  1.00  0.00     0.002 A 
HETATM   18  C   UNL     1     -43.294  58.028 -57.969  1.00  0.00     0.030 A 
BRANCH  14  19
HETATM   19  C   UNL     1     -46.701  57.089 -59.443  1.00  0.00     0.036 C 
HETATM   20  C   UNL     1     -46.998  56.243 -60.672  1.00  0.00     0.010 C 
ENDBRANCH  14  19
ENDBRANCH  11  13
ENDBRANCH   6  11
ENDBRANCH   1   2
BRANCH   1  21
HETATM   21  N   UNL     1     -43.258  56.931 -52.796  1.00  0.00    -0.260 N 
HETATM   22  C   UNL     1     -42.067  57.503 -52.496  1.00  0.00     0.326 A 
HETATM   23  O   UNL     1     -41.880  58.557 -51.912  1.00  0.00    -0.247 OA
HETATM   24  N   UNL     1     -41.062  56.696 -52.964  1.00  0.00    -0.321 N 
HETATM   25  C   UNL     1     -41.554  55.559 -53.715  1.00  0.00     0.140 A 
HETATM   26  H   UNL     1     -40.093  56.954 -52.844  1.00  0.00     0.165 HD
HETATM   27  C   UNL     1     -41.236  55.717 -55.207  1.00  0.00     0.054 C 
HETATM   28  C   UNL     1     -43.074  55.794 -53.531  1.00  0.00     0.261 A 
HETATM   29  O   UNL     1     -43.970  55.102 -54.002  1.00  0.00    -0.270 OA
BRANCH  25  30
HETATM   30  C   UNL     1     -40.996  54.263 -53.140  1.00  0.00    -0.020 A 
HETATM   31  C   UNL     1     -40.802  53.153 -53.989  1.00  0.00     0.022 A 
HETATM   32  C   UNL     1     -40.299  51.927 -53.513  1.00  0.00    -0.025 A 
HETATM   33  C   UNL     1     -39.975  51.801 -52.147  1.00  0.00    -0.026 A 
HETATM   34  C   UNL     1     -40.113  50.828 -54.367  1.00  0.00     0.012 A 
HETATM   35  C   UNL     1     -40.165  52.899 -51.298  1.00  0.00     0.013 A 
HETATM   36  C   UNL     1     -39.474  50.579 -51.668  1.00  0.00     0.012 A 
HETATM   37  C   UNL     1     -40.668  54.110 -51.786  1.00  0.00     0.011 A 
HETATM   38  C   UNL     1     -39.295  49.496 -52.528  1.00  0.00     0.001 A 
HETATM   39  C   UNL     1     -39.614  49.619 -53.877  1.00  0.00     0.001 A 
ENDBRANCH  25  30
ENDBRANCH   1  21
TORSDOF 7
ENDMDL
MODEL 6
REMARK VINA RESULT:      -9.2      3.350      8.775
REMARK  7 active torsions:
REMARK  status: ('A' for Active; 'I' for Inactive)
REMARK    1  A    between atoms: C_2  and  C_3 
REMARK    2  A    between atoms: C_4  and  N_5 
REMARK    3  A    between atoms: N_5  and  C_6 
REMARK    4  A    between atoms: C_8  and  N_9 
REMARK    5  A    between atoms: C_11  and  C_12 
REMARK    6  A    between atoms: C_12  and  N_13 
REMARK    7  A    between atoms: C_17  and  C_18 
ROOT
HETATM    1  C   UNL     1     -42.586  59.025 -54.452  1.00  0.00     0.218 C 
ENDROOT
BRANCH   1   2
HETATM    2  C   UNL     1     -42.504  58.836 -55.956  1.00  0.00     0.166 A 
HETATM    3  N   UNL     1     -42.465  57.592 -56.441  1.00  0.00    -0.200 NA
HETATM    4  C   UNL     1     -42.431  57.504 -57.758  1.00  0.00     0.219 A 
HETATM    5  N   UNL     1     -42.486  58.529 -58.587  1.00  0.00    -0.031 NA
HETATM    6  C   UNL     1     -42.529  59.734 -58.029  1.00  0.00     0.731 A 
HETATM    7  N   UNL     1     -42.528  59.936 -56.712  1.00  0.00    -0.045 NA
BRANCH   4   8
HETATM    8  N   UNL     1     -42.382  56.241 -58.310  1.00  0.00    -0.270 NA
HETATM    9  H   UNL     1     -42.917  56.216 -59.167  1.00  0.00     0.127 HD
HETATM   10  H   UNL     1     -42.593  55.541 -57.612  1.00  0.00     0.127 HD
ENDBRANCH   4   8
BRANCH   6  11
HETATM   11  N   UNL     1     -42.544  60.886 -58.814  1.00  0.00    -0.188 N 
HETATM   12  H   UNL     1     -43.471  61.047 -59.176  1.00  0.00     0.184 HD
BRANCH  11  13
HETATM   13  C   UNL     1     -41.513  61.631 -59.411  1.00  0.00     0.055 A 
HETATM   14  C   UNL     1     -41.415  61.712 -60.820  1.00  0.00    -0.031 A 
HETATM   15  C   UNL     1     -40.382  62.471 -61.406  1.00  0.00     0.009 A 
HETATM   16  C   UNL     1     -39.470  63.169 -60.620  1.00  0.00     0.001 A 
HETATM   17  C   UNL     1     -39.580  63.123 -59.237  1.00  0.00     0.002 A 
HETATM   18  C   UNL     1     -40.598  62.370 -58.644  1.00  0.00     0.030 A 
BRANCH  14  19
HETATM   19  C   UNL     1     -42.386  61.011 -61.745  1.00  0.00     0.036 C 
HETATM   20  C   UNL     1     -43.193  61.997 -62.575  1.00  0.00     0.010 C 
ENDBRANCH  14  19
ENDBRANCH  11  13
ENDBRANCH   6  11
ENDBRANCH   1   2
BRANCH   1  21
HETATM   21  N   UNL     1     -42.502  57.783 -53.714  1.00  0.00    -0.260 N 
HETATM   22  C   UNL     1     -43.570  57.148 -53.175  1.00  0.00     0.326 A 
HETATM   23  O   UNL     1     -44.747  57.433 -53.314  1.00  0.00    -0.247 OA
HETATM   24  N   UNL     1     -43.119  56.098 -52.417  1.00  0.00    -0.321 N 
HETATM   25  C   UNL     1     -41.674  56.043 -52.330  1.00  0.00     0.140 A 
HETATM   26  H   UNL     1     -43.766  55.500 -51.923  1.00  0.00     0.165 HD
HETATM   27  C   UNL     1     -41.202  56.415 -50.920  1.00  0.00     0.054 C 
HETATM   28  C   UNL     1     -41.336  57.228 -53.268  1.00  0.00     0.261 A 
HETATM   29  O   UNL     1     -40.210  57.636 -53.533  1.00  0.00    -0.270 OA
BRANCH  25  30
HETATM   30  C   UNL     1     -41.168  54.673 -52.766  1.00  0.00    -0.020 A 
HETATM   31  C   UNL     1     -40.804  53.723 -51.788  1.00  0.00     0.022 A 
HETATM   32  C   UNL     1     -40.323  52.445 -52.130  1.00  0.00    -0.025 A 
HETATM   33  C   UNL     1     -40.201  52.098 -53.491  1.00  0.00    -0.026 A 
HETATM   34  C   UNL     1     -39.960  51.510 -51.148  1.00  0.00     0.012 A 
HETATM   35  C   UNL     1     -40.560  53.036 -54.468  1.00  0.00     0.013 A 
HETATM   36  C   UNL     1     -39.719  50.824 -53.836  1.00  0.00     0.012 A 
HETATM   37  C   UNL     1     -41.036  54.303 -54.112  1.00  0.00     0.011 A 
HETATM   38  C   UNL     1     -39.363  49.905 -52.849  1.00  0.00     0.001 A 
HETATM   39  C   UNL     1     -39.483  50.247 -51.505  1.00  0.00     0.001 A 
ENDBRANCH  25  30
ENDBRANCH   1  21
TORSDOF 7
ENDMDL
MODEL 7
REMARK VINA RESULT:      -9.0      1.949      3.102
REMARK  7 active torsions:
REMARK  status: ('A' for Active; 'I' for Inactive)
REMARK    1  A    between atoms: C_2  and  C_3 
REMARK    2  A    between atoms: C_4  and  N_5 
REMARK    3  A    between atoms: N_5  and  C_6 
REMARK    4  A    between atoms: C_8  and  N_9 
REMARK    5  A    between atoms: C_11  and  C_12 
REMARK    6  A    between atoms: C_12  and  N_13 
REMARK    7  A    between atoms: C_17  and  C_18 
ROOT
HETATM    1  C   UNL     1     -43.821  60.539 -53.294  1.00  0.00     0.218 C 
ENDROOT
BRANCH   1   2
HETATM    2  C   UNL     1     -44.250  59.436 -52.341  1.00  0.00     0.166 A 
HETATM    3  N   UNL     1     -44.913  59.774 -51.232  1.00  0.00    -0.200 NA
HETATM    4  C   UNL     1     -45.285  58.761 -50.470  1.00  0.00     0.219 A 
HETATM    5  N   UNL     1     -45.095  57.487 -50.758  1.00  0.00    -0.031 NA
HETATM    6  C   UNL     1     -44.434  57.232 -51.882  1.00  0.00     0.731 A 
HETATM    7  N   UNL     1     -43.980  58.179 -52.701  1.00  0.00    -0.045 NA
BRANCH   4   8
HETATM    8  N   UNL     1     -45.966  59.058 -49.308  1.00  0.00    -0.270 NA
HETATM    9  H   UNL     1     -45.897  60.046 -49.109  1.00  0.00     0.127 HD
HETATM   10  H   UNL     1     -45.707  58.417 -48.571  1.00  0.00     0.127 HD
ENDBRANCH   4   8
BRANCH   6  11
HETATM   11  N   UNL     1     -44.141  55.921 -52.256  1.00  0.00    -0.188 N 
HETATM   12  H   UNL     1     -44.826  55.290 -51.871  1.00  0.00     0.184 HD
BRANCH  11  13
HETATM   13  C   UNL     1     -42.975  55.327 -52.768  1.00  0.00     0.055 A 
HETATM   14  C   UNL     1     -42.041  54.722 -51.895  1.00  0.00    -0.031 A 
HETATM   15  C   UNL     1     -40.881  54.120 -52.421  1.00  0.00     0.009 A 
HETATM   16  C   UNL     1     -40.650  54.086 -53.793  1.00  0.00     0.001 A 
HETATM   17  C   UNL     1     -41.579  54.647 -54.659  1.00  0.00     0.002 A 
HETATM   18  C   UNL     1     -42.731  55.250 -54.149  1.00  0.00     0.030 A 
BRANCH  14  19
HETATM   19  C   UNL     1     -42.233  54.686 -50.394  1.00  0.00     0.036 C 
HETATM   20  C   UNL     1     -41.359  55.708 -49.684  1.00  0.00     0.010 C 
ENDBRANCH  14  19
ENDBRANCH  11  13
ENDBRANCH   6  11
ENDBRANCH   1   2
BRANCH   1  21
HETATM   21  N   UNL     1     -43.316  60.040 -54.554  1.00  0.00    -0.260 N 
HETATM   22  C   UNL     1     -42.002  59.841 -54.819  1.00  0.00     0.326 A 
HETATM   23  O   UNL     1     -41.070  59.926 -54.038  1.00  0.00    -0.247 OA
HETATM   24  N   UNL     1     -41.866  59.520 -56.145  1.00  0.00    -0.321 N 
HETATM   25  C   UNL     1     -43.115  59.593 -56.876  1.00  0.00     0.140 A 
HETATM   26  H   UNL     1     -40.955  59.339 -56.543  1.00  0.00     0.165 HD
HETATM   27  C   UNL     1     -43.111  60.789 -57.836  1.00  0.00     0.054 C 
HETATM   28  C   UNL     1     -44.058  59.940 -55.697  1.00  0.00     0.261 A 
HETATM   29  O   UNL     1     -45.265  60.138 -55.777  1.00  0.00    -0.270 OA
BRANCH  25  30
HETATM   30  C   UNL     1     -43.387  58.277 -57.593  1.00  0.00    -0.020 A 
HETATM   31  C   UNL     1     -44.401  58.216 -58.573  1.00  0.00     0.022 A 
HETATM   32  C   UNL     1     -44.703  57.026 -59.262  1.00  0.00    -0.025 A 
HETATM   33  C   UNL     1     -43.971  55.857 -58.970  1.00  0.00    -0.026 A 
HETATM   34  C   UNL     1     -45.717  56.976 -60.232  1.00  0.00     0.012 A 
HETATM   35  C   UNL     1     -42.962  55.910 -57.998  1.00  0.00     0.013 A 
HETATM   36  C   UNL     1     -44.270  54.667 -59.654  1.00  0.00     0.012 A 
HETATM   37  C   UNL     1     -42.675  57.100 -57.321  1.00  0.00     0.011 A 
HETATM   38  C   UNL     1     -45.281  54.634 -60.616  1.00  0.00     0.001 A 
HETATM   39  C   UNL     1     -46.004  55.787 -60.905  1.00  0.00     0.001 A 
ENDBRANCH  25  30
ENDBRANCH   1  21
TORSDOF 7
ENDMDL
MODEL 8
REMARK VINA RESULT:      -9.0      4.310      5.816
REMARK  7 active torsions:
REMARK  status: ('A' for Active; 'I' for Inactive)
REMARK    1  A    between atoms: C_2  and  C_3 
REMARK    2  A    between atoms: C_4  and  N_5 
REMARK    3  A    between atoms: N_5  and  C_6 
REMARK    4  A    between atoms: C_8  and  N_9 
REMARK    5  A    between atoms: C_11  and  C_12 
REMARK    6  A    between atoms: C_12  and  N_13 
REMARK    7  A    between atoms: C_17  and  C_18 
ROOT
HETATM    1  C   UNL     1     -43.574  57.035 -57.403  1.00  0.00     0.218 C 
ENDROOT
BRANCH   1   2
HETATM    2  C   UNL     1     -42.842  56.980 -56.073  1.00  0.00     0.166 A 
HETATM    3  N   UNL     1     -42.231  58.084 -55.636  1.00  0.00    -0.200 NA
HETATM    4  C   UNL     1     -41.647  57.972 -54.456  1.00  0.00     0.219 A 
HETATM    5  N   UNL     1     -41.679  56.895 -53.695  1.00  0.00    -0.031 NA
HETATM    6  C   UNL     1     -42.312  55.839 -54.197  1.00  0.00     0.731 A 
HETATM    7  N   UNL     1     -42.900  55.833 -55.392  1.00  0.00    -0.045 NA
BRANCH   4   8
HETATM    8  N   UNL     1     -40.995  59.083 -53.962  1.00  0.00    -0.270 NA
HETATM    9  H   UNL     1     -40.018  59.052 -54.218  1.00  0.00     0.127 HD
HETATM   10  H   UNL     1     -41.215  59.219 -52.986  1.00  0.00     0.127 HD
ENDBRANCH   4   8
BRANCH   6  11
HETATM   11  N   UNL     1     -42.366  54.637 -53.493  1.00  0.00    -0.188 N 
HETATM   12  H   UNL     1     -43.130  54.655 -52.836  1.00  0.00     0.184 HD
BRANCH  11  13
HETATM   13  C   UNL     1     -41.427  53.606 -53.319  1.00  0.00     0.055 A 
HETATM   14  C   UNL     1     -40.772  53.441 -52.076  1.00  0.00    -0.031 A 
HETATM   15  C   UNL     1     -39.841  52.397 -51.911  1.00  0.00     0.009 A 
HETATM   16  C   UNL     1     -39.572  51.504 -52.944  1.00  0.00     0.001 A 
HETATM   17  C   UNL     1     -40.237  51.639 -54.156  1.00  0.00     0.002 A 
HETATM   18  C   UNL     1     -41.160  52.673 -54.333  1.00  0.00     0.030 A 
BRANCH  14  19
HETATM   19  C   UNL     1     -41.031  54.347 -50.892  1.00  0.00     0.036 C 
HETATM   20  C   UNL     1     -39.941  54.232 -49.838  1.00  0.00     0.010 C 
ENDBRANCH  14  19
ENDBRANCH  11  13
ENDBRANCH   6  11
ENDBRANCH   1   2
BRANCH   1  21
HETATM   21  N   UNL     1     -43.470  58.321 -58.059  1.00  0.00    -0.260 N 
HETATM   22  C   UNL     1     -44.338  59.342 -57.867  1.00  0.00     0.326 A 
HETATM   23  O   UNL     1     -45.246  59.398 -57.055  1.00  0.00    -0.247 OA
HETATM   24  N   UNL     1     -44.040  60.344 -58.756  1.00  0.00    -0.321 N 
HETATM   25  C   UNL     1     -42.987  59.982 -59.682  1.00  0.00     0.140 A 
HETATM   26  H   UNL     1     -44.582  61.196 -58.776  1.00  0.00     0.165 HD
HETATM   27  C   UNL     1     -43.552  59.788 -61.094  1.00  0.00     0.054 C 
HETATM   28  C   UNL     1     -42.644  58.583 -59.116  1.00  0.00     0.261 A 
HETATM   29  O   UNL     1     -41.802  57.812 -59.565  1.00  0.00    -0.270 OA
BRANCH  25  30
HETATM   30  C   UNL     1     -41.870  61.018 -59.645  1.00  0.00    -0.020 A 
HETATM   31  C   UNL     1     -41.360  61.534 -60.855  1.00  0.00     0.022 A 
HETATM   32  C   UNL     1     -40.323  62.486 -60.883  1.00  0.00    -0.025 A 
HETATM   33  C   UNL     1     -39.775  62.942 -59.667  1.00  0.00    -0.026 A 
HETATM   34  C   UNL     1     -39.821  62.990 -62.094  1.00  0.00     0.012 A 
HETATM   35  C   UNL     1     -40.276  62.434 -58.461  1.00  0.00     0.013 A 
HETATM   36  C   UNL     1     -38.739  63.891 -59.691  1.00  0.00     0.012 A 
HETATM   37  C   UNL     1     -41.306  61.487 -58.450  1.00  0.00     0.011 A 
HETATM   38  C   UNL     1     -38.250  64.382 -60.902  1.00  0.00     0.001 A 
HETATM   39  C   UNL     1     -38.790  63.933 -62.103  1.00  0.00     0.001 A 
ENDBRANCH  25  30
ENDBRANCH   1  21
TORSDOF 7
ENDMDL
MODEL 9
REMARK VINA RESULT:      -8.9      2.292      3.223
REMARK  7 active torsions:
REMARK  status: ('A' for Active; 'I' for Inactive)
REMARK    1  A    between atoms: C_2  and  C_3 
REMARK    2  A    between atoms: C_4  and  N_5 
REMARK    3  A    between atoms: N_5  and  C_6 
REMARK    4  A    between atoms: C_8  and  N_9 
REMARK    5  A    between atoms: C_11  and  C_12 
REMARK    6  A    between atoms: C_12  and  N_13 
REMARK    7  A    between atoms: C_17  and  C_18 
ROOT
HETATM    1  C   UNL     1     -43.035  57.364 -52.412  1.00  0.00     0.218 C 
ENDROOT
BRANCH   1   2
HETATM    2  C   UNL     1     -42.676  56.017 -53.015  1.00  0.00     0.166 A 
HETATM    3  N   UNL     1     -43.376  55.583 -54.066  1.00  0.00    -0.200 NA
HETATM    4  C   UNL     1     -42.985  54.422 -54.559  1.00  0.00     0.219 A 
HETATM    5  N   UNL     1     -41.951  53.725 -54.126  1.00  0.00    -0.031 NA
HETATM    6  C   UNL     1     -41.302  54.226 -53.081  1.00  0.00     0.731 A 
HETATM    7  N   UNL     1     -41.637  55.368 -52.483  1.00  0.00    -0.045 NA
BRANCH   4   8
HETATM    8  N   UNL     1     -43.681  53.925 -55.642  1.00  0.00    -0.270 NA
HETATM    9  H   UNL     1     -43.796  54.646 -56.339  1.00  0.00     0.127 HD
HETATM   10  H   UNL     1     -44.511  53.438 -55.336  1.00  0.00     0.127 HD
ENDBRANCH   4   8
BRANCH   6  11
HETATM   11  N   UNL     1     -40.223  53.546 -52.517  1.00  0.00    -0.188 N 
HETATM   12  H   UNL     1     -39.356  53.918 -52.871  1.00  0.00     0.184 HD
BRANCH  11  13
HETATM   13  C   UNL     1     -40.136  52.318 -51.839  1.00  0.00     0.055 A 
HETATM   14  C   UNL     1     -39.700  51.157 -52.520  1.00  0.00    -0.031 A 
HETATM   15  C   UNL     1     -39.606  49.934 -51.827  1.00  0.00     0.009 A 
HETATM   16  C   UNL     1     -39.910  49.853 -50.471  1.00  0.00     0.001 A 
HETATM   17  C   UNL     1     -40.306  50.995 -49.788  1.00  0.00     0.002 A 
HETATM   18  C   UNL     1     -40.406  52.213 -50.465  1.00  0.00     0.030 A 
BRANCH  14  19
HETATM   19  C   UNL     1     -39.319  51.167 -53.985  1.00  0.00     0.036 C 
HETATM   20  C   UNL     1     -39.813  49.925 -54.710  1.00  0.00     0.010 C 
ENDBRANCH  14  19
ENDBRANCH  11  13
ENDBRANCH   6  11
ENDBRANCH   1   2
BRANCH   1  21
HETATM   21  N   UNL     1     -42.676  58.483 -53.256  1.00  0.00    -0.260 N 
HETATM   22  C   UNL     1     -41.514  59.171 -53.149  1.00  0.00     0.326 A 
HETATM   23  O   UNL     1     -40.561  58.905 -52.438  1.00  0.00    -0.247 OA
HETATM   24  N   UNL     1     -41.568  60.255 -53.987  1.00  0.00    -0.321 N 
HETATM   25  C   UNL     1     -42.854  60.403 -54.638  1.00  0.00     0.140 A 
HETATM   26  H   UNL     1     -40.795  60.902 -54.047  1.00  0.00     0.165 HD
HETATM   27  C   UNL     1     -43.606  61.617 -54.082  1.00  0.00     0.054 C 
HETATM   28  C   UNL     1     -43.544  59.129 -54.090  1.00  0.00     0.261 A 
HETATM   29  O   UNL     1     -44.695  58.778 -54.325  1.00  0.00    -0.270 OA
BRANCH  25  30
HETATM   30  C   UNL     1     -42.676  60.477 -56.150  1.00  0.00    -0.020 A 
HETATM   31  C   UNL     1     -42.438  59.293 -56.880  1.00  0.00     0.022 A 
HETATM   32  C   UNL     1     -42.257  59.301 -58.277  1.00  0.00    -0.025 A 
HETATM   33  C   UNL     1     -42.318  60.525 -58.971  1.00  0.00    -0.026 A 
HETATM   34  C   UNL     1     -42.017  58.116 -58.993  1.00  0.00     0.012 A 
HETATM   35  C   UNL     1     -42.554  61.705 -58.253  1.00  0.00     0.013 A 
HETATM   36  C   UNL     1     -42.136  60.537 -60.365  1.00  0.00     0.012 A 
HETATM   37  C   UNL     1     -42.730  61.681 -56.865  1.00  0.00     0.011 A 
HETATM   38  C   UNL     1     -41.898  59.353 -61.062  1.00  0.00     0.001 A 
HETATM   39  C   UNL     1     -41.839  58.143 -60.377  1.00  0.00     0.001 A 
ENDBRANCH  25  30
ENDBRANCH   1  21
TORSDOF 7
ENDMDL
MODEL 10
REMARK VINA RESULT:      -8.7      2.825      9.018
REMARK  7 active torsions:
REMARK  status: ('A' for Active; 'I' for Inactive)
REMARK    1  A    between atoms: C_2  and  C_3 
REMARK    2  A    between atoms: C_4  and  N_5 
REMARK    3  A    between atoms: N_5  and  C_6 
REMARK    4  A    between atoms: C_8  and  N_9 
REMARK    5  A    between atoms: C_11  and  C_12 
REMARK    6  A    between atoms: C_12  and  N_13 
REMARK    7  A    between atoms: C_17  and  C_18 
ROOT
HETATM    1  C   UNL     1     -42.102  58.000 -58.086  1.00  0.00     0.218 C 
ENDROOT
BRANCH   1   2
HETATM    2  C   UNL     1     -43.234  58.957 -58.420  1.00  0.00     0.166 A 
HETATM    3  N   UNL     1     -42.956  60.258 -58.532  1.00  0.00    -0.200 NA
HETATM    4  C   UNL     1     -43.980  61.025 -58.860  1.00  0.00     0.219 A 
HETATM    5  N   UNL     1     -45.197  60.589 -59.125  1.00  0.00    -0.031 NA
HETATM    6  C   UNL     1     -45.394  59.281 -58.998  1.00  0.00     0.731 A 
HETATM    7  N   UNL     1     -44.440  58.425 -58.634  1.00  0.00    -0.045 NA
BRANCH   4   8
HETATM    8  N   UNL     1     -43.747  62.379 -58.981  1.00  0.00    -0.270 NA
HETATM    9  H   UNL     1     -44.270  62.884 -58.279  1.00  0.00     0.127 HD
HETATM   10  H   UNL     1     -43.857  62.674 -59.941  1.00  0.00     0.127 HD
ENDBRANCH   4   8
BRANCH   6  11
HETATM   11  N   UNL     1     -46.653  58.723 -59.211  1.00  0.00    -0.188 N 
HETATM   12  H   UNL     1     -46.975  58.265 -58.372  1.00  0.00     0.184 HD
BRANCH  11  13
HETATM   13  C   UNL     1     -47.366  58.429 -60.385  1.00  0.00     0.055 A 
HETATM   14  C   UNL     1     -47.384  57.110 -60.896  1.00  0.00    -0.031 A 
HETATM   15  C   UNL     1     -48.110  56.825 -62.069  1.00  0.00     0.009 A 
HETATM   16  C   UNL     1     -48.837  57.816 -62.722  1.00  0.00     0.001 A 
HETATM   17  C   UNL     1     -48.852  59.106 -62.208  1.00  0.00     0.002 A 
HETATM   18  C   UNL     1     -48.132  59.401 -61.047  1.00  0.00     0.030 A 
BRANCH  14  19
HETATM   19  C   UNL     1     -46.648  55.967 -60.229  1.00  0.00     0.036 C 
HETATM   20  C   UNL     1     -45.498  55.455 -61.082  1.00  0.00     0.010 C 
ENDBRANCH  14  19
ENDBRANCH  11  13
ENDBRANCH   6  11
ENDBRANCH   1   2
BRANCH   1  21
HETATM   21  N   UNL     1     -42.477  56.987 -57.124  1.00  0.00    -0.260 N 
HETATM   22  C   UNL     1     -43.105  55.831 -57.447  1.00  0.00     0.326 A 
HETATM   23  O   UNL     1     -43.344  55.406 -58.564  1.00  0.00    -0.247 OA
HETATM   24  N   UNL     1     -43.450  55.181 -56.289  1.00  0.00    -0.321 N 
HETATM   25  C   UNL     1     -43.148  55.950 -55.098  1.00  0.00     0.140 A 
HETATM   26  H   UNL     1     -43.937  54.297 -56.317  1.00  0.00     0.165 HD
HETATM   27  C   UNL     1     -44.437  56.447 -54.434  1.00  0.00     0.054 C 
HETATM   28  C   UNL     1     -42.465  57.167 -55.769  1.00  0.00     0.261 A 
HETATM   29  O   UNL     1     -42.025  58.154 -55.190  1.00  0.00    -0.270 OA
BRANCH  25  30
HETATM   30  C   UNL     1     -42.285  55.132 -54.145  1.00  0.00    -0.020 A 
HETATM   31  C   UNL     1     -41.697  53.931 -54.595  1.00  0.00     0.022 A 
HETATM   32  C   UNL     1     -40.898  53.131 -53.758  1.00  0.00    -0.025 A 
HETATM   33  C   UNL     1     -40.674  53.538 -52.427  1.00  0.00    -0.026 A 
HETATM   34  C   UNL     1     -40.321  51.935 -54.216  1.00  0.00     0.012 A 
HETATM   35  C   UNL     1     -41.254  54.729 -51.972  1.00  0.00     0.013 A 
HETATM   36  C   UNL     1     -39.878  52.740 -51.587  1.00  0.00     0.012 A 
HETATM   37  C   UNL     1     -42.047  55.513 -52.817  1.00  0.00     0.011 A 
HETATM   38  C   UNL     1     -39.312  51.555 -52.058  1.00  0.00     0.001 A 
HETATM   39  C   UNL     1     -39.533  51.152 -53.371  1.00  0.00     0.001 A 
ENDBRANCH  25  30
ENDBRANCH   1  21
TORSDOF 7
ENDMDL
