MODEL 1
REMARK VINA RESULT:      -8.1      0.000      0.000
REMARK  7 active torsions:
REMARK  status: ('A' for Active; 'I' for Inactive)
REMARK    1  A    between atoms: C_3  and  O_4 
REMARK    2  A    between atoms: O_4  and  C_5 
REMARK    3  A    between atoms: C_5  and  C_6 
REMARK    4  A    between atoms: C_7  and  C_8 
REMARK    5  A    between atoms: C_8  and  N_9 
REMARK       I    between atoms: N_9  and  C_10 
REMARK    6  A    between atoms: C_10  and  C_11 
REMARK    7  A    between atoms: C_15  and  C_16 
ROOT
HETATM    1  N   UNL     1     -43.687  56.626 -53.881  1.00  0.00    -0.345 N 
HETATM    2  C   UNL     1     -42.361  56.742 -54.214  1.00  0.00     0.270 C 
HETATM    3  O   UNL     1     -41.830  57.813 -54.487  1.00  0.00    -0.266 OA
HETATM    4  H   UNL     1     -44.041  55.742 -53.555  1.00  0.00     0.163 HD
ENDROOT
BRANCH   1   5
HETATM    5  C   UNL     1     -44.544  57.778 -53.750  1.00  0.00     0.217 C 
BRANCH   5   6
HETATM    6  C   UNL     1     -45.141  58.104 -55.047  1.00  0.00    -0.085 C 
HETATM    7  C   UNL     1     -45.607  58.373 -56.123  1.00  0.00    -0.078 C 
BRANCH   7   8
HETATM    8  C   UNL     1     -46.148  58.697 -57.450  1.00  0.00     0.269 C 
BRANCH   8   9
HETATM    9  O   UNL     1     -45.121  58.515 -58.421  1.00  0.00    -0.339 OA
BRANCH   9  10
HETATM   10  C   UNL     1     -45.032  57.289 -59.029  1.00  0.00     0.075 A 
HETATM   11  C   UNL     1     -43.812  56.610 -58.857  1.00  0.00    -0.029 A 
HETATM   12  C   UNL     1     -42.680  57.222 -58.076  1.00  0.00     0.051 C 
HETATM   13  C   UNL     1     -43.624  55.361 -59.469  1.00  0.00     0.009 A 
HETATM   14  C   UNL     1     -44.641  54.782 -60.225  1.00  0.00     0.001 A 
HETATM   15  C   UNL     1     -45.850  55.451 -60.386  1.00  0.00     0.003 A 
HETATM   16  C   UNL     1     -46.045  56.702 -59.795  1.00  0.00     0.037 A 
ENDBRANCH   9  10
ENDBRANCH   8   9
ENDBRANCH   7   8
ENDBRANCH   5   6
ENDBRANCH   1   5
BRANCH   2  17
HETATM   17  C   UNL     1     -41.624  55.506 -54.233  1.00  0.00     0.120 A 
HETATM   18  N   UNL     1     -40.774  55.200 -55.257  1.00  0.00    -0.272 N 
HETATM   19  H   UNL     1     -40.571  55.777 -56.069  1.00  0.00     0.189 HD
HETATM   20  N   UNL     1     -40.174  54.009 -55.141  1.00  0.00    -0.174 NA
HETATM   21  C   UNL     1     -40.649  53.496 -53.993  1.00  0.00     0.089 A 
HETATM   22  C   UNL     1     -41.557  54.414 -53.390  1.00  0.00     0.071 A 
BRANCH  21  23
HETATM   23  C   UNL     1     -40.239  52.167 -53.517  1.00  0.00    -0.006 A 
HETATM   24  C   UNL     1     -40.203  51.076 -54.401  1.00  0.00     0.014 A 
HETATM   25  C   UNL     1     -39.825  49.804 -53.962  1.00  0.00     0.001 A 
HETATM   26  C   UNL     1     -39.476  49.604 -52.630  1.00  0.00     0.000 A 
HETATM   27  C   UNL     1     -39.504  50.673 -51.737  1.00  0.00     0.001 A 
HETATM   28  C   UNL     1     -39.883  51.947 -52.178  1.00  0.00     0.014 A 
ENDBRANCH  21  23
ENDBRANCH   2  17
TORSDOF 7
ENDMDL
MODEL 2
REMARK VINA RESULT:      -7.7      1.731      2.448
REMARK  7 active torsions:
REMARK  status: ('A' for Active; 'I' for Inactive)
REMARK    1  A    between atoms: C_3  and  O_4 
REMARK    2  A    between atoms: O_4  and  C_5 
REMARK    3  A    between atoms: C_5  and  C_6 
REMARK    4  A    between atoms: C_7  and  C_8 
REMARK    5  A    between atoms: C_8  and  N_9 
REMARK       I    between atoms: N_9  and  C_10 
REMARK    6  A    between atoms: C_10  and  C_11 
REMARK    7  A    between atoms: C_15  and  C_16 
ROOT
HETATM    1  N   UNL     1     -41.149  58.094 -53.965  1.00  0.00    -0.345 N 
HETATM    2  C   UNL     1     -41.982  57.017 -53.799  1.00  0.00     0.270 C 
HETATM    3  O   UNL     1     -43.179  57.128 -53.556  1.00  0.00    -0.266 OA
HETATM    4  H   UNL     1     -40.203  57.946 -54.277  1.00  0.00     0.163 HD
ENDROOT
BRANCH   1   5
HETATM    5  C   UNL     1     -41.638  59.449 -53.939  1.00  0.00     0.217 C 
BRANCH   5   6
HETATM    6  C   UNL     1     -41.897  59.911 -55.305  1.00  0.00    -0.085 C 
HETATM    7  C   UNL     1     -42.097  60.269 -56.436  1.00  0.00    -0.078 C 
BRANCH   7   8
HETATM    8  C   UNL     1     -42.330  60.679 -57.828  1.00  0.00     0.269 C 
BRANCH   8   9
HETATM    9  O   UNL     1     -43.422  59.928 -58.351  1.00  0.00    -0.339 OA
BRANCH   9  10
HETATM   10  C   UNL     1     -43.163  58.658 -58.799  1.00  0.00     0.075 A 
HETATM   11  C   UNL     1     -43.930  57.636 -58.211  1.00  0.00    -0.029 A 
HETATM   12  C   UNL     1     -44.943  57.936 -57.140  1.00  0.00     0.051 C 
HETATM   13  C   UNL     1     -43.711  56.302 -58.592  1.00  0.00     0.009 A 
HETATM   14  C   UNL     1     -42.759  55.988 -59.558  1.00  0.00     0.001 A 
HETATM   15  C   UNL     1     -42.007  57.001 -60.145  1.00  0.00     0.003 A 
HETATM   16  C   UNL     1     -42.205  58.331 -59.764  1.00  0.00     0.037 A 
ENDBRANCH   9  10
ENDBRANCH   8   9
ENDBRANCH   7   8
ENDBRANCH   5   6
ENDBRANCH   1   5
BRANCH   2  17
HETATM   17  C   UNL     1     -41.353  55.730 -53.924  1.00  0.00     0.120 A 
HETATM   18  N   UNL     1     -40.605  55.407 -55.021  1.00  0.00    -0.272 N 
HETATM   19  H   UNL     1     -40.413  56.004 -55.820  1.00  0.00     0.189 HD
HETATM   20  N   UNL     1     -40.098  54.168 -54.999  1.00  0.00    -0.174 NA
HETATM   21  C   UNL     1     -40.531  53.640 -53.842  1.00  0.00     0.089 A 
HETATM   22  C   UNL     1     -41.316  54.596 -53.135  1.00  0.00     0.071 A 
BRANCH  21  23
HETATM   23  C   UNL     1     -40.199  52.261 -53.455  1.00  0.00    -0.006 A 
HETATM   24  C   UNL     1     -39.805  51.969 -52.138  1.00  0.00     0.014 A 
HETATM   25  C   UNL     1     -39.477  50.665 -51.757  1.00  0.00     0.001 A 
HETATM   26  C   UNL     1     -39.538  49.631 -52.687  1.00  0.00     0.000 A 
HETATM   27  C   UNL     1     -39.929  49.901 -53.997  1.00  0.00     0.001 A 
HETATM   28  C   UNL     1     -40.257  51.207 -54.379  1.00  0.00     0.014 A 
ENDBRANCH  21  23
ENDBRANCH   2  17
TORSDOF 7
ENDMDL
MODEL 3
REMARK VINA RESULT:      -7.5      1.557      1.964
REMARK  7 active torsions:
REMARK  status: ('A' for Active; 'I' for Inactive)
REMARK    1  A    between atoms: C_3  and  O_4 
REMARK    2  A    between atoms: O_4  and  C_5 
REMARK    3  A    between atoms: C_5  and  C_6 
REMARK    4  A    between atoms: C_7  and  C_8 
REMARK    5  A    between atoms: C_8  and  N_9 
REMARK       I    between atoms: N_9  and  C_10 
REMARK    6  A    between atoms: C_10  and  C_11 
REMARK    7  A    between atoms: C_15  and  C_16 
ROOT
HETATM    1  N   UNL     1     -42.086  57.601 -55.040  1.00  0.00    -0.345 N 
HETATM    2  C   UNL     1     -42.717  56.393 -54.886  1.00  0.00     0.270 C 
HETATM    3  O   UNL     1     -43.937  56.268 -54.910  1.00  0.00    -0.266 OA
HETATM    4  H   UNL     1     -41.083  57.629 -55.128  1.00  0.00     0.163 HD
ENDROOT
BRANCH   1   5
HETATM    5  C   UNL     1     -42.813  58.813 -55.323  1.00  0.00     0.217 C 
BRANCH   5   6
HETATM    6  C   UNL     1     -42.711  59.135 -56.748  1.00  0.00    -0.085 C 
HETATM    7  C   UNL     1     -42.652  59.395 -57.921  1.00  0.00    -0.078 C 
BRANCH   7   8
HETATM    8  C   UNL     1     -42.613  59.713 -59.356  1.00  0.00     0.269 C 
BRANCH   8   9
HETATM    9  O   UNL     1     -42.832  58.516 -60.096  1.00  0.00    -0.339 OA
BRANCH   9  10
HETATM   10  C   UNL     1     -44.098  57.989 -60.092  1.00  0.00     0.075 A 
HETATM   11  C   UNL     1     -44.180  56.602 -59.870  1.00  0.00    -0.029 A 
HETATM   12  C   UNL     1     -42.944  55.766 -59.682  1.00  0.00     0.051 C 
HETATM   13  C   UNL     1     -45.436  55.975 -59.878  1.00  0.00     0.009 A 
HETATM   14  C   UNL     1     -46.598  56.716 -60.081  1.00  0.00     0.001 A 
HETATM   15  C   UNL     1     -46.515  58.090 -60.291  1.00  0.00     0.003 A 
HETATM   16  C   UNL     1     -45.270  58.724 -60.301  1.00  0.00     0.037 A 
ENDBRANCH   9  10
ENDBRANCH   8   9
ENDBRANCH   7   8
ENDBRANCH   5   6
ENDBRANCH   1   5
BRANCH   2  17
HETATM   17  C   UNL     1     -41.846  55.267 -54.682  1.00  0.00     0.120 A 
HETATM   18  N   UNL     1     -40.717  55.097 -55.431  1.00  0.00    -0.272 N 
HETATM   19  H   UNL     1     -40.379  55.712 -56.166  1.00  0.00     0.189 HD
HETATM   20  N   UNL     1     -40.018  53.994 -55.135  1.00  0.00    -0.174 NA
HETATM   21  C   UNL     1     -40.714  53.400 -54.151  1.00  0.00     0.089 A 
HETATM   22  C   UNL     1     -41.866  54.177 -53.833  1.00  0.00     0.071 A 
BRANCH  21  23
HETATM   23  C   UNL     1     -40.275  52.128 -53.559  1.00  0.00    -0.006 A 
HETATM   24  C   UNL     1     -40.201  50.966 -54.345  1.00  0.00     0.014 A 
HETATM   25  C   UNL     1     -39.795  49.748 -53.794  1.00  0.00     0.001 A 
HETATM   26  C   UNL     1     -39.456  49.672 -52.447  1.00  0.00     0.000 A 
HETATM   27  C   UNL     1     -39.522  50.813 -51.650  1.00  0.00     0.001 A 
HETATM   28  C   UNL     1     -39.929  52.033 -52.202  1.00  0.00     0.014 A 
ENDBRANCH  21  23
ENDBRANCH   2  17
TORSDOF 7
ENDMDL
MODEL 4
REMARK VINA RESULT:      -7.3     14.936     19.441
REMARK  7 active torsions:
REMARK  status: ('A' for Active; 'I' for Inactive)
REMARK    1  A    between atoms: C_3  and  O_4 
REMARK    2  A    between atoms: O_4  and  C_5 
REMARK    3  A    between atoms: C_5  and  C_6 
REMARK    4  A    between atoms: C_7  and  C_8 
REMARK    5  A    between atoms: C_8  and  N_9 
REMARK       I    between atoms: N_9  and  C_10 
REMARK    6  A    between atoms: C_10  and  C_11 
REMARK    7  A    between atoms: C_15  and  C_16 
ROOT
HETATM    1  N   UNL     1     -34.640  41.960 -52.559  1.00  0.00    -0.345 N 
HETATM    2  C   UNL     1     -35.858  42.044 -53.187  1.00  0.00     0.270 C 
HETATM    3  O   UNL     1     -36.915  42.182 -52.581  1.00  0.00    -0.266 OA
HETATM    4  H   UNL     1     -33.797  41.965 -53.110  1.00  0.00     0.163 HD
ENDROOT
BRANCH   1   5
HETATM    5  C   UNL     1     -34.505  42.107 -51.132  1.00  0.00     0.217 C 
BRANCH   5   6
HETATM    6  C   UNL     1     -33.547  41.125 -50.619  1.00  0.00    -0.085 C 
HETATM    7  C   UNL     1     -32.754  40.313 -50.222  1.00  0.00    -0.078 C 
BRANCH   7   8
HETATM    8  C   UNL     1     -31.774  39.315 -49.768  1.00  0.00     0.269 C 
BRANCH   8   9
HETATM    9  O   UNL     1     -31.123  39.811 -48.602  1.00  0.00    -0.339 OA
BRANCH   9  10
HETATM   10  C   UNL     1     -31.437  39.228 -47.401  1.00  0.00     0.075 A 
HETATM   11  C   UNL     1     -30.763  39.743 -46.279  1.00  0.00    -0.029 A 
HETATM   12  C   UNL     1     -29.745  40.841 -46.414  1.00  0.00     0.051 C 
HETATM   13  C   UNL     1     -31.005  39.185 -45.013  1.00  0.00     0.009 A 
HETATM   14  C   UNL     1     -31.918  38.145 -44.858  1.00  0.00     0.001 A 
HETATM   15  C   UNL     1     -32.591  37.644 -45.969  1.00  0.00     0.003 A 
HETATM   16  C   UNL     1     -32.349  38.180 -47.237  1.00  0.00     0.037 A 
ENDBRANCH   9  10
ENDBRANCH   8   9
ENDBRANCH   7   8
ENDBRANCH   5   6
ENDBRANCH   1   5
BRANCH   2  17
HETATM   17  C   UNL     1     -35.815  41.950 -54.622  1.00  0.00     0.120 A 
HETATM   18  N   UNL     1     -34.835  42.566 -55.346  1.00  0.00    -0.272 N 
HETATM   19  H   UNL     1     -34.066  43.119 -54.978  1.00  0.00     0.189 HD
HETATM   20  N   UNL     1     -34.940  42.401 -56.671  1.00  0.00    -0.174 NA
HETATM   21  C   UNL     1     -36.040  41.648 -56.837  1.00  0.00     0.089 A 
HETATM   22  C   UNL     1     -36.613  41.338 -55.569  1.00  0.00     0.071 A 
BRANCH  21  23
HETATM   23  C   UNL     1     -36.512  41.261 -58.174  1.00  0.00    -0.006 A 
HETATM   24  C   UNL     1     -36.375  39.935 -58.620  1.00  0.00     0.014 A 
HETATM   25  C   UNL     1     -36.810  39.554 -59.892  1.00  0.00     0.001 A 
HETATM   26  C   UNL     1     -37.390  40.493 -60.740  1.00  0.00     0.000 A 
HETATM   27  C   UNL     1     -37.536  41.812 -60.316  1.00  0.00     0.001 A 
HETATM   28  C   UNL     1     -37.100  42.194 -59.042  1.00  0.00     0.014 A 
ENDBRANCH  21  23
ENDBRANCH   2  17
TORSDOF 7
ENDMDL
MODEL 5
REMARK VINA RESULT:      -7.2      3.005      5.642
REMARK  7 active torsions:
REMARK  status: ('A' for Active; 'I' for Inactive)
REMARK    1  A    between atoms: C_3  and  O_4 
REMARK    2  A    between atoms: O_4  and  C_5 
REMARK    3  A    between atoms: C_5  and  C_6 
REMARK    4  A    between atoms: C_7  and  C_8 
REMARK    5  A    between atoms: C_8  and  N_9 
REMARK       I    between atoms: N_9  and  C_10 
REMARK    6  A    between atoms: C_10  and  C_11 
REMARK    7  A    between atoms: C_15  and  C_16 
ROOT
HETATM    1  N   UNL     1     -42.110  58.424 -55.434  1.00  0.00    -0.345 N 
HETATM    2  C   UNL     1     -43.114  57.496 -55.315  1.00  0.00     0.270 C 
HETATM    3  O   UNL     1     -44.302  57.778 -55.428  1.00  0.00    -0.266 OA
HETATM    4  H   UNL     1     -41.150  58.117 -55.448  1.00  0.00     0.163 HD
ENDROOT
BRANCH   1   5
HETATM    5  C   UNL     1     -42.376  59.797 -55.781  1.00  0.00     0.217 C 
BRANCH   5   6
HETATM    6  C   UNL     1     -42.658  60.571 -54.569  1.00  0.00    -0.085 C 
HETATM    7  C   UNL     1     -42.907  61.187 -53.567  1.00  0.00    -0.078 C 
BRANCH   7   8
HETATM    8  C   UNL     1     -43.229  61.917 -52.332  1.00  0.00     0.269 C 
BRANCH   8   9
HETATM    9  O   UNL     1     -43.587  60.976 -51.324  1.00  0.00    -0.339 OA
BRANCH   9  10
HETATM   10  C   UNL     1     -42.715  59.948 -51.074  1.00  0.00     0.075 A 
HETATM   11  C   UNL     1     -43.185  58.659 -51.387  1.00  0.00    -0.029 A 
HETATM   12  C   UNL     1     -44.571  58.443 -51.930  1.00  0.00     0.051 C 
HETATM   13  C   UNL     1     -42.366  57.546 -51.137  1.00  0.00     0.009 A 
HETATM   14  C   UNL     1     -41.090  57.710 -50.605  1.00  0.00     0.001 A 
HETATM   15  C   UNL     1     -40.623  58.986 -50.305  1.00  0.00     0.003 A 
HETATM   16  C   UNL     1     -41.433  60.101 -50.535  1.00  0.00     0.037 A 
ENDBRANCH   9  10
ENDBRANCH   8   9
ENDBRANCH   7   8
ENDBRANCH   5   6
ENDBRANCH   1   5
BRANCH   2  17
HETATM   17  C   UNL     1     -42.679  56.154 -55.037  1.00  0.00     0.120 A 
HETATM   18  N   UNL     1     -43.288  55.075 -55.612  1.00  0.00    -0.272 N 
HETATM   19  H   UNL     1     -44.065  55.096 -56.267  1.00  0.00     0.189 HD
HETATM   20  N   UNL     1     -42.781  53.892 -55.242  1.00  0.00    -0.174 NA
HETATM   21  C   UNL     1     -41.797  54.194 -54.380  1.00  0.00     0.089 A 
HETATM   22  C   UNL     1     -41.697  55.608 -54.233  1.00  0.00     0.071 A 
BRANCH  21  23
HETATM   23  C   UNL     1     -41.000  53.147 -53.725  1.00  0.00    -0.006 A 
HETATM   24  C   UNL     1     -40.653  51.978 -54.422  1.00  0.00     0.014 A 
HETATM   25  C   UNL     1     -39.903  50.969 -53.810  1.00  0.00     0.001 A 
HETATM   26  C   UNL     1     -39.488  51.114 -52.490  1.00  0.00     0.000 A 
HETATM   27  C   UNL     1     -39.821  52.267 -51.782  1.00  0.00     0.001 A 
HETATM   28  C   UNL     1     -40.572  53.277 -52.395  1.00  0.00     0.014 A 
ENDBRANCH  21  23
ENDBRANCH   2  17
TORSDOF 7
ENDMDL
MODEL 6
REMARK VINA RESULT:      -7.1      1.943      2.242
REMARK  7 active torsions:
REMARK  status: ('A' for Active; 'I' for Inactive)
REMARK    1  A    between atoms: C_3  and  O_4 
REMARK    2  A    between atoms: O_4  and  C_5 
REMARK    3  A    between atoms: C_5  and  C_6 
REMARK    4  A    between atoms: C_7  and  C_8 
REMARK    5  A    between atoms: C_8  and  N_9 
REMARK       I    between atoms: N_9  and  C_10 
REMARK    6  A    between atoms: C_10  and  C_11 
REMARK    7  A    between atoms: C_15  and  C_16 
ROOT
HETATM    1  N   UNL     1     -41.698  58.177 -53.996  1.00  0.00    -0.345 N 
HETATM    2  C   UNL     1     -41.890  57.742 -52.709  1.00  0.00     0.270 C 
HETATM    3  O   UNL     1     -42.360  58.451 -51.827  1.00  0.00    -0.266 OA
HETATM    4  H   UNL     1     -41.418  57.519 -54.706  1.00  0.00     0.163 HD
ENDROOT
BRANCH   1   5
HETATM    5  C   UNL     1     -42.109  59.489 -54.429  1.00  0.00     0.217 C 
BRANCH   5   6
HETATM    6  C   UNL     1     -43.209  59.375 -55.390  1.00  0.00    -0.085 C 
HETATM    7  C   UNL     1     -44.112  59.255 -56.174  1.00  0.00    -0.078 C 
BRANCH   7   8
HETATM    8  C   UNL     1     -45.219  59.078 -57.125  1.00  0.00     0.269 C 
BRANCH   8   9
HETATM    9  O   UNL     1     -44.703  59.163 -58.450  1.00  0.00    -0.339 OA
BRANCH   9  10
HETATM   10  C   UNL     1     -43.919  58.130 -58.895  1.00  0.00     0.075 A 
HETATM   11  C   UNL     1     -42.687  58.501 -59.463  1.00  0.00    -0.029 A 
HETATM   12  C   UNL     1     -42.289  59.945 -59.593  1.00  0.00     0.051 C 
HETATM   13  C   UNL     1     -41.834  57.507 -59.969  1.00  0.00     0.009 A 
HETATM   14  C   UNL     1     -42.187  56.162 -59.893  1.00  0.00     0.001 A 
HETATM   15  C   UNL     1     -43.403  55.797 -59.322  1.00  0.00     0.003 A 
HETATM   16  C   UNL     1     -44.268  56.777 -58.828  1.00  0.00     0.037 A 
ENDBRANCH   9  10
ENDBRANCH   8   9
ENDBRANCH   7   8
ENDBRANCH   5   6
ENDBRANCH   1   5
BRANCH   2  17
HETATM   17  C   UNL     1     -41.493  56.383 -52.455  1.00  0.00     0.120 A 
HETATM   18  N   UNL     1     -41.282  55.929 -51.185  1.00  0.00    -0.272 N 
HETATM   19  H   UNL     1     -41.384  56.463 -50.326  1.00  0.00     0.189 HD
HETATM   20  N   UNL     1     -40.900  54.648 -51.112  1.00  0.00    -0.174 NA
HETATM   21  C   UNL     1     -40.847  54.232 -52.388  1.00  0.00     0.089 A 
HETATM   22  C   UNL     1     -41.222  55.294 -53.261  1.00  0.00     0.071 A 
BRANCH  21  23
HETATM   23  C   UNL     1     -40.440  52.862 -52.734  1.00  0.00    -0.006 A 
HETATM   24  C   UNL     1     -40.630  52.372 -54.037  1.00  0.00     0.014 A 
HETATM   25  C   UNL     1     -40.257  51.069 -54.378  1.00  0.00     0.001 A 
HETATM   26  C   UNL     1     -39.687  50.235 -53.422  1.00  0.00     0.000 A 
HETATM   27  C   UNL     1     -39.488  50.703 -52.124  1.00  0.00     0.001 A 
HETATM   28  C   UNL     1     -39.863  52.008 -51.782  1.00  0.00     0.014 A 
ENDBRANCH  21  23
ENDBRANCH   2  17
TORSDOF 7
ENDMDL
MODEL 7
REMARK VINA RESULT:      -7.1      4.372      5.558
REMARK  7 active torsions:
REMARK  status: ('A' for Active; 'I' for Inactive)
REMARK    1  A    between atoms: C_3  and  O_4 
REMARK    2  A    between atoms: O_4  and  C_5 
REMARK    3  A    between atoms: C_5  and  C_6 
REMARK    4  A    between atoms: C_7  and  C_8 
REMARK    5  A    between atoms: C_8  and  N_9 
REMARK       I    between atoms: N_9  and  C_10 
REMARK    6  A    between atoms: C_10  and  C_11 
REMARK    7  A    between atoms: C_15  and  C_16 
ROOT
HETATM    1  N   UNL     1     -43.552  57.484 -57.018  1.00  0.00    -0.345 N 
HETATM    2  C   UNL     1     -43.093  56.219 -57.288  1.00  0.00     0.270 C 
HETATM    3  O   UNL     1     -42.969  55.781 -58.427  1.00  0.00    -0.266 OA
HETATM    4  H   UNL     1     -43.523  57.830 -56.072  1.00  0.00     0.163 HD
ENDROOT
BRANCH   1   5
HETATM    5  C   UNL     1     -43.852  58.427 -58.065  1.00  0.00     0.217 C 
BRANCH   5   6
HETATM    6  C   UNL     1     -42.851  59.497 -58.073  1.00  0.00    -0.085 C 
HETATM    7  C   UNL     1     -42.032  60.377 -58.105  1.00  0.00    -0.078 C 
BRANCH   7   8
HETATM    8  C   UNL     1     -41.037  61.457 -58.175  1.00  0.00     0.269 C 
BRANCH   8   9
HETATM    9  O   UNL     1     -41.427  62.373 -59.195  1.00  0.00    -0.339 OA
BRANCH   9  10
HETATM   10  C   UNL     1     -40.443  62.880 -60.004  1.00  0.00     0.075 A 
HETATM   11  C   UNL     1     -40.541  62.542 -61.367  1.00  0.00    -0.029 A 
HETATM   12  C   UNL     1     -41.645  61.657 -61.875  1.00  0.00     0.051 C 
HETATM   13  C   UNL     1     -39.559  62.996 -62.262  1.00  0.00     0.009 A 
HETATM   14  C   UNL     1     -38.506  63.791 -61.817  1.00  0.00     0.001 A 
HETATM   15  C   UNL     1     -38.416  64.131 -60.471  1.00  0.00     0.003 A 
HETATM   16  C   UNL     1     -39.378  63.674 -59.566  1.00  0.00     0.037 A 
ENDBRANCH   9  10
ENDBRANCH   8   9
ENDBRANCH   7   8
ENDBRANCH   5   6
ENDBRANCH   1   5
BRANCH   2  17
HETATM   17  C   UNL     1     -42.770  55.424 -56.133  1.00  0.00     0.120 A 
HETATM   18  N   UNL     1     -43.641  55.301 -55.089  1.00  0.00    -0.272 N 
HETATM   19  H   UNL     1     -44.563  55.722 -55.015  1.00  0.00     0.189 HD
HETATM   20  N   UNL     1     -43.191  54.542 -54.081  1.00  0.00    -0.174 NA
HETATM   21  C   UNL     1     -41.966  54.149 -54.467  1.00  0.00     0.089 A 
HETATM   22  C   UNL     1     -41.670  54.678 -55.757  1.00  0.00     0.071 A 
BRANCH  21  23
HETATM   23  C   UNL     1     -41.123  53.305 -53.608  1.00  0.00    -0.006 A 
HETATM   24  C   UNL     1     -41.059  53.539 -52.224  1.00  0.00     0.014 A 
HETATM   25  C   UNL     1     -40.255  52.751 -51.396  1.00  0.00     0.001 A 
HETATM   26  C   UNL     1     -39.502  51.715 -51.939  1.00  0.00     0.000 A 
HETATM   27  C   UNL     1     -39.553  51.465 -53.309  1.00  0.00     0.001 A 
HETATM   28  C   UNL     1     -40.358  52.255 -54.138  1.00  0.00     0.014 A 
ENDBRANCH  21  23
ENDBRANCH   2  17
TORSDOF 7
ENDMDL
MODEL 8
REMARK VINA RESULT:      -7.0      2.059      2.697
REMARK  7 active torsions:
REMARK  status: ('A' for Active; 'I' for Inactive)
REMARK    1  A    between atoms: C_3  and  O_4 
REMARK    2  A    between atoms: O_4  and  C_5 
REMARK    3  A    between atoms: C_5  and  C_6 
REMARK    4  A    between atoms: C_7  and  C_8 
REMARK    5  A    between atoms: C_8  and  N_9 
REMARK       I    between atoms: N_9  and  C_10 
REMARK    6  A    between atoms: C_10  and  C_11 
REMARK    7  A    between atoms: C_15  and  C_16 
ROOT
HETATM    1  N   UNL     1     -44.157  58.031 -52.896  1.00  0.00    -0.345 N 
HETATM    2  C   UNL     1     -44.238  57.301 -51.736  1.00  0.00     0.270 C 
HETATM    3  O   UNL     1     -45.046  57.546 -50.847  1.00  0.00    -0.266 OA
HETATM    4  H   UNL     1     -43.556  57.715 -53.639  1.00  0.00     0.163 HD
ENDROOT
BRANCH   1   5
HETATM    5  C   UNL     1     -45.075  59.102 -53.190  1.00  0.00     0.217 C 
BRANCH   5   6
HETATM    6  C   UNL     1     -45.240  59.233 -54.640  1.00  0.00    -0.085 C 
HETATM    7  C   UNL     1     -45.400  59.332 -55.827  1.00  0.00    -0.078 C 
BRANCH   7   8
HETATM    8  C   UNL     1     -45.627  59.449 -57.275  1.00  0.00     0.269 C 
BRANCH   8   9
HETATM    9  O   UNL     1     -45.992  58.170 -57.786  1.00  0.00    -0.339 OA
BRANCH   9  10
HETATM   10  C   UNL     1     -45.029  57.449 -58.444  1.00  0.00     0.075 A 
HETATM   11  C   UNL     1     -45.472  56.720 -59.563  1.00  0.00    -0.029 A 
HETATM   12  C   UNL     1     -46.919  56.720 -59.973  1.00  0.00     0.051 C 
HETATM   13  C   UNL     1     -44.556  55.932 -60.279  1.00  0.00     0.009 A 
HETATM   14  C   UNL     1     -43.216  55.885 -59.906  1.00  0.00     0.001 A 
HETATM   15  C   UNL     1     -42.778  56.615 -58.804  1.00  0.00     0.003 A 
HETATM   16  C   UNL     1     -43.681  57.391 -58.073  1.00  0.00     0.037 A 
ENDBRANCH   9  10
ENDBRANCH   8   9
ENDBRANCH   7   8
ENDBRANCH   5   6
ENDBRANCH   1   5
BRANCH   2  17
HETATM   17  C   UNL     1     -43.296  56.220 -51.625  1.00  0.00     0.120 A 
HETATM   18  N   UNL     1     -42.699  55.916 -50.435  1.00  0.00    -0.272 N 
HETATM   19  H   UNL     1     -42.849  56.384 -49.546  1.00  0.00     0.189 HD
HETATM   20  N   UNL     1     -41.834  54.896 -50.496  1.00  0.00    -0.174 NA
HETATM   21  C   UNL     1     -41.851  54.507 -51.781  1.00  0.00     0.089 A 
HETATM   22  C   UNL     1     -42.765  55.311 -52.521  1.00  0.00     0.071 A 
BRANCH  21  23
HETATM   23  C   UNL     1     -41.004  53.406 -52.263  1.00  0.00    -0.006 A 
HETATM   24  C   UNL     1     -40.991  53.063 -53.625  1.00  0.00     0.014 A 
HETATM   25  C   UNL     1     -40.198  52.013 -54.096  1.00  0.00     0.001 A 
HETATM   26  C   UNL     1     -39.404  51.289 -53.212  1.00  0.00     0.000 A 
HETATM   27  C   UNL     1     -39.401  51.615 -51.857  1.00  0.00     0.001 A 
HETATM   28  C   UNL     1     -40.196  52.667 -51.385  1.00  0.00     0.014 A 
ENDBRANCH  21  23
ENDBRANCH   2  17
TORSDOF 7
ENDMDL
MODEL 9
REMARK VINA RESULT:      -7.0      3.258      4.130
REMARK  7 active torsions:
REMARK  status: ('A' for Active; 'I' for Inactive)
REMARK    1  A    between atoms: C_3  and  O_4 
REMARK    2  A    between atoms: O_4  and  C_5 
REMARK    3  A    between atoms: C_5  and  C_6 
REMARK    4  A    between atoms: C_7  and  C_8 
REMARK    5  A    between atoms: C_8  and  N_9 
REMARK       I    between atoms: N_9  and  C_10 
REMARK    6  A    between atoms: C_10  and  C_11 
REMARK    7  A    between atoms: C_15  and  C_16 
ROOT
HETATM    1  N   UNL     1     -43.680  56.567 -55.549  1.00  0.00    -0.345 N 
HETATM    2  C   UNL     1     -42.740  56.569 -54.549  1.00  0.00     0.270 C 
HETATM    3  O   UNL     1     -42.602  57.501 -53.764  1.00  0.00    -0.266 OA
HETATM    4  H   UNL     1     -43.827  55.730 -56.090  1.00  0.00     0.163 HD
ENDROOT
BRANCH   1   5
HETATM    5  C   UNL     1     -44.633  57.637 -55.704  1.00  0.00     0.217 C 
BRANCH   5   6
HETATM    6  C   UNL     1     -43.997  58.779 -56.364  1.00  0.00    -0.085 C 
HETATM    7  C   UNL     1     -43.494  59.718 -56.923  1.00  0.00    -0.078 C 
BRANCH   7   8
HETATM    8  C   UNL     1     -42.905  60.867 -57.626  1.00  0.00     0.269 C 
BRANCH   8   9
HETATM    9  O   UNL     1     -41.884  60.395 -58.500  1.00  0.00    -0.339 OA
BRANCH   9  10
HETATM   10  C   UNL     1     -41.213  61.323 -59.254  1.00  0.00     0.075 A 
HETATM   11  C   UNL     1     -41.475  61.291 -60.636  1.00  0.00    -0.029 A 
HETATM   12  C   UNL     1     -42.411  60.276 -61.231  1.00  0.00     0.051 C 
HETATM   13  C   UNL     1     -40.809  62.190 -61.485  1.00  0.00     0.009 A 
HETATM   14  C   UNL     1     -39.912  63.121 -60.970  1.00  0.00     0.001 A 
HETATM   15  C   UNL     1     -39.662  63.157 -59.601  1.00  0.00     0.003 A 
HETATM   16  C   UNL     1     -40.306  62.259 -58.746  1.00  0.00     0.037 A 
ENDBRANCH   9  10
ENDBRANCH   8   9
ENDBRANCH   7   8
ENDBRANCH   5   6
ENDBRANCH   1   5
BRANCH   2  17
HETATM   17  C   UNL     1     -41.911  55.396 -54.485  1.00  0.00     0.120 A 
HETATM   18  N   UNL     1     -40.959  55.145 -55.431  1.00  0.00    -0.272 N 
HETATM   19  H   UNL     1     -40.736  55.726 -56.235  1.00  0.00     0.189 HD
HETATM   20  N   UNL     1     -40.280  54.006 -55.244  1.00  0.00    -0.174 NA
HETATM   21  C   UNL     1     -40.806  53.472 -54.129  1.00  0.00     0.089 A 
HETATM   22  C   UNL     1     -41.829  54.323 -53.618  1.00  0.00     0.071 A 
BRANCH  21  23
HETATM   23  C   UNL     1     -40.334  52.186 -53.597  1.00  0.00    -0.006 A 
HETATM   24  C   UNL     1     -40.271  51.054 -54.426  1.00  0.00     0.014 A 
HETATM   25  C   UNL     1     -39.834  49.821 -53.932  1.00  0.00     0.001 A 
HETATM   26  C   UNL     1     -39.452  49.702 -52.599  1.00  0.00     0.000 A 
HETATM   27  C   UNL     1     -39.505  50.814 -51.761  1.00  0.00     0.001 A 
HETATM   28  C   UNL     1     -39.944  52.047 -52.256  1.00  0.00     0.014 A 
ENDBRANCH  21  23
ENDBRANCH   2  17
TORSDOF 7
ENDMDL
MODEL 10
REMARK VINA RESULT:      -7.0      3.680      4.382
REMARK  7 active torsions:
REMARK  status: ('A' for Active; 'I' for Inactive)
REMARK    1  A    between atoms: C_3  and  O_4 
REMARK    2  A    between atoms: O_4  and  C_5 
REMARK    3  A    between atoms: C_5  and  C_6 
REMARK    4  A    between atoms: C_7  and  C_8 
REMARK    5  A    between atoms: C_8  and  N_9 
REMARK       I    between atoms: N_9  and  C_10 
REMARK    6  A    between atoms: C_10  and  C_11 
REMARK    7  A    between atoms: C_15  and  C_16 
ROOT
HETATM    1  N   UNL     1     -41.627  57.973 -53.896  1.00  0.00    -0.345 N 
HETATM    2  C   UNL     1     -41.314  57.131 -52.859  1.00  0.00     0.270 C 
HETATM    3  O   UNL     1     -41.314  57.487 -51.685  1.00  0.00    -0.266 OA
HETATM    4  H   UNL     1     -41.724  57.599 -54.826  1.00  0.00     0.163 HD
ENDROOT
BRANCH   1   5
HETATM    5  C   UNL     1     -42.057  59.330 -53.676  1.00  0.00     0.217 C 
BRANCH   5   6
HETATM    6  C   UNL     1     -42.136  60.042 -54.954  1.00  0.00    -0.085 C 
HETATM    7  C   UNL     1     -42.225  60.634 -55.997  1.00  0.00    -0.078 C 
BRANCH   7   8
HETATM    8  C   UNL     1     -42.361  61.371 -57.261  1.00  0.00     0.269 C 
BRANCH   8   9
HETATM    9  O   UNL     1     -41.079  61.467 -57.876  1.00  0.00    -0.339 OA
BRANCH   9  10
HETATM   10  C   UNL     1     -41.038  61.654 -59.233  1.00  0.00     0.075 A 
HETATM   11  C   UNL     1     -40.184  62.679 -59.682  1.00  0.00    -0.029 A 
HETATM   12  C   UNL     1     -39.401  63.523 -58.714  1.00  0.00     0.051 C 
HETATM   13  C   UNL     1     -40.102  62.957 -61.055  1.00  0.00     0.009 A 
HETATM   14  C   UNL     1     -40.839  62.215 -61.975  1.00  0.00     0.001 A 
HETATM   15  C   UNL     1     -41.675  61.196 -61.530  1.00  0.00     0.003 A 
HETATM   16  C   UNL     1     -41.778  60.918 -60.164  1.00  0.00     0.037 A 
ENDBRANCH   9  10
ENDBRANCH   8   9
ENDBRANCH   7   8
ENDBRANCH   5   6
ENDBRANCH   1   5
BRANCH   2  17
HETATM   17  C   UNL     1     -40.973  55.787 -53.241  1.00  0.00     0.120 A 
HETATM   18  N   UNL     1     -40.838  55.434 -54.553  1.00  0.00    -0.272 N 
HETATM   19  H   UNL     1     -40.947  56.043 -55.359  1.00  0.00     0.189 HD
HETATM   20  N   UNL     1     -40.535  54.144 -54.750  1.00  0.00    -0.174 NA
HETATM   21  C   UNL     1     -40.472  53.614 -53.517  1.00  0.00     0.089 A 
HETATM   22  C   UNL     1     -40.734  54.620 -52.541  1.00  0.00     0.071 A 
BRANCH  21  23
HETATM   23  C   UNL     1     -40.179  52.189 -53.306  1.00  0.00    -0.006 A 
HETATM   24  C   UNL     1     -39.755  51.729 -52.049  1.00  0.00     0.014 A 
HETATM   25  C   UNL     1     -39.464  50.379 -51.836  1.00  0.00     0.001 A 
HETATM   26  C   UNL     1     -39.593  49.466 -52.878  1.00  0.00     0.000 A 
HETATM   27  C   UNL     1     -40.013  49.902 -54.133  1.00  0.00     0.001 A 
HETATM   28  C   UNL     1     -40.305  51.255 -54.346  1.00  0.00     0.014 A 
ENDBRANCH  21  23
ENDBRANCH   2  17
TORSDOF 7
ENDMDL
