MODEL 1
REMARK VINA RESULT:      -9.0      0.000      0.000
REMARK  5 active torsions:
REMARK  status: ('A' for Active; 'I' for Inactive)
REMARK    1  A    between atoms: C_4  and  N_5 
REMARK    2  A    between atoms: C_9  and  C_10 
REMARK    3  A    between atoms: C_13  and  O_14 
REMARK    4  A    between atoms: C_17  and  C_18 
REMARK       I    between atoms: C_18  and  N_19 
REMARK    5  A    between atoms: N_19  and  C_20 
ROOT
HETATM    1  N   UNL     1     -43.779  57.570 -55.959  1.00  0.00    -0.292 N 
HETATM    2  C   UNL     1     -44.330  58.485 -55.034  1.00  0.00     0.179 C 
HETATM    3  S   UNL     1     -45.251  59.859 -55.348  1.00  0.00    -0.040 SA
HETATM    4  N   UNL     1     -44.139  58.212 -53.712  1.00  0.00    -0.354 N 
HETATM    5  C   UNL     1     -43.246  57.220 -53.167  1.00  0.00     0.158 C 
HETATM    6  C   UNL     1     -42.906  56.202 -54.205  1.00  0.00     0.060 C 
HETATM    7  C   UNL     1     -43.136  56.382 -55.526  1.00  0.00     0.030 C 
HETATM    8  C   UNL     1     -42.747  55.353 -56.570  1.00  0.00     0.070 C 
HETATM    9  H   UNL     1     -44.529  58.891 -53.069  1.00  0.00     0.163 HD
ENDROOT
BRANCH   6  10
HETATM   10  C   UNL     1     -42.481  54.901 -53.613  1.00  0.00     0.257 C 
HETATM   11  N   UNL     1     -41.125  54.692 -53.601  1.00  0.00    -0.306 N 
HETATM   12  H   UNL     1     -40.505  55.434 -53.889  1.00  0.00     0.170 HD
HETATM   13  O   UNL     1     -43.351  54.159 -53.169  1.00  0.00    -0.267 OA
BRANCH  11  14
HETATM   14  C   UNL     1     -40.555  53.446 -53.398  1.00  0.00     0.160 A 
HETATM   15  N   UNL     1     -40.203  52.933 -52.215  1.00  0.00    -0.110 NA
HETATM   16  O   UNL     1     -39.777  51.645 -52.456  1.00  0.00    -0.216 OA
HETATM   17  C   UNL     1     -39.878  51.378 -53.784  1.00  0.00     0.078 A 
HETATM   18  C   UNL     1     -39.521  50.012 -54.202  1.00  0.00     0.079 C 
HETATM   19  C   UNL     1     -40.332  52.501 -54.431  1.00  0.00     0.087 A 
ENDBRANCH  11  14
ENDBRANCH   6  10
BRANCH   5  20
HETATM   20  C   UNL     1     -42.010  57.888 -52.578  1.00  0.00    -0.031 A 
HETATM   21  C   UNL     1     -41.904  58.062 -51.186  1.00  0.00     0.012 A 
HETATM   22  C   UNL     1     -40.784  58.686 -50.626  1.00  0.00     0.037 A 
HETATM   23  C   UNL     1     -39.761  59.131 -51.456  1.00  0.00     0.065 A 
HETATM   24  C   UNL     1     -39.835  58.956 -52.832  1.00  0.00     0.037 A 
HETATM   25  C   UNL     1     -40.953  58.336 -53.392  1.00  0.00     0.012 A 
BRANCH  23  26
HETATM   26  O   UNL     1     -38.656  59.752 -50.955  1.00  0.00    -0.361 OA
HETATM   27  H   UNL     1     -38.823  59.977 -50.025  1.00  0.00     0.217 HD
ENDBRANCH  23  26
ENDBRANCH   5  20
BRANCH   1  28
HETATM   28  C   UNL     1     -43.977  57.838 -57.359  1.00  0.00     0.048 A 
HETATM   29  C   UNL     1     -45.132  57.310 -57.967  1.00  0.00     0.037 A 
HETATM   30  C   UNL     1     -45.388  57.511 -59.328  1.00  0.00    -0.060 A 
HETATM   31  C   UNL     1     -46.607  56.914 -59.966  1.00  0.00     0.048 C 
HETATM   32  C   UNL     1     -44.509  58.302 -60.070  1.00  0.00     0.007 A 
HETATM   33  C   UNL     1     -43.361  58.831 -59.475  1.00  0.00     0.009 A 
HETATM   34  C   UNL     1     -43.062  58.585 -58.125  1.00  0.00    -0.035 A 
HETATM   35  C   UNL     1     -41.769  59.127 -57.585  1.00  0.00     0.050 C 
ENDBRANCH   1  28
TORSDOF 5
ENDMDL
MODEL 2
REMARK VINA RESULT:      -7.7      1.739      2.720
REMARK  5 active torsions:
REMARK  status: ('A' for Active; 'I' for Inactive)
REMARK    1  A    between atoms: C_4  and  N_5 
REMARK    2  A    between atoms: C_9  and  C_10 
REMARK    3  A    between atoms: C_13  and  O_14 
REMARK    4  A    between atoms: C_17  and  C_18 
REMARK       I    between atoms: C_18  and  N_19 
REMARK    5  A    between atoms: N_19  and  C_20 
ROOT
HETATM    1  N   UNL     1     -43.997  58.020 -56.990  1.00  0.00    -0.292 N 
HETATM    2  C   UNL     1     -45.184  58.575 -56.461  1.00  0.00     0.179 C 
HETATM    3  S   UNL     1     -46.203  59.719 -57.159  1.00  0.00    -0.040 SA
HETATM    4  N   UNL     1     -45.598  58.101 -55.251  1.00  0.00    -0.354 N 
HETATM    5  C   UNL     1     -44.834  57.267 -54.356  1.00  0.00     0.158 C 
HETATM    6  C   UNL     1     -43.730  56.587 -55.097  1.00  0.00     0.060 C 
HETATM    7  C   UNL     1     -43.320  56.962 -56.330  1.00  0.00     0.030 C 
HETATM    8  C   UNL     1     -42.171  56.284 -57.051  1.00  0.00     0.070 C 
HETATM    9  H   UNL     1     -46.441  58.525 -54.885  1.00  0.00     0.163 HD
ENDROOT
BRANCH   6  10
HETATM   10  C   UNL     1     -43.275  55.336 -54.424  1.00  0.00     0.257 C 
HETATM   11  N   UNL     1     -42.006  55.393 -53.904  1.00  0.00    -0.306 N 
HETATM   12  H   UNL     1     -41.504  56.268 -53.916  1.00  0.00     0.170 HD
HETATM   13  O   UNL     1     -44.060  54.396 -54.362  1.00  0.00    -0.267 OA
BRANCH  11  14
HETATM   14  C   UNL     1     -41.290  54.268 -53.534  1.00  0.00     0.160 A 
HETATM   15  N   UNL     1     -40.978  53.918 -52.282  1.00  0.00    -0.110 NA
HETATM   16  O   UNL     1     -40.359  52.690 -52.359  1.00  0.00    -0.216 OA
HETATM   17  C   UNL     1     -40.301  52.295 -53.657  1.00  0.00     0.078 A 
HETATM   18  C   UNL     1     -39.723  50.964 -53.908  1.00  0.00     0.079 C 
HETATM   19  C   UNL     1     -40.845  53.277 -54.447  1.00  0.00     0.087 A 
ENDBRANCH  11  14
ENDBRANCH   6  10
BRANCH   5  20
HETATM   20  C   UNL     1     -44.326  58.084 -53.175  1.00  0.00    -0.031 A 
HETATM   21  C   UNL     1     -43.167  58.867 -53.311  1.00  0.00     0.012 A 
HETATM   22  C   UNL     1     -42.677  59.614 -52.235  1.00  0.00     0.037 A 
HETATM   23  C   UNL     1     -43.349  59.586 -51.019  1.00  0.00     0.065 A 
HETATM   24  C   UNL     1     -44.506  58.833 -50.863  1.00  0.00     0.037 A 
HETATM   25  C   UNL     1     -44.995  58.086 -51.936  1.00  0.00     0.012 A 
BRANCH  23  26
HETATM   26  O   UNL     1     -42.902  60.290 -49.941  1.00  0.00    -0.361 OA
HETATM   27  H   UNL     1     -43.199  59.840 -49.132  1.00  0.00     0.217 HD
ENDBRANCH  23  26
ENDBRANCH   5  20
BRANCH   1  28
HETATM   28  C   UNL     1     -43.550  58.503 -58.269  1.00  0.00     0.048 A 
HETATM   29  C   UNL     1     -42.691  59.619 -58.282  1.00  0.00     0.037 A 
HETATM   30  C   UNL     1     -42.227  60.159 -59.486  1.00  0.00    -0.060 A 
HETATM   31  C   UNL     1     -41.338  61.367 -59.482  1.00  0.00     0.048 C 
HETATM   32  C   UNL     1     -42.578  59.537 -60.685  1.00  0.00     0.007 A 
HETATM   33  C   UNL     1     -43.430  58.429 -60.683  1.00  0.00     0.009 A 
HETATM   34  C   UNL     1     -43.950  57.915 -59.484  1.00  0.00    -0.035 A 
HETATM   35  C   UNL     1     -44.920  56.770 -59.577  1.00  0.00     0.050 C 
ENDBRANCH   1  28
TORSDOF 5
ENDMDL
MODEL 3
REMARK VINA RESULT:      -7.7      3.498      7.332
REMARK  5 active torsions:
REMARK  status: ('A' for Active; 'I' for Inactive)
REMARK    1  A    between atoms: C_4  and  N_5 
REMARK    2  A    between atoms: C_9  and  C_10 
REMARK    3  A    between atoms: C_13  and  O_14 
REMARK    4  A    between atoms: C_17  and  C_18 
REMARK       I    between atoms: C_18  and  N_19 
REMARK    5  A    between atoms: N_19  and  C_20 
ROOT
HETATM    1  N   UNL     1     -42.256  56.564 -54.713  1.00  0.00    -0.292 N 
HETATM    2  C   UNL     1     -41.658  57.816 -54.444  1.00  0.00     0.179 C 
HETATM    3  S   UNL     1     -40.672  58.244 -53.148  1.00  0.00    -0.040 SA
HETATM    4  N   UNL     1     -41.856  58.802 -55.364  1.00  0.00    -0.354 N 
HETATM    5  C   UNL     1     -42.794  58.770 -56.459  1.00  0.00     0.158 C 
HETATM    6  C   UNL     1     -43.187  57.362 -56.764  1.00  0.00     0.060 C 
HETATM    7  C   UNL     1     -42.955  56.327 -55.925  1.00  0.00     0.030 C 
HETATM    8  C   UNL     1     -43.397  54.910 -56.235  1.00  0.00     0.070 C 
HETATM    9  H   UNL     1     -41.431  59.694 -55.141  1.00  0.00     0.163 HD
ENDROOT
BRANCH   6  10
HETATM   10  C   UNL     1     -43.672  57.194 -58.165  1.00  0.00     0.257 C 
HETATM   11  N   UNL     1     -45.037  57.219 -58.306  1.00  0.00    -0.306 N 
HETATM   12  H   UNL     1     -45.615  57.437 -57.509  1.00  0.00     0.170 HD
HETATM   13  O   UNL     1     -42.835  57.083 -59.054  1.00  0.00    -0.267 OA
BRANCH  11  14
HETATM   14  C   UNL     1     -45.686  56.769 -59.443  1.00  0.00     0.160 A 
HETATM   15  N   UNL     1     -45.473  55.598 -60.051  1.00  0.00    -0.110 NA
HETATM   16  O   UNL     1     -46.396  55.510 -61.070  1.00  0.00    -0.216 OA
HETATM   17  C   UNL     1     -47.170  56.626 -61.074  1.00  0.00     0.078 A 
HETATM   18  C   UNL     1     -48.255  56.662 -62.069  1.00  0.00     0.079 C 
HETATM   19  C   UNL     1     -46.737  57.473 -60.084  1.00  0.00     0.087 A 
ENDBRANCH  11  14
ENDBRANCH   6  10
BRANCH   5  20
HETATM   20  C   UNL     1     -43.994  59.658 -56.153  1.00  0.00    -0.031 A 
HETATM   21  C   UNL     1     -44.603  59.601 -54.888  1.00  0.00     0.012 A 
HETATM   22  C   UNL     1     -45.714  60.397 -54.592  1.00  0.00     0.037 A 
HETATM   23  C   UNL     1     -46.215  61.261 -55.559  1.00  0.00     0.065 A 
HETATM   24  C   UNL     1     -45.621  61.348 -56.811  1.00  0.00     0.037 A 
HETATM   25  C   UNL     1     -44.513  60.552 -57.108  1.00  0.00     0.012 A 
BRANCH  23  26
HETATM   26  O   UNL     1     -47.301  62.049 -55.317  1.00  0.00    -0.361 OA
HETATM   27  H   UNL     1     -47.117  62.941 -55.654  1.00  0.00     0.217 HD
ENDBRANCH  23  26
ENDBRANCH   5  20
BRANCH   1  28
HETATM   28  C   UNL     1     -42.051  55.509 -53.756  1.00  0.00     0.048 A 
HETATM   29  C   UNL     1     -42.929  55.446 -52.657  1.00  0.00     0.037 A 
HETATM   30  C   UNL     1     -42.784  54.461 -51.674  1.00  0.00    -0.060 A 
HETATM   31  C   UNL     1     -43.709  54.428 -50.493  1.00  0.00     0.048 C 
HETATM   32  C   UNL     1     -41.790  53.494 -51.828  1.00  0.00     0.007 A 
HETATM   33  C   UNL     1     -40.914  53.548 -52.916  1.00  0.00     0.009 A 
HETATM   34  C   UNL     1     -41.011  54.567 -53.877  1.00  0.00    -0.035 A 
HETATM   35  C   UNL     1     -39.983  54.596 -54.973  1.00  0.00     0.050 C 
ENDBRANCH   1  28
TORSDOF 5
ENDMDL
MODEL 4
REMARK VINA RESULT:      -7.6      2.604      5.584
REMARK  5 active torsions:
REMARK  status: ('A' for Active; 'I' for Inactive)
REMARK    1  A    between atoms: C_4  and  N_5 
REMARK    2  A    between atoms: C_9  and  C_10 
REMARK    3  A    between atoms: C_13  and  O_14 
REMARK    4  A    between atoms: C_17  and  C_18 
REMARK       I    between atoms: C_18  and  N_19 
REMARK    5  A    between atoms: N_19  and  C_20 
ROOT
HETATM    1  N   UNL     1     -43.562  59.011 -53.121  1.00  0.00    -0.292 N 
HETATM    2  C   UNL     1     -42.746  59.613 -54.105  1.00  0.00     0.179 C 
HETATM    3  S   UNL     1     -42.493  61.253 -54.391  1.00  0.00    -0.040 SA
HETATM    4  N   UNL     1     -42.028  58.774 -54.905  1.00  0.00    -0.354 N 
HETATM    5  C   UNL     1     -42.189  57.344 -55.003  1.00  0.00     0.158 C 
HETATM    6  C   UNL     1     -42.894  56.819 -53.796  1.00  0.00     0.060 C 
HETATM    7  C   UNL     1     -43.563  57.606 -52.924  1.00  0.00     0.030 C 
HETATM    8  C   UNL     1     -44.306  57.049 -51.725  1.00  0.00     0.070 C 
HETATM    9  H   UNL     1     -41.463  59.228 -55.612  1.00  0.00     0.163 HD
ENDROOT
BRANCH   6  10
HETATM   10  C   UNL     1     -42.609  55.375 -53.551  1.00  0.00     0.257 C 
HETATM   11  N   UNL     1     -41.345  55.111 -53.084  1.00  0.00    -0.306 N 
HETATM   12  H   UNL     1     -40.733  55.877 -52.848  1.00  0.00     0.170 HD
HETATM   13  O   UNL     1     -43.511  54.568 -53.748  1.00  0.00    -0.267 OA
BRANCH  11  14
HETATM   14  C   UNL     1     -40.784  53.845 -53.099  1.00  0.00     0.160 A 
HETATM   15  N   UNL     1     -40.318  53.186 -52.034  1.00  0.00    -0.110 NA
HETATM   16  O   UNL     1     -39.950  51.934 -52.476  1.00  0.00    -0.216 OA
HETATM   17  C   UNL     1     -40.199  51.835 -53.807  1.00  0.00     0.078 A 
HETATM   18  C   UNL     1     -39.919  50.529 -54.426  1.00  0.00     0.079 C 
HETATM   19  C   UNL     1     -40.695  53.033 -54.258  1.00  0.00     0.087 A 
ENDBRANCH  11  14
ENDBRANCH   6  10
BRANCH   5  20
HETATM   20  C   UNL     1     -42.900  56.980 -56.300  1.00  0.00    -0.031 A 
HETATM   21  C   UNL     1     -43.896  57.829 -56.815  1.00  0.00     0.012 A 
HETATM   22  C   UNL     1     -44.571  57.506 -57.996  1.00  0.00     0.037 A 
HETATM   23  C   UNL     1     -44.247  56.335 -58.672  1.00  0.00     0.065 A 
HETATM   24  C   UNL     1     -43.256  55.488 -58.193  1.00  0.00     0.037 A 
HETATM   25  C   UNL     1     -42.583  55.809 -57.013  1.00  0.00     0.012 A 
BRANCH  23  26
HETATM   26  O   UNL     1     -44.886  55.976 -59.822  1.00  0.00    -0.361 OA
HETATM   27  H   UNL     1     -45.513  55.263 -59.618  1.00  0.00     0.217 HD
ENDBRANCH  23  26
ENDBRANCH   5  20
BRANCH   1  28
HETATM   28  C   UNL     1     -44.320  59.881 -52.262  1.00  0.00     0.048 A 
HETATM   29  C   UNL     1     -45.612  60.250 -52.685  1.00  0.00     0.037 A 
HETATM   30  C   UNL     1     -46.405  61.108 -51.915  1.00  0.00    -0.060 A 
HETATM   31  C   UNL     1     -47.766  61.516 -52.396  1.00  0.00     0.048 C 
HETATM   32  C   UNL     1     -45.923  61.549 -50.682  1.00  0.00     0.007 A 
HETATM   33  C   UNL     1     -44.643  61.187 -50.253  1.00  0.00     0.009 A 
HETATM   34  C   UNL     1     -43.814  60.376 -51.045  1.00  0.00    -0.035 A 
HETATM   35  C   UNL     1     -42.424  60.098 -50.545  1.00  0.00     0.050 C 
ENDBRANCH   1  28
TORSDOF 5
ENDMDL
MODEL 5
REMARK VINA RESULT:      -7.4      3.288      7.160
REMARK  5 active torsions:
REMARK  status: ('A' for Active; 'I' for Inactive)
REMARK    1  A    between atoms: C_4  and  N_5 
REMARK    2  A    between atoms: C_9  and  C_10 
REMARK    3  A    between atoms: C_13  and  O_14 
REMARK    4  A    between atoms: C_17  and  C_18 
REMARK       I    between atoms: C_18  and  N_19 
REMARK    5  A    between atoms: N_19  and  C_20 
ROOT
HETATM    1  N   UNL     1     -42.027  56.863 -53.493  1.00  0.00    -0.292 N 
HETATM    2  C   UNL     1     -41.347  58.062 -53.180  1.00  0.00     0.179 C 
HETATM    3  S   UNL     1     -40.438  58.418 -51.809  1.00  0.00    -0.040 SA
HETATM    4  N   UNL     1     -41.382  59.051 -54.118  1.00  0.00    -0.354 N 
HETATM    5  C   UNL     1     -42.226  59.088 -55.287  1.00  0.00     0.158 C 
HETATM    6  C   UNL     1     -42.713  57.715 -55.617  1.00  0.00     0.060 C 
HETATM    7  C   UNL     1     -42.641  56.674 -54.758  1.00  0.00     0.030 C 
HETATM    8  C   UNL     1     -43.178  55.297 -55.098  1.00  0.00     0.070 C 
HETATM    9  H   UNL     1     -40.901  59.905 -53.864  1.00  0.00     0.163 HD
ENDROOT
BRANCH   6  10
HETATM   10  C   UNL     1     -43.094  57.574 -57.053  1.00  0.00     0.257 C 
HETATM   11  N   UNL     1     -44.439  57.419 -57.277  1.00  0.00    -0.306 N 
HETATM   12  H   UNL     1     -45.084  57.503 -56.506  1.00  0.00     0.170 HD
HETATM   13  O   UNL     1     -42.204  57.638 -57.894  1.00  0.00    -0.267 OA
BRANCH  11  14
HETATM   14  C   UNL     1     -44.957  56.959 -58.476  1.00  0.00     0.160 A 
HETATM   15  N   UNL     1     -44.454  55.962 -59.211  1.00  0.00    -0.110 NA
HETATM   16  O   UNL     1     -45.327  55.767 -60.258  1.00  0.00    -0.216 OA
HETATM   17  C   UNL     1     -46.361  56.641 -60.152  1.00  0.00     0.078 A 
HETATM   18  C   UNL     1     -47.423  56.520 -61.165  1.00  0.00     0.079 C 
HETATM   19  C   UNL     1     -46.155  57.445 -59.059  1.00  0.00     0.087 A 
ENDBRANCH  11  14
ENDBRANCH   6  10
BRANCH   5  20
HETATM   20  C   UNL     1     -43.365  60.079 -55.086  1.00  0.00    -0.031 A 
HETATM   21  C   UNL     1     -44.441  59.748 -54.243  1.00  0.00     0.012 A 
HETATM   22  C   UNL     1     -45.503  60.638 -54.056  1.00  0.00     0.037 A 
HETATM   23  C   UNL     1     -45.490  61.867 -54.706  1.00  0.00     0.065 A 
HETATM   24  C   UNL     1     -44.431  62.224 -55.530  1.00  0.00     0.037 A 
HETATM   25  C   UNL     1     -43.371  61.336 -55.719  1.00  0.00     0.012 A 
BRANCH  23  26
HETATM   26  O   UNL     1     -46.508  62.762 -54.560  1.00  0.00    -0.361 OA
HETATM   27  H   UNL     1     -46.169  63.544 -54.096  1.00  0.00     0.217 HD
ENDBRANCH  23  26
ENDBRANCH   5  20
BRANCH   1  28
HETATM   28  C   UNL     1     -41.994  55.805 -52.518  1.00  0.00     0.048 A 
HETATM   29  C   UNL     1     -41.010  54.810 -52.670  1.00  0.00     0.037 A 
HETATM   30  C   UNL     1     -40.924  53.738 -51.774  1.00  0.00    -0.060 A 
HETATM   31  C   UNL     1     -39.889  52.670 -51.969  1.00  0.00     0.048 C 
HETATM   32  C   UNL     1     -41.792  53.700 -50.682  1.00  0.00     0.007 A 
HETATM   33  C   UNL     1     -42.771  54.684 -50.522  1.00  0.00     0.009 A 
HETATM   34  C   UNL     1     -42.907  55.731 -51.449  1.00  0.00    -0.035 A 
HETATM   35  C   UNL     1     -44.035  56.703 -51.245  1.00  0.00     0.050 C 
ENDBRANCH   1  28
TORSDOF 5
ENDMDL
MODEL 6
REMARK VINA RESULT:      -7.2      3.543      6.668
REMARK  5 active torsions:
REMARK  status: ('A' for Active; 'I' for Inactive)
REMARK    1  A    between atoms: C_4  and  N_5 
REMARK    2  A    between atoms: C_9  and  C_10 
REMARK    3  A    between atoms: C_13  and  O_14 
REMARK    4  A    between atoms: C_17  and  C_18 
REMARK       I    between atoms: C_18  and  N_19 
REMARK    5  A    between atoms: N_19  and  C_20 
ROOT
HETATM    1  N   UNL     1     -43.248  61.400 -52.817  1.00  0.00    -0.292 N 
HETATM    2  C   UNL     1     -43.169  62.093 -54.046  1.00  0.00     0.179 C 
HETATM    3  S   UNL     1     -43.694  63.653 -54.401  1.00  0.00    -0.040 SA
HETATM    4  N   UNL     1     -42.550  61.449 -55.076  1.00  0.00    -0.354 N 
HETATM    5  C   UNL     1     -42.175  60.056 -55.108  1.00  0.00     0.158 C 
HETATM    6  C   UNL     1     -42.104  59.507 -53.721  1.00  0.00     0.060 C 
HETATM    7  C   UNL     1     -42.635  60.132 -52.645  1.00  0.00     0.030 C 
HETATM    8  C   UNL     1     -42.588  59.539 -51.251  1.00  0.00     0.070 C 
HETATM    9  H   UNL     1     -42.519  61.958 -55.951  1.00  0.00     0.163 HD
ENDROOT
BRANCH   6  10
HETATM   10  C   UNL     1     -41.218  58.311 -53.623  1.00  0.00     0.257 C 
HETATM   11  N   UNL     1     -41.843  57.113 -53.857  1.00  0.00    -0.306 N 
HETATM   12  H   UNL     1     -42.803  57.105 -54.166  1.00  0.00     0.170 HD
HETATM   13  O   UNL     1     -40.029  58.494 -53.381  1.00  0.00    -0.267 OA
BRANCH  11  14
HETATM   14  C   UNL     1     -41.291  55.892 -53.508  1.00  0.00     0.160 A 
HETATM   15  N   UNL     1     -41.154  55.425 -52.263  1.00  0.00    -0.110 NA
HETATM   16  O   UNL     1     -40.660  54.144 -52.375  1.00  0.00    -0.216 OA
HETATM   17  C   UNL     1     -40.504  53.835 -53.688  1.00  0.00     0.078 A 
HETATM   18  C   UNL     1     -40.041  52.469 -53.984  1.00  0.00     0.079 C 
HETATM   19  C   UNL     1     -40.855  54.923 -54.448  1.00  0.00     0.087 A 
ENDBRANCH  11  14
ENDBRANCH   6  10
BRANCH   5  20
HETATM   20  C   UNL     1     -43.130  59.272 -55.999  1.00  0.00    -0.031 A 
HETATM   21  C   UNL     1     -42.647  58.642 -57.160  1.00  0.00     0.012 A 
HETATM   22  C   UNL     1     -43.509  57.929 -57.998  1.00  0.00     0.037 A 
HETATM   23  C   UNL     1     -44.857  57.836 -57.675  1.00  0.00     0.065 A 
HETATM   24  C   UNL     1     -45.356  58.434 -56.525  1.00  0.00     0.037 A 
HETATM   25  C   UNL     1     -44.496  59.148 -55.688  1.00  0.00     0.012 A 
BRANCH  23  26
HETATM   26  O   UNL     1     -45.736  57.158 -58.468  1.00  0.00    -0.361 OA
HETATM   27  H   UNL     1     -45.988  56.336 -58.017  1.00  0.00     0.217 HD
ENDBRANCH  23  26
ENDBRANCH   5  20
BRANCH   1  28
HETATM   28  C   UNL     1     -43.891  62.069 -51.717  1.00  0.00     0.048 A 
HETATM   29  C   UNL     1     -43.132  63.007 -50.991  1.00  0.00     0.037 A 
HETATM   30  C   UNL     1     -43.680  63.685 -49.896  1.00  0.00    -0.060 A 
HETATM   31  C   UNL     1     -42.848  64.658 -49.115  1.00  0.00     0.048 C 
HETATM   32  C   UNL     1     -45.018  63.467 -49.568  1.00  0.00     0.007 A 
HETATM   33  C   UNL     1     -45.780  62.539 -50.283  1.00  0.00     0.009 A 
HETATM   34  C   UNL     1     -45.223  61.807 -51.344  1.00  0.00    -0.035 A 
HETATM   35  C   UNL     1     -46.088  60.774 -52.011  1.00  0.00     0.050 C 
ENDBRANCH   1  28
TORSDOF 5
ENDMDL
MODEL 7
REMARK VINA RESULT:      -7.1      3.584      7.294
REMARK  5 active torsions:
REMARK  status: ('A' for Active; 'I' for Inactive)
REMARK    1  A    between atoms: C_4  and  N_5 
REMARK    2  A    between atoms: C_9  and  C_10 
REMARK    3  A    between atoms: C_13  and  O_14 
REMARK    4  A    between atoms: C_17  and  C_18 
REMARK       I    between atoms: C_18  and  N_19 
REMARK    5  A    between atoms: N_19  and  C_20 
ROOT
HETATM    1  N   UNL     1     -42.054  57.078 -53.180  1.00  0.00    -0.292 N 
HETATM    2  C   UNL     1     -41.391  58.229 -52.696  1.00  0.00     0.179 C 
HETATM    3  S   UNL     1     -40.559  58.421 -51.245  1.00  0.00    -0.040 SA
HETATM    4  N   UNL     1     -41.372  59.317 -53.517  1.00  0.00    -0.354 N 
HETATM    5  C   UNL     1     -42.150  59.493 -54.718  1.00  0.00     0.158 C 
HETATM    6  C   UNL     1     -42.620  58.170 -55.228  1.00  0.00     0.060 C 
HETATM    7  C   UNL     1     -42.598  57.037 -54.490  1.00  0.00     0.030 C 
HETATM    8  C   UNL     1     -43.116  55.712 -55.012  1.00  0.00     0.070 C 
HETATM    9  H   UNL     1     -40.905  60.134 -53.142  1.00  0.00     0.163 HD
ENDROOT
BRANCH   6  10
HETATM   10  C   UNL     1     -42.921  58.194 -56.689  1.00  0.00     0.257 C 
HETATM   11  N   UNL     1     -41.817  58.152 -57.503  1.00  0.00    -0.306 N 
HETATM   12  H   UNL     1     -40.904  58.015 -57.096  1.00  0.00     0.170 HD
HETATM   13  O   UNL     1     -44.097  58.216 -57.035  1.00  0.00    -0.267 OA
BRANCH  11  14
HETATM   14  C   UNL     1     -41.856  58.482 -58.847  1.00  0.00     0.160 A 
HETATM   15  N   UNL     1     -41.856  57.615 -59.864  1.00  0.00    -0.110 NA
HETATM   16  O   UNL     1     -42.008  58.357 -61.014  1.00  0.00    -0.216 OA
HETATM   17  C   UNL     1     -42.107  59.672 -60.693  1.00  0.00     0.078 A 
HETATM   18  C   UNL     1     -42.340  60.601 -61.811  1.00  0.00     0.079 C 
HETATM   19  C   UNL     1     -41.980  59.809 -59.332  1.00  0.00     0.087 A 
ENDBRANCH  11  14
ENDBRANCH   6  10
BRANCH   5  20
HETATM   20  C   UNL     1     -43.297  60.464 -54.470  1.00  0.00    -0.031 A 
HETATM   21  C   UNL     1     -43.221  61.778 -54.962  1.00  0.00     0.012 A 
HETATM   22  C   UNL     1     -44.257  62.690 -54.733  1.00  0.00     0.037 A 
HETATM   23  C   UNL     1     -45.377  62.286 -54.015  1.00  0.00     0.065 A 
HETATM   24  C   UNL     1     -45.484  60.989 -53.533  1.00  0.00     0.037 A 
HETATM   25  C   UNL     1     -44.450  60.079 -53.760  1.00  0.00     0.012 A 
BRANCH  23  26
HETATM   26  O   UNL     1     -46.407  63.143 -53.760  1.00  0.00    -0.361 OA
HETATM   27  H   UNL     1     -46.287  63.940 -54.302  1.00  0.00     0.217 HD
ENDBRANCH  23  26
ENDBRANCH   5  20
BRANCH   1  28
HETATM   28  C   UNL     1     -42.077  55.917 -52.330  1.00  0.00     0.048 A 
HETATM   29  C   UNL     1     -41.091  54.934 -52.543  1.00  0.00     0.037 A 
HETATM   30  C   UNL     1     -41.056  53.768 -51.771  1.00  0.00    -0.060 A 
HETATM   31  C   UNL     1     -40.018  52.717 -52.032  1.00  0.00     0.048 C 
HETATM   32  C   UNL     1     -41.980  53.616 -50.736  1.00  0.00     0.007 A 
HETATM   33  C   UNL     1     -42.961  54.586 -50.516  1.00  0.00     0.009 A 
HETATM   34  C   UNL     1     -43.044  55.732 -51.324  1.00  0.00    -0.035 A 
HETATM   35  C   UNL     1     -44.176  56.687 -51.069  1.00  0.00     0.050 C 
ENDBRANCH   1  28
TORSDOF 5
ENDMDL
MODEL 8
REMARK VINA RESULT:      -7.0      2.915      5.761
REMARK  5 active torsions:
REMARK  status: ('A' for Active; 'I' for Inactive)
REMARK    1  A    between atoms: C_4  and  N_5 
REMARK    2  A    between atoms: C_9  and  C_10 
REMARK    3  A    between atoms: C_13  and  O_14 
REMARK    4  A    between atoms: C_17  and  C_18 
REMARK       I    between atoms: C_18  and  N_19 
REMARK    5  A    between atoms: N_19  and  C_20 
ROOT
HETATM    1  N   UNL     1     -43.795  59.634 -55.472  1.00  0.00    -0.292 N 
HETATM    2  C   UNL     1     -43.054  60.014 -56.614  1.00  0.00     0.179 C 
HETATM    3  S   UNL     1     -42.812  61.560 -57.234  1.00  0.00    -0.040 SA
HETATM    4  N   UNL     1     -42.407  59.020 -57.286  1.00  0.00    -0.354 N 
HETATM    5  C   UNL     1     -42.587  57.602 -57.091  1.00  0.00     0.158 C 
HETATM    6  C   UNL     1     -43.199  57.337 -55.754  1.00  0.00     0.060 C 
HETATM    7  C   UNL     1     -43.792  58.294 -55.005  1.00  0.00     0.030 C 
HETATM    8  C   UNL     1     -44.443  57.998 -53.668  1.00  0.00     0.070 C 
HETATM    9  H   UNL     1     -41.897  59.314 -58.110  1.00  0.00     0.163 HD
ENDROOT
BRANCH   6  10
HETATM   10  C   UNL     1     -42.906  55.962 -55.253  1.00  0.00     0.257 C 
HETATM   11  N   UNL     1     -41.714  55.837 -54.587  1.00  0.00    -0.306 N 
HETATM   12  H   UNL     1     -41.164  56.660 -54.391  1.00  0.00     0.170 HD
HETATM   13  O   UNL     1     -43.746  55.089 -55.444  1.00  0.00    -0.267 OA
BRANCH  11  14
HETATM   14  C   UNL     1     -41.117  54.614 -54.331  1.00  0.00     0.160 A 
HETATM   15  N   UNL     1     -40.414  53.890 -55.209  1.00  0.00    -0.110 NA
HETATM   16  O   UNL     1     -39.918  52.807 -54.518  1.00  0.00    -0.216 OA
HETATM   17  C   UNL     1     -40.315  52.879 -53.221  1.00  0.00     0.078 A 
HETATM   18  C   UNL     1     -39.812  51.824 -52.326  1.00  0.00     0.079 C 
HETATM   19  C   UNL     1     -41.109  53.988 -53.059  1.00  0.00     0.087 A 
ENDBRANCH  11  14
ENDBRANCH   6  10
BRANCH   5  20
HETATM   20  C   UNL     1     -43.401  57.009 -58.234  1.00  0.00    -0.031 A 
HETATM   21  C   UNL     1     -42.877  55.943 -58.987  1.00  0.00     0.012 A 
HETATM   22  C   UNL     1     -43.603  55.393 -60.049  1.00  0.00     0.037 A 
HETATM   23  C   UNL     1     -44.858  55.903 -60.357  1.00  0.00     0.065 A 
HETATM   24  C   UNL     1     -45.405  56.944 -59.618  1.00  0.00     0.037 A 
HETATM   25  C   UNL     1     -44.681  57.495 -58.559  1.00  0.00     0.012 A 
BRANCH  23  26
HETATM   26  O   UNL     1     -45.596  55.404 -61.390  1.00  0.00    -0.361 OA
HETATM   27  H   UNL     1     -46.161  56.114 -61.737  1.00  0.00     0.217 HD
ENDBRANCH  23  26
ENDBRANCH   5  20
BRANCH   1  28
HETATM   28  C   UNL     1     -44.477  60.671 -54.746  1.00  0.00     0.048 A 
HETATM   29  C   UNL     1     -45.760  61.044 -55.191  1.00  0.00     0.037 A 
HETATM   30  C   UNL     1     -46.481  62.057 -54.550  1.00  0.00    -0.060 A 
HETATM   31  C   UNL     1     -47.833  62.462 -55.057  1.00  0.00     0.048 C 
HETATM   32  C   UNL     1     -45.935  62.658 -53.415  1.00  0.00     0.007 A 
HETATM   33  C   UNL     1     -44.663  62.295 -52.964  1.00  0.00     0.009 A 
HETATM   34  C   UNL     1     -43.905  61.323 -53.636  1.00  0.00    -0.035 A 
HETATM   35  C   UNL     1     -42.516  61.047 -53.132  1.00  0.00     0.050 C 
ENDBRANCH   1  28
TORSDOF 5
ENDMDL
MODEL 9
REMARK VINA RESULT:      -7.0      2.900      5.648
REMARK  5 active torsions:
REMARK  status: ('A' for Active; 'I' for Inactive)
REMARK    1  A    between atoms: C_4  and  N_5 
REMARK    2  A    between atoms: C_9  and  C_10 
REMARK    3  A    between atoms: C_13  and  O_14 
REMARK    4  A    between atoms: C_17  and  C_18 
REMARK       I    between atoms: C_18  and  N_19 
REMARK    5  A    between atoms: N_19  and  C_20 
ROOT
HETATM    1  N   UNL     1     -43.982  58.186 -57.737  1.00  0.00    -0.292 N 
HETATM    2  C   UNL     1     -42.674  57.863 -58.165  1.00  0.00     0.179 C 
HETATM    3  S   UNL     1     -42.089  57.752 -59.739  1.00  0.00    -0.040 SA
HETATM    4  N   UNL     1     -41.742  57.658 -57.191  1.00  0.00    -0.354 N 
HETATM    5  C   UNL     1     -42.003  57.510 -55.780  1.00  0.00     0.158 C 
HETATM    6  C   UNL     1     -43.341  58.076 -55.438  1.00  0.00     0.060 C 
HETATM    7  C   UNL     1     -44.283  58.370 -56.363  1.00  0.00     0.030 C 
HETATM    8  C   UNL     1     -45.652  58.907 -55.993  1.00  0.00     0.070 C 
HETATM    9  H   UNL     1     -40.817  57.412 -57.521  1.00  0.00     0.163 HD
ENDROOT
BRANCH   6  10
HETATM   10  C   UNL     1     -43.447  58.469 -54.003  1.00  0.00     0.257 C 
HETATM   11  N   UNL     1     -44.512  57.920 -53.334  1.00  0.00    -0.306 N 
HETATM   12  H   UNL     1     -45.088  57.233 -53.797  1.00  0.00     0.170 HD
HETATM   13  O   UNL     1     -42.580  59.203 -53.542  1.00  0.00    -0.267 OA
BRANCH  11  14
HETATM   14  C   UNL     1     -44.966  58.396 -52.116  1.00  0.00     0.160 A 
HETATM   15  N   UNL     1     -45.285  57.648 -51.055  1.00  0.00    -0.110 NA
HETATM   16  O   UNL     1     -45.585  58.521 -50.034  1.00  0.00    -0.216 OA
HETATM   17  C   UNL     1     -45.441  59.797 -50.474  1.00  0.00     0.078 A 
HETATM   18  C   UNL     1     -45.663  60.859 -49.479  1.00  0.00     0.079 C 
HETATM   19  C   UNL     1     -45.086  59.774 -51.801  1.00  0.00     0.087 A 
ENDBRANCH  11  14
ENDBRANCH   6  10
BRANCH   5  20
HETATM   20  C   UNL     1     -41.864  56.050 -55.367  1.00  0.00    -0.031 A 
HETATM   21  C   UNL     1     -40.678  55.605 -54.757  1.00  0.00     0.012 A 
HETATM   22  C   UNL     1     -40.524  54.266 -54.382  1.00  0.00     0.037 A 
HETATM   23  C   UNL     1     -41.561  53.368 -54.611  1.00  0.00     0.065 A 
HETATM   24  C   UNL     1     -42.748  53.786 -55.197  1.00  0.00     0.037 A 
HETATM   25  C   UNL     1     -42.901  55.122 -55.573  1.00  0.00     0.012 A 
BRANCH  23  26
HETATM   26  O   UNL     1     -41.451  52.052 -54.271  1.00  0.00    -0.361 OA
HETATM   27  H   UNL     1     -41.103  51.994 -53.366  1.00  0.00     0.217 HD
ENDBRANCH  23  26
ENDBRANCH   5  20
BRANCH   1  28
HETATM   28  C   UNL     1     -44.976  58.414 -58.752  1.00  0.00     0.048 A 
HETATM   29  C   UNL     1     -45.703  57.301 -59.215  1.00  0.00     0.037 A 
HETATM   30  C   UNL     1     -46.674  57.437 -60.213  1.00  0.00    -0.060 A 
HETATM   31  C   UNL     1     -47.417  56.235 -60.716  1.00  0.00     0.048 C 
HETATM   32  C   UNL     1     -46.961  58.711 -60.706  1.00  0.00     0.007 A 
HETATM   33  C   UNL     1     -46.246  59.822 -60.252  1.00  0.00     0.009 A 
HETATM   34  C   UNL     1     -45.227  59.689 -59.295  1.00  0.00    -0.035 A 
HETATM   35  C   UNL     1     -44.455  60.923 -58.919  1.00  0.00     0.050 C 
ENDBRANCH   1  28
TORSDOF 5
ENDMDL
MODEL 10
REMARK VINA RESULT:      -6.9      3.554      7.669
REMARK  5 active torsions:
REMARK  status: ('A' for Active; 'I' for Inactive)
REMARK    1  A    between atoms: C_4  and  N_5 
REMARK    2  A    between atoms: C_9  and  C_10 
REMARK    3  A    between atoms: C_13  and  O_14 
REMARK    4  A    between atoms: C_17  and  C_18 
REMARK       I    between atoms: C_18  and  N_19 
REMARK    5  A    between atoms: N_19  and  C_20 
ROOT
HETATM    1  N   UNL     1     -42.427  55.126 -53.141  1.00  0.00    -0.292 N 
HETATM    2  C   UNL     1     -43.428  54.896 -54.112  1.00  0.00     0.179 C 
HETATM    3  S   UNL     1     -43.647  53.538 -55.083  1.00  0.00    -0.040 SA
HETATM    4  N   UNL     1     -44.373  55.867 -54.262  1.00  0.00    -0.354 N 
HETATM    5  C   UNL     1     -44.327  57.195 -53.702  1.00  0.00     0.158 C 
HETATM    6  C   UNL     1     -43.372  57.240 -52.554  1.00  0.00     0.060 C 
HETATM    7  C   UNL     1     -42.459  56.274 -52.308  1.00  0.00     0.030 C 
HETATM    8  C   UNL     1     -41.471  56.357 -51.161  1.00  0.00     0.070 C 
HETATM    9  H   UNL     1     -45.070  55.687 -54.974  1.00  0.00     0.163 HD
ENDROOT
BRANCH   6  10
HETATM   10  C   UNL     1     -43.671  58.352 -51.605  1.00  0.00     0.257 C 
HETATM   11  N   UNL     1     -44.966  58.387 -51.152  1.00  0.00    -0.306 N 
HETATM   12  H   UNL     1     -45.598  57.639 -51.395  1.00  0.00     0.170 HD
HETATM   13  O   UNL     1     -42.754  59.102 -51.290  1.00  0.00    -0.267 OA
BRANCH  11  14
HETATM   14  C   UNL     1     -45.520  59.495 -50.535  1.00  0.00     0.160 A 
HETATM   15  N   UNL     1     -45.872  59.578 -49.248  1.00  0.00    -0.110 NA
HETATM   16  O   UNL     1     -46.278  60.876 -49.033  1.00  0.00    -0.216 OA
HETATM   17  C   UNL     1     -46.166  61.581 -50.189  1.00  0.00     0.078 A 
HETATM   18  C   UNL     1     -46.502  63.012 -50.114  1.00  0.00     0.079 C 
HETATM   19  C   UNL     1     -45.724  60.741 -51.182  1.00  0.00     0.087 A 
ENDBRANCH  11  14
ENDBRANCH   6  10
BRANCH   5  20
HETATM   20  C   UNL     1     -43.989  58.214 -54.783  1.00  0.00    -0.031 A 
HETATM   21  C   UNL     1     -45.023  58.881 -55.463  1.00  0.00     0.012 A 
HETATM   22  C   UNL     1     -44.734  59.810 -56.469  1.00  0.00     0.037 A 
HETATM   23  C   UNL     1     -43.409  60.080 -56.792  1.00  0.00     0.065 A 
HETATM   24  C   UNL     1     -42.371  59.446 -56.124  1.00  0.00     0.037 A 
HETATM   25  C   UNL     1     -42.658  58.517 -55.121  1.00  0.00     0.012 A 
BRANCH  23  26
HETATM   26  O   UNL     1     -43.082  60.970 -57.772  1.00  0.00    -0.361 OA
HETATM   27  H   UNL     1     -43.644  60.800 -58.545  1.00  0.00     0.217 HD
ENDBRANCH  23  26
ENDBRANCH   5  20
BRANCH   1  28
HETATM   28  C   UNL     1     -41.425  54.108 -52.964  1.00  0.00     0.048 A 
HETATM   29  C   UNL     1     -41.427  53.396 -51.750  1.00  0.00     0.037 A 
HETATM   30  C   UNL     1     -40.475  52.403 -51.493  1.00  0.00    -0.060 A 
HETATM   31  C   UNL     1     -40.473  51.676 -50.181  1.00  0.00     0.048 C 
HETATM   32  C   UNL     1     -39.553  52.080 -52.490  1.00  0.00     0.007 A 
HETATM   33  C   UNL     1     -39.543  52.780 -53.699  1.00  0.00     0.009 A 
HETATM   34  C   UNL     1     -40.455  53.820 -53.943  1.00  0.00    -0.035 A 
HETATM   35  C   UNL     1     -40.327  54.573 -55.238  1.00  0.00     0.050 C 
ENDBRANCH   1  28
TORSDOF 5
ENDMDL
