MODEL 1
REMARK VINA RESULT:      -8.6      0.000      0.000
REMARK  6 active torsions:
REMARK  status: ('A' for Active; 'I' for Inactive)
REMARK    1  A    between atoms: C_2  and  C_3 
REMARK    2  A    between atoms: C_8  and  N_9 
REMARK       I    between atoms: N_9  and  C_10 
REMARK       I    between atoms: C_10  and  N_11 
REMARK    3  A    between atoms: N_11  and  N_12 
REMARK       I    between atoms: N_12  and  C_13 
REMARK    4  A    between atoms: C_13  and  C_14 
REMARK    5  A    between atoms: C_14  and  N_15 
REMARK       I    between atoms: N_15  and  C_16 
REMARK       I    between atoms: C_16  and  N_17 
REMARK    6  A    between atoms: N_17  and  C_18 
ROOT
HETATM    1  N   UNL     1     -42.607  55.580 -51.075  1.00  0.00    -0.306 N 
HETATM    2  C   UNL     1     -43.910  55.454 -50.671  1.00  0.00     0.339 C 
HETATM    3  N   UNL     1     -44.629  56.621 -50.670  1.00  0.00    -0.249 N 
HETATM    4  O   UNL     1     -44.467  54.414 -50.332  1.00  0.00    -0.245 OA
HETATM    5  H   UNL     1     -42.256  56.529 -51.099  1.00  0.00     0.171 HD
HETATM    6  H   UNL     1     -45.568  56.587 -50.271  1.00  0.00     0.192 HD
ENDROOT
BRANCH   3   7
HETATM    7  N   UNL     1     -44.120  57.895 -50.974  1.00  0.00    -0.265 N 
HETATM    8  C   UNL     1     -45.061  58.917 -50.940  1.00  0.00     0.253 C 
HETATM    9  O   UNL     1     -46.199  58.744 -50.499  1.00  0.00    -0.270 OA
HETATM   10  H   UNL     1     -43.424  57.953 -51.726  1.00  0.00     0.190 HD
BRANCH   8  11
HETATM   11  C   UNL     1     -44.669  60.200 -51.672  1.00  0.00     0.228 C 
BRANCH  11  12
HETATM   12  N   UNL     1     -43.627  60.045 -52.665  1.00  0.00    -0.334 N 
HETATM   13  C   UNL     1     -42.307  59.989 -52.359  1.00  0.00     0.322 C 
HETATM   14  N   UNL     1     -41.445  59.603 -53.335  1.00  0.00    -0.287 N 
HETATM   15  O   UNL     1     -41.892  60.312 -51.245  1.00  0.00    -0.247 OA
HETATM   16  H   UNL     1     -40.466  59.584 -53.092  1.00  0.00     0.172 HD
HETATM   17  H   UNL     1     -43.894  59.711 -53.590  1.00  0.00     0.164 HD
BRANCH  14  18
HETATM   18  C   UNL     1     -41.794  59.235 -54.603  1.00  0.00     0.174 A 
HETATM   19  S   UNL     1     -42.138  57.579 -54.809  1.00  0.00    -0.062 SA
HETATM   20  C   UNL     1     -42.435  57.874 -56.474  1.00  0.00     0.072 A 
HETATM   21  C   UNL     1     -42.257  59.215 -56.745  1.00  0.00     0.126 A 
HETATM   22  N   UNL     1     -41.894  59.998 -55.665  1.00  0.00    -0.236 NA
ENDBRANCH  14  18
ENDBRANCH  11  12
ENDBRANCH   8  11
ENDBRANCH   3   7
BRANCH   1  23
HETATM   23  C   UNL     1     -41.665  54.544 -51.284  1.00  0.00     0.059 A 
HETATM   24  C   UNL     1     -41.474  53.938 -52.533  1.00  0.00     0.047 A 
HETATM   25  C   UNL     1     -40.519  52.921 -52.719  1.00  0.00     0.050 A 
HETATM   26  C   UNL     1     -39.750  52.503 -51.625  1.00  0.00     0.018 A 
HETATM   27  C   UNL     1     -39.922  53.102 -50.375  1.00  0.00     0.027 A 
HETATM   28  C   UNL     1     -40.868  54.118 -50.208  1.00  0.00     0.060 A 
HETATM   29 CL   UNL     1     -41.032  54.827 -48.636  1.00  0.00    -0.082 Cl
BRANCH  25  30
HETATM   30  C   UNL     1     -40.355  52.290 -54.082  1.00  0.00     0.417 C 
HETATM   31  F   UNL     1     -39.423  51.295 -54.104  1.00  0.00    -0.166 F 
HETATM   32  F   UNL     1     -41.507  51.729 -54.540  1.00  0.00    -0.166 F 
HETATM   33  F   UNL     1     -39.963  53.182 -55.032  1.00  0.00    -0.166 F 
ENDBRANCH  25  30
ENDBRANCH   1  23
TORSDOF 6
ENDMDL
MODEL 2
REMARK VINA RESULT:      -8.3      2.164      2.559
REMARK  6 active torsions:
REMARK  status: ('A' for Active; 'I' for Inactive)
REMARK    1  A    between atoms: C_2  and  C_3 
REMARK    2  A    between atoms: C_8  and  N_9 
REMARK       I    between atoms: N_9  and  C_10 
REMARK       I    between atoms: C_10  and  N_11 
REMARK    3  A    between atoms: N_11  and  N_12 
REMARK       I    between atoms: N_12  and  C_13 
REMARK    4  A    between atoms: C_13  and  C_14 
REMARK    5  A    between atoms: C_14  and  N_15 
REMARK       I    between atoms: N_15  and  C_16 
REMARK       I    between atoms: C_16  and  N_17 
REMARK    6  A    between atoms: N_17  and  C_18 
ROOT
HETATM    1  N   UNL     1     -42.426  55.577 -51.715  1.00  0.00    -0.306 N 
HETATM    2  C   UNL     1     -43.690  55.638 -51.190  1.00  0.00     0.339 C 
HETATM    3  N   UNL     1     -44.366  56.802 -51.449  1.00  0.00    -0.249 N 
HETATM    4  O   UNL     1     -44.248  54.760 -50.539  1.00  0.00    -0.245 OA
HETATM    5  H   UNL     1     -42.047  56.464 -52.024  1.00  0.00     0.171 HD
HETATM    6  H   UNL     1     -45.265  56.931 -50.983  1.00  0.00     0.192 HD
ENDROOT
BRANCH   3   7
HETATM    7  N   UNL     1     -43.844  57.918 -52.125  1.00  0.00    -0.265 N 
HETATM    8  C   UNL     1     -44.344  58.102 -53.408  1.00  0.00     0.253 C 
HETATM    9  O   UNL     1     -45.298  57.451 -53.839  1.00  0.00    -0.270 OA
HETATM   10  H   UNL     1     -42.844  58.111 -52.003  1.00  0.00     0.190 HD
BRANCH   8  11
HETATM   11  C   UNL     1     -43.510  59.003 -54.319  1.00  0.00     0.228 C 
BRANCH  11  12
HETATM   12  N   UNL     1     -43.020  58.370 -55.525  1.00  0.00    -0.334 N 
HETATM   13  C   UNL     1     -42.281  57.232 -55.524  1.00  0.00     0.322 C 
HETATM   14  N   UNL     1     -42.084  56.602 -56.710  1.00  0.00    -0.287 N 
HETATM   15  O   UNL     1     -41.772  56.799 -54.489  1.00  0.00    -0.247 OA
HETATM   16  H   UNL     1     -41.518  55.767 -56.690  1.00  0.00     0.172 HD
HETATM   17  H   UNL     1     -43.450  58.633 -56.411  1.00  0.00     0.164 HD
BRANCH  14  18
HETATM   18  C   UNL     1     -42.591  57.000 -57.914  1.00  0.00     0.174 A 
HETATM   19  S   UNL     1     -43.498  55.820 -58.744  1.00  0.00    -0.062 SA
HETATM   20  C   UNL     1     -43.741  56.943 -60.020  1.00  0.00     0.072 A 
HETATM   21  C   UNL     1     -43.118  58.134 -59.714  1.00  0.00     0.126 A 
HETATM   22  N   UNL     1     -42.461  58.168 -58.497  1.00  0.00    -0.236 NA
ENDBRANCH  14  18
ENDBRANCH  11  12
ENDBRANCH   8  11
ENDBRANCH   3   7
BRANCH   1  23
HETATM   23  C   UNL     1     -41.543  54.471 -51.710  1.00  0.00     0.059 A 
HETATM   24  C   UNL     1     -41.279  53.709 -52.857  1.00  0.00     0.047 A 
HETATM   25  C   UNL     1     -40.384  52.624 -52.830  1.00  0.00     0.050 A 
HETATM   26  C   UNL     1     -39.751  52.295 -51.624  1.00  0.00     0.018 A 
HETATM   27  C   UNL     1     -39.996  53.048 -50.474  1.00  0.00     0.027 A 
HETATM   28  C   UNL     1     -40.882  54.131 -50.518  1.00  0.00     0.060 A 
HETATM   29 CL   UNL     1     -41.141  55.031 -49.062  1.00  0.00    -0.082 Cl
BRANCH  25  30
HETATM   30  C   UNL     1     -40.139  51.826 -54.090  1.00  0.00     0.417 C 
HETATM   31  F   UNL     1     -39.061  50.996 -53.997  1.00  0.00    -0.166 F 
HETATM   32  F   UNL     1     -41.192  51.031 -54.418  1.00  0.00    -0.166 F 
HETATM   33  F   UNL     1     -39.904  52.614 -55.175  1.00  0.00    -0.166 F 
ENDBRANCH  25  30
ENDBRANCH   1  23
TORSDOF 6
ENDMDL
MODEL 3
REMARK VINA RESULT:      -8.1      2.825      3.663
REMARK  6 active torsions:
REMARK  status: ('A' for Active; 'I' for Inactive)
REMARK    1  A    between atoms: C_2  and  C_3 
REMARK    2  A    between atoms: C_8  and  N_9 
REMARK       I    between atoms: N_9  and  C_10 
REMARK       I    between atoms: C_10  and  N_11 
REMARK    3  A    between atoms: N_11  and  N_12 
REMARK       I    between atoms: N_12  and  C_13 
REMARK    4  A    between atoms: C_13  and  C_14 
REMARK    5  A    between atoms: C_14  and  N_15 
REMARK       I    between atoms: N_15  and  C_16 
REMARK       I    between atoms: C_16  and  N_17 
REMARK    6  A    between atoms: N_17  and  C_18 
ROOT
HETATM    1  N   UNL     1     -41.937  54.582 -53.245  1.00  0.00    -0.306 N 
HETATM    2  C   UNL     1     -43.254  54.766 -52.915  1.00  0.00     0.339 C 
HETATM    3  N   UNL     1     -43.880  55.783 -53.588  1.00  0.00    -0.249 N 
HETATM    4  O   UNL     1     -43.896  54.110 -52.101  1.00  0.00    -0.245 OA
HETATM    5  H   UNL     1     -41.513  55.345 -53.758  1.00  0.00     0.171 HD
HETATM    6  H   UNL     1     -44.826  56.023 -53.291  1.00  0.00     0.192 HD
ENDROOT
BRANCH   3   7
HETATM    7  N   UNL     1     -43.267  56.658 -54.501  1.00  0.00    -0.265 N 
HETATM    8  C   UNL     1     -43.009  57.928 -54.001  1.00  0.00     0.253 C 
HETATM    9  O   UNL     1     -43.137  58.199 -52.805  1.00  0.00    -0.270 OA
HETATM   10  H   UNL     1     -43.590  56.618 -55.474  1.00  0.00     0.190 HD
BRANCH   8  11
HETATM   11  C   UNL     1     -42.764  59.014 -55.048  1.00  0.00     0.228 C 
BRANCH  11  12
HETATM   12  N   UNL     1     -42.861  58.571 -56.423  1.00  0.00    -0.334 N 
HETATM   13  C   UNL     1     -42.067  59.041 -57.417  1.00  0.00     0.322 C 
HETATM   14  N   UNL     1     -42.082  58.386 -58.606  1.00  0.00    -0.287 N 
HETATM   15  O   UNL     1     -41.377  60.051 -57.264  1.00  0.00    -0.247 OA
HETATM   16  H   UNL     1     -41.497  58.761 -59.337  1.00  0.00     0.172 HD
HETATM   17  H   UNL     1     -43.359  57.702 -56.611  1.00  0.00     0.164 HD
BRANCH  14  18
HETATM   18  C   UNL     1     -42.815  57.268 -58.887  1.00  0.00     0.174 A 
HETATM   19  S   UNL     1     -43.772  57.363 -60.293  1.00  0.00    -0.062 SA
HETATM   20  C   UNL     1     -44.336  55.771 -59.985  1.00  0.00     0.072 A 
HETATM   21  C   UNL     1     -43.747  55.285 -58.837  1.00  0.00     0.126 A 
HETATM   22  N   UNL     1     -42.866  56.146 -58.209  1.00  0.00    -0.236 NA
ENDBRANCH  14  18
ENDBRANCH  11  12
ENDBRANCH   8  11
ENDBRANCH   3   7
BRANCH   1  23
HETATM   23  C   UNL     1     -41.074  53.549 -52.805  1.00  0.00     0.059 A 
HETATM   24  C   UNL     1     -40.848  52.384 -53.551  1.00  0.00     0.047 A 
HETATM   25  C   UNL     1     -39.972  51.380 -53.099  1.00  0.00     0.050 A 
HETATM   26  C   UNL     1     -39.321  51.549 -51.870  1.00  0.00     0.018 A 
HETATM   27  C   UNL     1     -39.529  52.707 -51.118  1.00  0.00     0.027 A 
HETATM   28  C   UNL     1     -40.395  53.702 -51.585  1.00  0.00     0.060 A 
HETATM   29 CL   UNL     1     -40.608  55.118 -50.611  1.00  0.00    -0.082 Cl
BRANCH  25  30
HETATM   30  C   UNL     1     -39.767  50.137 -53.933  1.00  0.00     0.417 C 
HETATM   31  F   UNL     1     -40.846  49.825 -54.706  1.00  0.00    -0.166 F 
HETATM   32  F   UNL     1     -38.717  50.250 -54.791  1.00  0.00    -0.166 F 
HETATM   33  F   UNL     1     -39.524  49.031 -53.178  1.00  0.00    -0.166 F 
ENDBRANCH  25  30
ENDBRANCH   1  23
TORSDOF 6
ENDMDL
MODEL 4
REMARK VINA RESULT:      -7.9      4.022      4.916
REMARK  6 active torsions:
REMARK  status: ('A' for Active; 'I' for Inactive)
REMARK    1  A    between atoms: C_2  and  C_3 
REMARK    2  A    between atoms: C_8  and  N_9 
REMARK       I    between atoms: N_9  and  C_10 
REMARK       I    between atoms: C_10  and  N_11 
REMARK    3  A    between atoms: N_11  and  N_12 
REMARK       I    between atoms: N_12  and  C_13 
REMARK    4  A    between atoms: C_13  and  C_14 
REMARK    5  A    between atoms: C_14  and  N_15 
REMARK       I    between atoms: N_15  and  C_16 
REMARK       I    between atoms: C_16  and  N_17 
REMARK    6  A    between atoms: N_17  and  C_18 
ROOT
HETATM    1  N   UNL     1     -41.690  54.685 -55.040  1.00  0.00    -0.306 N 
HETATM    2  C   UNL     1     -42.860  54.506 -55.731  1.00  0.00     0.339 C 
HETATM    3  N   UNL     1     -43.129  55.470 -56.668  1.00  0.00    -0.249 N 
HETATM    4  O   UNL     1     -43.651  53.579 -55.589  1.00  0.00    -0.245 OA
HETATM    5  H   UNL     1     -41.280  55.607 -55.123  1.00  0.00     0.171 HD
HETATM    6  H   UNL     1     -44.041  55.432 -57.123  1.00  0.00     0.192 HD
ENDROOT
BRANCH   3   7
HETATM    7  N   UNL     1     -42.354  56.618 -56.905  1.00  0.00    -0.265 N 
HETATM    8  C   UNL     1     -42.842  57.447 -57.909  1.00  0.00     0.253 C 
HETATM    9  O   UNL     1     -43.955  57.280 -58.412  1.00  0.00    -0.270 OA
HETATM   10  H   UNL     1     -41.335  56.508 -56.872  1.00  0.00     0.190 HD
BRANCH   8  11
HETATM   11  C   UNL     1     -41.836  58.438 -58.493  1.00  0.00     0.228 C 
BRANCH  11  12
HETATM   12  N   UNL     1     -42.120  59.831 -58.220  1.00  0.00    -0.334 N 
HETATM   13  C   UNL     1     -41.903  60.415 -57.015  1.00  0.00     0.322 C 
HETATM   14  N   UNL     1     -41.977  61.769 -56.943  1.00  0.00    -0.287 N 
HETATM   15  O   UNL     1     -41.681  59.743 -56.006  1.00  0.00    -0.247 OA
HETATM   16  H   UNL     1     -41.829  62.183 -56.035  1.00  0.00     0.172 HD
HETATM   17  H   UNL     1     -42.244  60.458 -59.014  1.00  0.00     0.164 HD
BRANCH  14  18
HETATM   18  C   UNL     1     -42.226  62.607 -57.992  1.00  0.00     0.174 A 
HETATM   19  S   UNL     1     -43.641  63.546 -57.849  1.00  0.00    -0.062 SA
HETATM   20  C   UNL     1     -43.306  64.237 -59.385  1.00  0.00     0.072 A 
HETATM   21  C   UNL     1     -42.137  63.705 -59.887  1.00  0.00     0.126 A 
HETATM   22  N   UNL     1     -41.513  62.771 -59.081  1.00  0.00    -0.236 NA
ENDBRANCH  14  18
ENDBRANCH  11  12
ENDBRANCH   8  11
ENDBRANCH   3   7
BRANCH   1  23
HETATM   23  C   UNL     1     -41.099  53.803 -54.103  1.00  0.00     0.059 A 
HETATM   24  C   UNL     1     -40.771  52.477 -54.416  1.00  0.00     0.047 A 
HETATM   25  C   UNL     1     -40.168  51.626 -53.471  1.00  0.00     0.050 A 
HETATM   26  C   UNL     1     -39.899  52.118 -52.188  1.00  0.00     0.018 A 
HETATM   27  C   UNL     1     -40.211  53.439 -51.861  1.00  0.00     0.027 A 
HETATM   28  C   UNL     1     -40.801  54.277 -52.814  1.00  0.00     0.060 A 
HETATM   29 CL   UNL     1     -41.160  55.908 -52.354  1.00  0.00    -0.082 Cl
BRANCH  25  30
HETATM   30  C   UNL     1     -39.842  50.200 -53.851  1.00  0.00     0.417 C 
HETATM   31  F   UNL     1     -38.682  50.084 -54.557  1.00  0.00    -0.166 F 
HETATM   32  F   UNL     1     -39.699  49.390 -52.767  1.00  0.00    -0.166 F 
HETATM   33  F   UNL     1     -40.803  49.629 -54.628  1.00  0.00    -0.166 F 
ENDBRANCH  25  30
ENDBRANCH   1  23
TORSDOF 6
ENDMDL
MODEL 5
REMARK VINA RESULT:      -7.8      1.810      2.271
REMARK  6 active torsions:
REMARK  status: ('A' for Active; 'I' for Inactive)
REMARK    1  A    between atoms: C_2  and  C_3 
REMARK    2  A    between atoms: C_8  and  N_9 
REMARK       I    between atoms: N_9  and  C_10 
REMARK       I    between atoms: C_10  and  N_11 
REMARK    3  A    between atoms: N_11  and  N_12 
REMARK       I    between atoms: N_12  and  C_13 
REMARK    4  A    between atoms: C_13  and  C_14 
REMARK    5  A    between atoms: C_14  and  N_15 
REMARK       I    between atoms: N_15  and  C_16 
REMARK       I    between atoms: C_16  and  N_17 
REMARK    6  A    between atoms: N_17  and  C_18 
ROOT
HETATM    1  N   UNL     1     -42.605  55.599 -51.042  1.00  0.00    -0.306 N 
HETATM    2  C   UNL     1     -43.910  55.467 -50.646  1.00  0.00     0.339 C 
HETATM    3  N   UNL     1     -44.631  56.632 -50.641  1.00  0.00    -0.249 N 
HETATM    4  O   UNL     1     -44.465  54.423 -50.315  1.00  0.00    -0.245 OA
HETATM    5  H   UNL     1     -42.256  56.549 -51.059  1.00  0.00     0.171 HD
HETATM    6  H   UNL     1     -45.572  56.594 -50.247  1.00  0.00     0.192 HD
ENDROOT
BRANCH   3   7
HETATM    7  N   UNL     1     -44.124  57.909 -50.934  1.00  0.00    -0.265 N 
HETATM    8  C   UNL     1     -45.038  58.945 -50.777  1.00  0.00     0.253 C 
HETATM    9  O   UNL     1     -46.138  58.772 -50.249  1.00  0.00    -0.270 OA
HETATM   10  H   UNL     1     -43.494  57.988 -51.739  1.00  0.00     0.190 HD
BRANCH   8  11
HETATM   11  C   UNL     1     -44.684  60.251 -51.487  1.00  0.00     0.228 C 
BRANCH  11  12
HETATM   12  N   UNL     1     -45.029  60.298 -52.892  1.00  0.00    -0.334 N 
HETATM   13  C   UNL     1     -46.133  60.928 -53.369  1.00  0.00     0.322 C 
HETATM   14  N   UNL     1     -46.227  61.113 -54.711  1.00  0.00    -0.287 N 
HETATM   15  O   UNL     1     -47.040  61.290 -52.618  1.00  0.00    -0.247 OA
HETATM   16  H   UNL     1     -47.062  61.569 -55.046  1.00  0.00     0.172 HD
HETATM   17  H   UNL     1     -44.302  60.078 -53.571  1.00  0.00     0.164 HD
BRANCH  14  18
HETATM   18  C   UNL     1     -45.289  60.743 -55.631  1.00  0.00     0.174 A 
HETATM   19  S   UNL     1     -45.876  59.805 -56.927  1.00  0.00    -0.062 SA
HETATM   20  C   UNL     1     -44.282  59.733 -57.562  1.00  0.00     0.072 A 
HETATM   21  C   UNL     1     -43.425  60.435 -56.742  1.00  0.00     0.126 A 
HETATM   22  N   UNL     1     -44.007  61.022 -55.634  1.00  0.00    -0.236 NA
ENDBRANCH  14  18
ENDBRANCH  11  12
ENDBRANCH   8  11
ENDBRANCH   3   7
BRANCH   1  23
HETATM   23  C   UNL     1     -41.659  54.567 -51.254  1.00  0.00     0.059 A 
HETATM   24  C   UNL     1     -41.464  53.965 -52.505  1.00  0.00     0.047 A 
HETATM   25  C   UNL     1     -40.506  52.953 -52.693  1.00  0.00     0.050 A 
HETATM   26  C   UNL     1     -39.737  52.533 -51.599  1.00  0.00     0.018 A 
HETATM   27  C   UNL     1     -39.913  53.127 -50.347  1.00  0.00     0.027 A 
HETATM   28  C   UNL     1     -40.863  54.140 -50.178  1.00  0.00     0.060 A 
HETATM   29 CL   UNL     1     -41.032  54.843 -48.604  1.00  0.00    -0.082 Cl
BRANCH  25  30
HETATM   30  C   UNL     1     -40.338  52.326 -54.057  1.00  0.00     0.417 C 
HETATM   31  F   UNL     1     -41.470  51.717 -54.511  1.00  0.00    -0.166 F 
HETATM   32  F   UNL     1     -39.999  53.235 -55.011  1.00  0.00    -0.166 F 
HETATM   33  F   UNL     1     -39.370  51.370 -54.082  1.00  0.00    -0.166 F 
ENDBRANCH  25  30
ENDBRANCH   1  23
TORSDOF 6
ENDMDL
MODEL 6
REMARK VINA RESULT:      -7.7      2.533      3.017
REMARK  6 active torsions:
REMARK  status: ('A' for Active; 'I' for Inactive)
REMARK    1  A    between atoms: C_2  and  C_3 
REMARK    2  A    between atoms: C_8  and  N_9 
REMARK       I    between atoms: N_9  and  C_10 
REMARK       I    between atoms: C_10  and  N_11 
REMARK    3  A    between atoms: N_11  and  N_12 
REMARK       I    between atoms: N_12  and  C_13 
REMARK    4  A    between atoms: C_13  and  C_14 
REMARK    5  A    between atoms: C_14  and  N_15 
REMARK       I    between atoms: N_15  and  C_16 
REMARK       I    between atoms: C_16  and  N_17 
REMARK    6  A    between atoms: N_17  and  C_18 
ROOT
HETATM    1  N   UNL     1     -41.418  55.017 -51.487  1.00  0.00    -0.306 N 
HETATM    2  C   UNL     1     -42.589  55.165 -50.793  1.00  0.00     0.339 C 
HETATM    3  N   UNL     1     -42.927  56.462 -50.502  1.00  0.00    -0.249 N 
HETATM    4  O   UNL     1     -43.338  54.262 -50.432  1.00  0.00    -0.245 OA
HETATM    5  H   UNL     1     -40.822  55.835 -51.503  1.00  0.00     0.171 HD
HETATM    6  H   UNL     1     -43.732  56.606 -49.892  1.00  0.00     0.192 HD
ENDROOT
BRANCH   3   7
HETATM    7  N   UNL     1     -42.147  57.594 -50.793  1.00  0.00    -0.265 N 
HETATM    8  C   UNL     1     -42.756  58.513 -51.640  1.00  0.00     0.253 C 
HETATM    9  O   UNL     1     -43.945  58.426 -51.954  1.00  0.00    -0.270 OA
HETATM   10  H   UNL     1     -41.144  57.444 -50.944  1.00  0.00     0.190 HD
BRANCH   8  11
HETATM   11  C   UNL     1     -41.815  59.506 -52.322  1.00  0.00     0.228 C 
BRANCH  11  12
HETATM   12  N   UNL     1     -42.287  60.026 -53.588  1.00  0.00    -0.334 N 
HETATM   13  C   UNL     1     -42.727  61.299 -53.756  1.00  0.00     0.322 C 
HETATM   14  N   UNL     1     -42.915  61.743 -55.025  1.00  0.00    -0.287 N 
HETATM   15  O   UNL     1     -42.983  62.021 -52.791  1.00  0.00    -0.247 OA
HETATM   16  H   UNL     1     -43.258  62.686 -55.127  1.00  0.00     0.172 HD
HETATM   17  H   UNL     1     -42.048  59.512 -54.435  1.00  0.00     0.164 HD
BRANCH  14  18
HETATM   18  C   UNL     1     -42.674  61.026 -56.161  1.00  0.00     0.174 A 
HETATM   19  S   UNL     1     -43.931  61.044 -57.312  1.00  0.00    -0.062 SA
HETATM   20  C   UNL     1     -42.989  60.023 -58.320  1.00  0.00     0.072 A 
HETATM   21  C   UNL     1     -41.784  59.750 -57.707  1.00  0.00     0.126 A 
HETATM   22  N   UNL     1     -41.602  60.334 -56.466  1.00  0.00    -0.236 NA
ENDBRANCH  14  18
ENDBRANCH  11  12
ENDBRANCH   8  11
ENDBRANCH   3   7
BRANCH   1  23
HETATM   23  C   UNL     1     -40.878  53.822 -52.021  1.00  0.00     0.059 A 
HETATM   24  C   UNL     1     -40.613  52.694 -51.232  1.00  0.00     0.047 A 
HETATM   25  C   UNL     1     -40.092  51.512 -51.790  1.00  0.00     0.050 A 
HETATM   26  C   UNL     1     -39.824  51.470 -53.165  1.00  0.00     0.018 A 
HETATM   27  C   UNL     1     -40.089  52.582 -53.967  1.00  0.00     0.027 A 
HETATM   28  C   UNL     1     -40.617  53.747 -53.400  1.00  0.00     0.060 A 
HETATM   29 CL   UNL     1     -40.930  55.092 -54.445  1.00  0.00    -0.082 Cl
BRANCH  25  30
HETATM   30  C   UNL     1     -39.813  50.324 -50.899  1.00  0.00     0.417 C 
HETATM   31  F   UNL     1     -40.402  49.175 -51.336  1.00  0.00    -0.166 F 
HETATM   32  F   UNL     1     -38.485  50.045 -50.800  1.00  0.00    -0.166 F 
HETATM   33  F   UNL     1     -40.259  50.505 -49.626  1.00  0.00    -0.166 F 
ENDBRANCH  25  30
ENDBRANCH   1  23
TORSDOF 6
ENDMDL
MODEL 7
REMARK VINA RESULT:      -7.6      2.909      4.661
REMARK  6 active torsions:
REMARK  status: ('A' for Active; 'I' for Inactive)
REMARK    1  A    between atoms: C_2  and  C_3 
REMARK    2  A    between atoms: C_8  and  N_9 
REMARK       I    between atoms: N_9  and  C_10 
REMARK       I    between atoms: C_10  and  N_11 
REMARK    3  A    between atoms: N_11  and  N_12 
REMARK       I    between atoms: N_12  and  C_13 
REMARK    4  A    between atoms: C_13  and  C_14 
REMARK    5  A    between atoms: C_14  and  N_15 
REMARK       I    between atoms: N_15  and  C_16 
REMARK       I    between atoms: C_16  and  N_17 
REMARK    6  A    between atoms: N_17  and  C_18 
ROOT
HETATM    1  N   UNL     1     -42.087  56.592 -52.631  1.00  0.00    -0.306 N 
HETATM    2  C   UNL     1     -41.504  57.756 -53.059  1.00  0.00     0.339 C 
HETATM    3  N   UNL     1     -42.349  58.833 -53.126  1.00  0.00    -0.249 N 
HETATM    4  O   UNL     1     -40.326  57.906 -53.368  1.00  0.00    -0.245 OA
HETATM    5  H   UNL     1     -43.099  56.592 -52.638  1.00  0.00     0.171 HD
HETATM    6  H   UNL     1     -41.980  59.688 -53.544  1.00  0.00     0.192 HD
ENDROOT
BRANCH   3   7
HETATM    7  N   UNL     1     -43.730  58.807 -52.864  1.00  0.00    -0.265 N 
HETATM    8  C   UNL     1     -44.410  59.963 -53.228  1.00  0.00     0.253 C 
HETATM    9  O   UNL     1     -43.876  60.854 -53.893  1.00  0.00    -0.270 OA
HETATM   10  H   UNL     1     -44.030  58.370 -51.986  1.00  0.00     0.190 HD
BRANCH   8  11
HETATM   11  C   UNL     1     -45.780  60.156 -52.580  1.00  0.00     0.228 C 
BRANCH  11  12
HETATM   12  N   UNL     1     -45.750  60.484 -51.170  1.00  0.00    -0.334 N 
HETATM   13  C   UNL     1     -45.622  59.555 -50.189  1.00  0.00     0.322 C 
HETATM   14  N   UNL     1     -45.365  59.993 -48.930  1.00  0.00    -0.287 N 
HETATM   15  O   UNL     1     -45.770  58.354 -50.421  1.00  0.00    -0.247 OA
HETATM   16  H   UNL     1     -45.290  59.287 -48.213  1.00  0.00     0.172 HD
HETATM   17  H   UNL     1     -45.560  61.451 -50.908  1.00  0.00     0.164 HD
BRANCH  14  18
HETATM   18  C   UNL     1     -45.194  61.296 -48.562  1.00  0.00     0.174 A 
HETATM   19  S   UNL     1     -46.211  61.835 -47.306  1.00  0.00    -0.062 SA
HETATM   20  C   UNL     1     -45.490  63.388 -47.422  1.00  0.00     0.072 A 
HETATM   21  C   UNL     1     -44.523  63.378 -48.405  1.00  0.00     0.126 A 
HETATM   22  N   UNL     1     -44.349  62.170 -49.057  1.00  0.00    -0.236 NA
ENDBRANCH  14  18
ENDBRANCH  11  12
ENDBRANCH   8  11
ENDBRANCH   3   7
BRANCH   1  23
HETATM   23  C   UNL     1     -41.449  55.359 -52.357  1.00  0.00     0.059 A 
HETATM   24  C   UNL     1     -41.152  54.422 -53.356  1.00  0.00     0.047 A 
HETATM   25  C   UNL     1     -40.502  53.210 -53.060  1.00  0.00     0.050 A 
HETATM   26  C   UNL     1     -40.153  52.934 -51.731  1.00  0.00     0.018 A 
HETATM   27  C   UNL     1     -40.433  53.860 -50.723  1.00  0.00     0.027 A 
HETATM   28  C   UNL     1     -41.072  55.065 -51.035  1.00  0.00     0.060 A 
HETATM   29 CL   UNL     1     -41.388  56.176 -49.745  1.00  0.00    -0.082 Cl
BRANCH  25  30
HETATM   30  C   UNL     1     -40.212  52.227 -54.169  1.00  0.00     0.417 C 
HETATM   31  F   UNL     1     -39.127  51.439 -53.918  1.00  0.00    -0.166 F 
HETATM   32  F   UNL     1     -41.246  51.372 -54.394  1.00  0.00    -0.166 F 
HETATM   33  F   UNL     1     -39.957  52.836 -55.359  1.00  0.00    -0.166 F 
ENDBRANCH  25  30
ENDBRANCH   1  23
TORSDOF 6
ENDMDL
MODEL 8
REMARK VINA RESULT:      -7.5      2.003      2.466
REMARK  6 active torsions:
REMARK  status: ('A' for Active; 'I' for Inactive)
REMARK    1  A    between atoms: C_2  and  C_3 
REMARK    2  A    between atoms: C_8  and  N_9 
REMARK       I    between atoms: N_9  and  C_10 
REMARK       I    between atoms: C_10  and  N_11 
REMARK    3  A    between atoms: N_11  and  N_12 
REMARK       I    between atoms: N_12  and  C_13 
REMARK    4  A    between atoms: C_13  and  C_14 
REMARK    5  A    between atoms: C_14  and  N_15 
REMARK       I    between atoms: N_15  and  C_16 
REMARK       I    between atoms: C_16  and  N_17 
REMARK    6  A    between atoms: N_17  and  C_18 
ROOT
HETATM    1  N   UNL     1     -43.058  55.892 -51.947  1.00  0.00    -0.306 N 
HETATM    2  C   UNL     1     -43.924  55.815 -50.887  1.00  0.00     0.339 C 
HETATM    3  N   UNL     1     -44.570  56.985 -50.584  1.00  0.00    -0.249 N 
HETATM    4  O   UNL     1     -44.164  54.814 -50.219  1.00  0.00    -0.245 OA
HETATM    5  H   UNL     1     -42.815  56.832 -52.233  1.00  0.00     0.171 HD
HETATM    6  H   UNL     1     -45.137  56.995 -49.736  1.00  0.00     0.192 HD
ENDROOT
BRANCH   3   7
HETATM    7  N   UNL     1     -44.359  58.222 -51.215  1.00  0.00    -0.265 N 
HETATM    8  C   UNL     1     -45.278  59.209 -50.876  1.00  0.00     0.253 C 
HETATM    9  O   UNL     1     -46.090  59.059 -49.961  1.00  0.00    -0.270 OA
HETATM   10  H   UNL     1     -44.069  58.202 -52.199  1.00  0.00     0.190 HD
BRANCH   8  11
HETATM   11  C   UNL     1     -45.359  60.394 -51.837  1.00  0.00     0.228 C 
BRANCH  11  12
HETATM   12  N   UNL     1     -44.337  60.424 -52.861  1.00  0.00    -0.334 N 
HETATM   13  C   UNL     1     -43.204  61.164 -52.765  1.00  0.00     0.322 C 
HETATM   14  N   UNL     1     -42.214  60.929 -53.664  1.00  0.00    -0.287 N 
HETATM   15  O   UNL     1     -43.085  62.046 -51.913  1.00  0.00    -0.247 OA
HETATM   16  H   UNL     1     -41.387  61.502 -53.586  1.00  0.00     0.172 HD
HETATM   17  H   UNL     1     -44.336  59.679 -53.557  1.00  0.00     0.164 HD
BRANCH  14  18
HETATM   18  C   UNL     1     -42.246  59.987 -54.652  1.00  0.00     0.174 A 
HETATM   19  S   UNL     1     -42.430  60.598 -56.232  1.00  0.00    -0.062 SA
HETATM   20  C   UNL     1     -42.403  58.989 -56.830  1.00  0.00     0.072 A 
HETATM   21  C   UNL     1     -42.249  58.108 -55.781  1.00  0.00     0.126 A 
HETATM   22  N   UNL     1     -42.152  58.684 -54.527  1.00  0.00    -0.236 NA
ENDBRANCH  14  18
ENDBRANCH  11  12
ENDBRANCH   8  11
ENDBRANCH   3   7
BRANCH   1  23
HETATM   23  C   UNL     1     -42.344  54.833 -52.556  1.00  0.00     0.059 A 
HETATM   24  C   UNL     1     -41.367  54.091 -51.877  1.00  0.00     0.047 A 
HETATM   25  C   UNL     1     -40.683  53.031 -52.501  1.00  0.00     0.050 A 
HETATM   26  C   UNL     1     -40.983  52.719 -53.834  1.00  0.00     0.018 A 
HETATM   27  C   UNL     1     -41.959  53.443 -54.522  1.00  0.00     0.027 A 
HETATM   28  C   UNL     1     -42.638  54.488 -53.886  1.00  0.00     0.060 A 
HETATM   29 CL   UNL     1     -43.842  55.345 -54.788  1.00  0.00    -0.082 Cl
BRANCH  25  30
HETATM   30  C   UNL     1     -39.631  52.266 -51.732  1.00  0.00     0.417 C 
HETATM   31  F   UNL     1     -38.834  53.068 -50.970  1.00  0.00    -0.166 F 
HETATM   32  F   UNL     1     -40.168  51.356 -50.876  1.00  0.00    -0.166 F 
HETATM   33  F   UNL     1     -38.786  51.573 -52.544  1.00  0.00    -0.166 F 
ENDBRANCH  25  30
ENDBRANCH   1  23
TORSDOF 6
ENDMDL
MODEL 9
REMARK VINA RESULT:      -7.4      3.124      4.209
REMARK  6 active torsions:
REMARK  status: ('A' for Active; 'I' for Inactive)
REMARK    1  A    between atoms: C_2  and  C_3 
REMARK    2  A    between atoms: C_8  and  N_9 
REMARK       I    between atoms: N_9  and  C_10 
REMARK       I    between atoms: C_10  and  N_11 
REMARK    3  A    between atoms: N_11  and  N_12 
REMARK       I    between atoms: N_12  and  C_13 
REMARK    4  A    between atoms: C_13  and  C_14 
REMARK    5  A    between atoms: C_14  and  N_15 
REMARK       I    between atoms: N_15  and  C_16 
REMARK       I    between atoms: C_16  and  N_17 
REMARK    6  A    between atoms: N_17  and  C_18 
ROOT
HETATM    1  N   UNL     1     -41.797  57.860 -53.657  1.00  0.00    -0.306 N 
HETATM    2  C   UNL     1     -41.031  58.995 -53.614  1.00  0.00     0.339 C 
HETATM    3  N   UNL     1     -41.655  60.129 -54.061  1.00  0.00    -0.249 N 
HETATM    4  O   UNL     1     -39.874  59.074 -53.210  1.00  0.00    -0.245 OA
HETATM    5  H   UNL     1     -42.635  57.930 -54.221  1.00  0.00     0.171 HD
HETATM    6  H   UNL     1     -41.084  60.970 -54.148  1.00  0.00     0.192 HD
ENDROOT
BRANCH   3   7
HETATM    7  N   UNL     1     -42.949  60.189 -54.607  1.00  0.00    -0.265 N 
HETATM    8  C   UNL     1     -43.932  60.609 -53.718  1.00  0.00     0.253 C 
HETATM    9  O   UNL     1     -43.658  61.065 -52.606  1.00  0.00    -0.270 OA
HETATM   10  H   UNL     1     -43.220  59.438 -55.250  1.00  0.00     0.190 HD
BRANCH   8  11
HETATM   11  C   UNL     1     -45.369  60.274 -54.117  1.00  0.00     0.228 C 
BRANCH  11  12
HETATM   12  N   UNL     1     -45.505  59.533 -55.353  1.00  0.00    -0.334 N 
HETATM   13  C   UNL     1     -45.391  58.183 -55.432  1.00  0.00     0.322 C 
HETATM   14  N   UNL     1     -45.773  57.580 -56.587  1.00  0.00    -0.287 N 
HETATM   15  O   UNL     1     -44.924  57.524 -54.502  1.00  0.00    -0.247 OA
HETATM   16  H   UNL     1     -45.665  56.578 -56.631  1.00  0.00     0.172 HD
HETATM   17  H   UNL     1     -45.950  59.999 -56.143  1.00  0.00     0.164 HD
BRANCH  14  18
HETATM   18  C   UNL     1     -46.293  58.214 -57.679  1.00  0.00     0.174 A 
HETATM   19  S   UNL     1     -45.355  58.102 -59.097  1.00  0.00    -0.062 SA
HETATM   20  C   UNL     1     -46.525  59.053 -59.916  1.00  0.00     0.072 A 
HETATM   21  C   UNL     1     -47.547  59.379 -59.049  1.00  0.00     0.126 A 
HETATM   22  N   UNL     1     -47.414  58.889 -57.762  1.00  0.00    -0.236 NA
ENDBRANCH  14  18
ENDBRANCH  11  12
ENDBRANCH   8  11
ENDBRANCH   3   7
BRANCH   1  23
HETATM   23  C   UNL     1     -41.465  56.576 -53.161  1.00  0.00     0.059 A 
HETATM   24  C   UNL     1     -41.133  55.503 -54.000  1.00  0.00     0.047 A 
HETATM   25  C   UNL     1     -40.791  54.241 -53.480  1.00  0.00     0.050 A 
HETATM   26  C   UNL     1     -40.792  54.055 -52.092  1.00  0.00     0.018 A 
HETATM   27  C   UNL     1     -41.113  55.115 -51.240  1.00  0.00     0.027 A 
HETATM   28  C   UNL     1     -41.441  56.367 -51.771  1.00  0.00     0.060 A 
HETATM   29 CL   UNL     1     -41.824  57.645 -50.667  1.00  0.00    -0.082 Cl
BRANCH  25  30
HETATM   30  C   UNL     1     -40.450  53.112 -54.424  1.00  0.00     0.417 C 
HETATM   31  F   UNL     1     -40.082  53.542 -55.665  1.00  0.00    -0.166 F 
HETATM   32  F   UNL     1     -39.417  52.349 -53.975  1.00  0.00    -0.166 F 
HETATM   33  F   UNL     1     -41.493  52.260 -54.625  1.00  0.00    -0.166 F 
ENDBRANCH  25  30
ENDBRANCH   1  23
TORSDOF 6
ENDMDL
MODEL 10
REMARK VINA RESULT:      -7.3      2.655      3.620
REMARK  6 active torsions:
REMARK  status: ('A' for Active; 'I' for Inactive)
REMARK    1  A    between atoms: C_2  and  C_3 
REMARK    2  A    between atoms: C_8  and  N_9 
REMARK       I    between atoms: N_9  and  C_10 
REMARK       I    between atoms: C_10  and  N_11 
REMARK    3  A    between atoms: N_11  and  N_12 
REMARK       I    between atoms: N_12  and  C_13 
REMARK    4  A    between atoms: C_13  and  C_14 
REMARK    5  A    between atoms: C_14  and  N_15 
REMARK       I    between atoms: N_15  and  C_16 
REMARK       I    between atoms: C_16  and  N_17 
REMARK    6  A    between atoms: N_17  and  C_18 
ROOT
HETATM    1  N   UNL     1     -41.767  57.428 -53.046  1.00  0.00    -0.306 N 
HETATM    2  C   UNL     1     -41.142  58.396 -52.305  1.00  0.00     0.339 C 
HETATM    3  N   UNL     1     -41.283  59.672 -52.786  1.00  0.00    -0.249 N 
HETATM    4  O   UNL     1     -40.497  58.217 -51.276  1.00  0.00    -0.245 OA
HETATM    5  H   UNL     1     -42.056  57.718 -53.972  1.00  0.00     0.171 HD
HETATM    6  H   UNL     1     -40.741  60.404 -52.325  1.00  0.00     0.192 HD
ENDROOT
BRANCH   3   7
HETATM    7  N   UNL     1     -41.936  60.029 -53.977  1.00  0.00    -0.265 N 
HETATM    8  C   UNL     1     -43.284  60.334 -53.828  1.00  0.00     0.253 C 
HETATM    9  O   UNL     1     -43.808  60.460 -52.719  1.00  0.00    -0.270 OA
HETATM   10  H   UNL     1     -41.688  59.502 -54.821  1.00  0.00     0.190 HD
BRANCH   8  11
HETATM   11  C   UNL     1     -44.116  60.293 -55.110  1.00  0.00     0.228 C 
BRANCH  11  12
HETATM   12  N   UNL     1     -43.845  59.169 -55.980  1.00  0.00    -0.334 N 
HETATM   13  C   UNL     1     -44.250  57.902 -55.712  1.00  0.00     0.322 C 
HETATM   14  N   UNL     1     -44.153  56.981 -56.704  1.00  0.00    -0.287 N 
HETATM   15  O   UNL     1     -44.661  57.583 -54.595  1.00  0.00    -0.247 OA
HETATM   16  H   UNL     1     -44.444  56.041 -56.479  1.00  0.00     0.172 HD
HETATM   17  H   UNL     1     -43.570  59.364 -56.942  1.00  0.00     0.164 HD
BRANCH  14  18
HETATM   18  C   UNL     1     -43.704  57.223 -57.971  1.00  0.00     0.174 A 
HETATM   19  S   UNL     1     -44.886  57.108 -59.193  1.00  0.00    -0.062 SA
HETATM   20  C   UNL     1     -43.681  57.481 -60.358  1.00  0.00     0.072 A 
HETATM   21  C   UNL     1     -42.470  57.671 -59.726  1.00  0.00     0.126 A 
HETATM   22  N   UNL     1     -42.486  57.528 -58.351  1.00  0.00    -0.236 NA
ENDBRANCH  14  18
ENDBRANCH  11  12
ENDBRANCH   8  11
ENDBRANCH   3   7
BRANCH   1  23
HETATM   23  C   UNL     1     -41.892  56.052 -52.739  1.00  0.00     0.059 A 
HETATM   24  C   UNL     1     -41.097  55.068 -53.342  1.00  0.00     0.047 A 
HETATM   25  C   UNL     1     -41.229  53.708 -53.006  1.00  0.00     0.050 A 
HETATM   26  C   UNL     1     -42.185  53.333 -52.052  1.00  0.00     0.018 A 
HETATM   27  C   UNL     1     -42.980  54.302 -51.436  1.00  0.00     0.027 A 
HETATM   28  C   UNL     1     -42.831  55.651 -51.773  1.00  0.00     0.060 A 
HETATM   29 CL   UNL     1     -43.840  56.808 -50.971  1.00  0.00    -0.082 Cl
BRANCH  25  30
HETATM   30  C   UNL     1     -40.357  52.681 -53.690  1.00  0.00     0.417 C 
HETATM   31  F   UNL     1     -39.444  52.110 -52.853  1.00  0.00    -0.166 F 
HETATM   32  F   UNL     1     -41.075  51.650 -54.213  1.00  0.00    -0.166 F 
HETATM   33  F   UNL     1     -39.637  53.203 -54.719  1.00  0.00    -0.166 F 
ENDBRANCH  25  30
ENDBRANCH   1  23
TORSDOF 6
ENDMDL
