MODEL 1
REMARK VINA RESULT:      -8.1      0.000      0.000
REMARK  9 active torsions:
REMARK  status: ('A' for Active; 'I' for Inactive)
REMARK    1  A    between atoms: C_6  and  C_7 
REMARK    2  A    between atoms: C_7  and  C_8 
REMARK       I    between atoms: C_8  and  N_9 
REMARK    3  A    between atoms: N_9  and  C_10 
REMARK    4  A    between atoms: C_10  and  C_11 
REMARK    5  A    between atoms: C_11  and  N_12 
REMARK    6  A    between atoms: C_17  and  C_18 
REMARK    7  A    between atoms: C_21  and  C_22 
REMARK    8  A    between atoms: C_29  and  C_30 
REMARK       I    between atoms: C_30  and  N_31 
REMARK    9  A    between atoms: N_31  and  C_32 
ROOT
HETATM    1  C   UNL     1     -42.218  58.916 -57.602  1.00  0.00     0.071 C 
HETATM    2  C   UNL     1     -42.545  58.495 -56.187  1.00  0.00     0.047 C 
HETATM    3  N   UNL     1     -41.553  58.841 -55.282  1.00  0.00    -0.229 NA
HETATM    4  C   UNL     1     -41.834  58.739 -54.029  1.00  0.00     0.170 C 
HETATM    5  N   UNL     1     -43.112  58.061 -53.465  1.00  0.00    -0.319 N 
HETATM    6  C   UNL     1     -43.297  58.344 -52.218  1.00  0.00     0.011 C 
HETATM    7  C   UNL     1     -43.719  57.143 -54.455  1.00  0.00     0.165 C 
HETATM    8  S   UNL     1     -40.883  59.440 -52.765  1.00  0.00    -0.086 SA
HETATM    9  C   UNL     1     -42.282  59.289 -51.610  1.00  0.00     0.135 C 
HETATM   10  C   UNL     1     -43.675  57.853 -55.801  1.00  0.00     0.062 C 
ENDROOT
BRANCH   6  11
HETATM   11  C   UNL     1     -44.406  57.739 -51.407  1.00  0.00     0.156 C 
BRANCH  11  12
HETATM   12  C   UNL     1     -45.506  58.701 -51.006  1.00  0.00     0.223 C 
HETATM   13  N   UNL     1     -45.862  59.591 -51.987  1.00  0.00    -0.359 N 
HETATM   14  H   UNL     1     -45.319  59.582 -52.847  1.00  0.00     0.162 HD
HETATM   15  O   UNL     1     -45.997  58.691 -49.882  1.00  0.00    -0.273 OA
BRANCH  13  16
HETATM   16  C   UNL     1     -46.688  60.794 -51.836  1.00  0.00     0.150 C 
BRANCH  16  17
HETATM   17  C   UNL     1     -46.107  62.011 -51.084  1.00  0.00     0.253 C 
BRANCH  17  18
HETATM   18  N   UNL     1     -46.177  61.881 -49.577  1.00  0.00    -0.077 N 
HETATM   19  H   UNL     1     -46.650  60.974 -49.391  1.00  0.00     0.279 HD
HETATM   20  C   UNL     1     -44.839  61.849 -48.889  1.00  0.00     0.269 C 
HETATM   21  C   UNL     1     -47.057  62.947 -48.977  1.00  0.00     0.269 C 
ENDBRANCH  17  18
ENDBRANCH  16  17
ENDBRANCH  13  16
ENDBRANCH  11  12
ENDBRANCH   6  11
BRANCH   7  22
HETATM   22  C   UNL     1     -42.954  55.803 -54.391  1.00  0.00    -0.030 A 
HETATM   23  C   UNL     1     -43.021  54.999 -53.235  1.00  0.00     0.010 A 
HETATM   24  C   UNL     1     -42.168  53.904 -53.054  1.00  0.00     0.008 A 
HETATM   25  C   UNL     1     -41.238  53.551 -54.034  1.00  0.00    -0.055 A 
HETATM   26  C   UNL     1     -41.241  54.270 -55.233  1.00  0.00     0.008 A 
HETATM   27  C   UNL     1     -42.086  55.372 -55.411  1.00  0.00     0.010 A 
BRANCH  25  28
HETATM   28  C   UNL     1     -40.252  52.421 -53.781  1.00  0.00     0.010 C 
HETATM   29  C   UNL     1     -39.939  52.260 -52.294  1.00  0.00     0.015 C 
HETATM   30  C   UNL     1     -40.749  51.102 -54.382  1.00  0.00     0.015 C 
ENDBRANCH  25  28
ENDBRANCH   7  22
BRANCH  10  31
HETATM   31  C   UNL     1     -45.008  57.893 -56.491  1.00  0.00     0.256 C 
HETATM   32  N   UNL     1     -45.020  57.288 -57.728  1.00  0.00    -0.323 N 
HETATM   33  H   UNL     1     -44.304  56.615 -57.955  1.00  0.00     0.169 HD
HETATM   34  O   UNL     1     -45.871  58.628 -56.028  1.00  0.00    -0.267 OA
BRANCH  32  35
HETATM   35  C   UNL     1     -45.869  57.558 -58.822  1.00  0.00     0.035 A 
HETATM   36  C   UNL     1     -46.214  58.839 -59.249  1.00  0.00     0.029 A 
HETATM   37  C   UNL     1     -46.959  59.009 -60.422  1.00  0.00     0.002 A 
HETATM   38  C   UNL     1     -47.375  57.903 -61.162  1.00  0.00     0.000 A 
HETATM   39  C   UNL     1     -47.058  56.621 -60.727  1.00  0.00     0.002 A 
HETATM   40  C   UNL     1     -46.305  56.450 -59.566  1.00  0.00     0.029 A 
ENDBRANCH  32  35
ENDBRANCH  10  31
TORSDOF 9
ENDMDL
MODEL 2
REMARK VINA RESULT:      -8.0      3.196      7.393
REMARK  9 active torsions:
REMARK  status: ('A' for Active; 'I' for Inactive)
REMARK    1  A    between atoms: C_6  and  C_7 
REMARK    2  A    between atoms: C_7  and  C_8 
REMARK       I    between atoms: C_8  and  N_9 
REMARK    3  A    between atoms: N_9  and  C_10 
REMARK    4  A    between atoms: C_10  and  C_11 
REMARK    5  A    between atoms: C_11  and  N_12 
REMARK    6  A    between atoms: C_17  and  C_18 
REMARK    7  A    between atoms: C_21  and  C_22 
REMARK    8  A    between atoms: C_29  and  C_30 
REMARK       I    between atoms: C_30  and  N_31 
REMARK    9  A    between atoms: N_31  and  C_32 
ROOT
HETATM    1  C   UNL     1     -45.926  56.841 -59.574  1.00  0.00     0.071 C 
HETATM    2  C   UNL     1     -45.156  57.843 -58.744  1.00  0.00     0.047 C 
HETATM    3  N   UNL     1     -45.812  59.060 -58.626  1.00  0.00    -0.229 NA
HETATM    4  C   UNL     1     -45.359  59.894 -57.756  1.00  0.00     0.170 C 
HETATM    5  N   UNL     1     -44.019  59.727 -56.990  1.00  0.00    -0.319 N 
HETATM    6  C   UNL     1     -43.937  60.532 -55.982  1.00  0.00     0.011 C 
HETATM    7  C   UNL     1     -43.109  58.792 -57.688  1.00  0.00     0.165 C 
HETATM    8  S   UNL     1     -46.224  61.292 -57.215  1.00  0.00    -0.086 SA
HETATM    9  C   UNL     1     -45.152  61.402 -55.747  1.00  0.00     0.135 C 
HETATM   10  C   UNL     1     -43.956  57.617 -58.155  1.00  0.00     0.062 C 
ENDROOT
BRANCH   6  11
HETATM   11  C   UNL     1     -42.704  60.642 -55.133  1.00  0.00     0.156 C 
BRANCH  11  12
HETATM   12  C   UNL     1     -42.411  59.433 -54.267  1.00  0.00     0.223 C 
HETATM   13  N   UNL     1     -41.228  59.506 -53.578  1.00  0.00    -0.359 N 
HETATM   14  H   UNL     1     -40.627  60.307 -53.763  1.00  0.00     0.162 HD
HETATM   15  O   UNL     1     -43.165  58.465 -54.229  1.00  0.00    -0.273 OA
BRANCH  13  16
HETATM   16  C   UNL     1     -40.541  58.416 -52.876  1.00  0.00     0.150 C 
BRANCH  16  17
HETATM   17  C   UNL     1     -41.138  57.882 -51.558  1.00  0.00     0.253 C 
BRANCH  17  18
HETATM   18  N   UNL     1     -42.001  56.650 -51.739  1.00  0.00    -0.077 N 
HETATM   19  H   UNL     1     -42.115  56.531 -52.766  1.00  0.00     0.279 HD
HETATM   20  C   UNL     1     -41.402  55.381 -51.195  1.00  0.00     0.269 C 
HETATM   21  C   UNL     1     -43.385  56.866 -51.183  1.00  0.00     0.269 C 
ENDBRANCH  17  18
ENDBRANCH  16  17
ENDBRANCH  13  16
ENDBRANCH  11  12
ENDBRANCH   6  11
BRANCH   7  22
HETATM   22  C   UNL     1     -42.393  59.576 -58.811  1.00  0.00    -0.030 A 
HETATM   23  C   UNL     1     -41.735  60.788 -58.524  1.00  0.00     0.010 A 
HETATM   24  C   UNL     1     -41.279  61.634 -59.543  1.00  0.00     0.008 A 
HETATM   25  C   UNL     1     -41.435  61.284 -60.886  1.00  0.00    -0.055 A 
HETATM   26  C   UNL     1     -41.982  60.032 -61.181  1.00  0.00     0.008 A 
HETATM   27  C   UNL     1     -42.448  59.191 -60.163  1.00  0.00     0.010 A 
BRANCH  25  28
HETATM   28  C   UNL     1     -41.025  62.256 -61.982  1.00  0.00     0.010 C 
HETATM   29  C   UNL     1     -42.147  63.235 -62.325  1.00  0.00     0.015 C 
HETATM   30  C   UNL     1     -39.740  63.004 -61.611  1.00  0.00     0.015 C 
ENDBRANCH  25  28
ENDBRANCH   7  22
BRANCH  10  31
HETATM   31  C   UNL     1     -43.401  56.286 -57.735  1.00  0.00     0.256 C 
HETATM   32  N   UNL     1     -43.393  56.084 -56.373  1.00  0.00    -0.323 N 
HETATM   33  H   UNL     1     -44.006  56.633 -55.790  1.00  0.00     0.169 HD
HETATM   34  O   UNL     1     -42.812  55.620 -58.577  1.00  0.00    -0.267 OA
BRANCH  32  35
HETATM   35  C   UNL     1     -42.537  55.253 -55.620  1.00  0.00     0.035 A 
HETATM   36  C   UNL     1     -42.871  53.973 -55.184  1.00  0.00     0.029 A 
HETATM   37  C   UNL     1     -41.910  53.174 -54.552  1.00  0.00     0.002 A 
HETATM   38  C   UNL     1     -40.619  53.657 -54.340  1.00  0.00     0.000 A 
HETATM   39  C   UNL     1     -40.286  54.943 -54.748  1.00  0.00     0.002 A 
HETATM   40  C   UNL     1     -41.239  55.736 -55.389  1.00  0.00     0.029 A 
ENDBRANCH  32  35
ENDBRANCH  10  31
TORSDOF 9
ENDMDL
MODEL 3
REMARK VINA RESULT:      -7.9      2.739      7.397
REMARK  9 active torsions:
REMARK  status: ('A' for Active; 'I' for Inactive)
REMARK    1  A    between atoms: C_6  and  C_7 
REMARK    2  A    between atoms: C_7  and  C_8 
REMARK       I    between atoms: C_8  and  N_9 
REMARK    3  A    between atoms: N_9  and  C_10 
REMARK    4  A    between atoms: C_10  and  C_11 
REMARK    5  A    between atoms: C_11  and  N_12 
REMARK    6  A    between atoms: C_17  and  C_18 
REMARK    7  A    between atoms: C_21  and  C_22 
REMARK    8  A    between atoms: C_29  and  C_30 
REMARK       I    between atoms: C_30  and  N_31 
REMARK    9  A    between atoms: N_31  and  C_32 
ROOT
HETATM    1  C   UNL     1     -44.336  54.350 -50.718  1.00  0.00     0.071 C 
HETATM    2  C   UNL     1     -43.955  55.711 -51.253  1.00  0.00     0.047 C 
HETATM    3  N   UNL     1     -44.869  56.697 -50.910  1.00  0.00    -0.229 NA
HETATM    4  C   UNL     1     -44.522  57.921 -51.114  1.00  0.00     0.170 C 
HETATM    5  N   UNL     1     -43.260  58.359 -51.905  1.00  0.00    -0.319 N 
HETATM    6  C   UNL     1     -42.986  59.608 -51.719  1.00  0.00     0.011 C 
HETATM    7  C   UNL     1     -42.771  57.276 -52.787  1.00  0.00     0.165 C 
HETATM    8  S   UNL     1     -45.353  59.284 -50.446  1.00  0.00    -0.086 SA
HETATM    9  C   UNL     1     -43.901  60.338 -50.760  1.00  0.00     0.135 C 
HETATM   10  C   UNL     1     -42.848  55.984 -51.986  1.00  0.00     0.062 C 
ENDROOT
BRANCH   6  11
HETATM   11  C   UNL     1     -41.872  60.308 -52.443  1.00  0.00     0.156 C 
BRANCH  11  12
HETATM   12  C   UNL     1     -42.017  60.356 -53.951  1.00  0.00     0.223 C 
HETATM   13  N   UNL     1     -43.038  61.156 -54.394  1.00  0.00    -0.359 N 
HETATM   14  H   UNL     1     -43.644  61.575 -53.692  1.00  0.00     0.162 HD
HETATM   15  O   UNL     1     -41.295  59.697 -54.693  1.00  0.00    -0.273 OA
BRANCH  13  16
HETATM   16  C   UNL     1     -43.599  61.212 -55.749  1.00  0.00     0.150 C 
BRANCH  16  17
HETATM   17  C   UNL     1     -42.956  62.155 -56.787  1.00  0.00     0.253 C 
BRANCH  17  18
HETATM   18  N   UNL     1     -41.612  61.673 -57.293  1.00  0.00    -0.077 N 
HETATM   19  H   UNL     1     -40.994  61.627 -56.458  1.00  0.00     0.279 HD
HETATM   20  C   UNL     1     -41.633  60.307 -57.923  1.00  0.00     0.269 C 
HETATM   21  C   UNL     1     -40.987  62.679 -58.226  1.00  0.00     0.269 C 
ENDBRANCH  17  18
ENDBRANCH  16  17
ENDBRANCH  13  16
ENDBRANCH  11  12
ENDBRANCH   6  11
BRANCH   7  22
HETATM   22  C   UNL     1     -43.615  57.301 -54.081  1.00  0.00    -0.030 A 
HETATM   23  C   UNL     1     -43.103  56.756 -55.276  1.00  0.00     0.010 A 
HETATM   24  C   UNL     1     -43.737  56.963 -56.506  1.00  0.00     0.008 A 
HETATM   25  C   UNL     1     -44.924  57.695 -56.586  1.00  0.00    -0.055 A 
HETATM   26  C   UNL     1     -45.502  58.142 -55.395  1.00  0.00     0.008 A 
HETATM   27  C   UNL     1     -44.863  57.944 -54.165  1.00  0.00     0.010 A 
BRANCH  25  28
HETATM   28  C   UNL     1     -45.547  57.996 -57.940  1.00  0.00     0.010 C 
HETATM   29  C   UNL     1     -47.074  58.004 -57.877  1.00  0.00     0.015 C 
HETATM   30  C   UNL     1     -45.017  59.313 -58.518  1.00  0.00     0.015 C 
ENDBRANCH  25  28
ENDBRANCH   7  22
BRANCH  10  31
HETATM   31  C   UNL     1     -41.557  55.217 -51.979  1.00  0.00     0.256 C 
HETATM   32  N   UNL     1     -41.470  54.254 -52.959  1.00  0.00    -0.323 N 
HETATM   33  H   UNL     1     -42.065  54.321 -53.771  1.00  0.00     0.169 HD
HETATM   34  O   UNL     1     -40.823  55.340 -51.007  1.00  0.00    -0.267 OA
BRANCH  32  35
HETATM   35  C   UNL     1     -40.704  53.068 -52.951  1.00  0.00     0.035 A 
HETATM   36  C   UNL     1     -40.095  52.537 -51.816  1.00  0.00     0.029 A 
HETATM   37  C   UNL     1     -39.463  51.289 -51.879  1.00  0.00     0.002 A 
HETATM   38  C   UNL     1     -39.424  50.576 -53.078  1.00  0.00     0.000 A 
HETATM   39  C   UNL     1     -40.006  51.113 -54.220  1.00  0.00     0.002 A 
HETATM   40  C   UNL     1     -40.647  52.350 -54.156  1.00  0.00     0.029 A 
ENDBRANCH  32  35
ENDBRANCH  10  31
TORSDOF 9
ENDMDL
MODEL 4
REMARK VINA RESULT:      -7.9      2.293      3.942
REMARK  9 active torsions:
REMARK  status: ('A' for Active; 'I' for Inactive)
REMARK    1  A    between atoms: C_6  and  C_7 
REMARK    2  A    between atoms: C_7  and  C_8 
REMARK       I    between atoms: C_8  and  N_9 
REMARK    3  A    between atoms: N_9  and  C_10 
REMARK    4  A    between atoms: C_10  and  C_11 
REMARK    5  A    between atoms: C_11  and  N_12 
REMARK    6  A    between atoms: C_17  and  C_18 
REMARK    7  A    between atoms: C_21  and  C_22 
REMARK    8  A    between atoms: C_29  and  C_30 
REMARK       I    between atoms: C_30  and  N_31 
REMARK    9  A    between atoms: N_31  and  C_32 
ROOT
HETATM    1  C   UNL     1     -42.299  59.136 -57.852  1.00  0.00     0.071 C 
HETATM    2  C   UNL     1     -42.583  58.564 -56.481  1.00  0.00     0.047 C 
HETATM    3  N   UNL     1     -41.677  58.994 -55.522  1.00  0.00    -0.229 NA
HETATM    4  C   UNL     1     -41.964  58.756 -54.290  1.00  0.00     0.170 C 
HETATM    5  N   UNL     1     -43.128  57.845 -53.816  1.00  0.00    -0.319 N 
HETATM    6  C   UNL     1     -43.381  58.001 -52.558  1.00  0.00     0.011 C 
HETATM    7  C   UNL     1     -43.562  56.919 -54.886  1.00  0.00     0.165 C 
HETATM    8  S   UNL     1     -41.162  59.501 -52.950  1.00  0.00    -0.086 SA
HETATM    9  C   UNL     1     -42.542  59.045 -51.853  1.00  0.00     0.135 C 
HETATM   10  C   UNL     1     -43.604  57.725 -56.177  1.00  0.00     0.062 C 
ENDROOT
BRANCH   6  11
HETATM   11  C   UNL     1     -44.395  57.170 -51.828  1.00  0.00     0.156 C 
BRANCH  11  12
HETATM   12  C   UNL     1     -43.821  56.046 -50.989  1.00  0.00     0.223 C 
HETATM   13  N   UNL     1     -42.483  55.821 -51.188  1.00  0.00    -0.359 N 
HETATM   14  H   UNL     1     -42.021  56.359 -51.919  1.00  0.00     0.162 HD
HETATM   15  O   UNL     1     -44.519  55.382 -50.229  1.00  0.00    -0.273 OA
BRANCH  13  16
HETATM   16  C   UNL     1     -41.701  54.663 -50.740  1.00  0.00     0.150 C 
BRANCH  16  17
HETATM   17  C   UNL     1     -40.403  54.901 -49.941  1.00  0.00     0.253 C 
BRANCH  17  18
HETATM   18  N   UNL     1     -40.006  53.729 -49.067  1.00  0.00    -0.077 N 
HETATM   19  H   UNL     1     -38.990  53.583 -49.232  1.00  0.00     0.279 HD
HETATM   20  C   UNL     1     -40.203  53.954 -47.592  1.00  0.00     0.269 C 
HETATM   21  C   UNL     1     -40.692  52.461 -49.508  1.00  0.00     0.269 C 
ENDBRANCH  17  18
ENDBRANCH  16  17
ENDBRANCH  13  16
ENDBRANCH  11  12
ENDBRANCH   6  11
BRANCH   7  22
HETATM   22  C   UNL     1     -42.594  55.715 -54.893  1.00  0.00    -0.030 A 
HETATM   23  C   UNL     1     -43.096  54.399 -54.853  1.00  0.00     0.010 A 
HETATM   24  C   UNL     1     -42.256  53.301 -54.628  1.00  0.00     0.008 A 
HETATM   25  C   UNL     1     -40.879  53.474 -54.467  1.00  0.00    -0.055 A 
HETATM   26  C   UNL     1     -40.356  54.761 -54.620  1.00  0.00     0.008 A 
HETATM   27  C   UNL     1     -41.196  55.860 -54.834  1.00  0.00     0.010 A 
BRANCH  25  28
HETATM   28  C   UNL     1     -39.995  52.286 -54.124  1.00  0.00     0.010 C 
HETATM   29  C   UNL     1     -39.560  52.301 -52.659  1.00  0.00     0.015 C 
HETATM   30  C   UNL     1     -40.679  50.961 -54.478  1.00  0.00     0.015 C 
ENDBRANCH  25  28
ENDBRANCH   7  22
BRANCH  10  31
HETATM   31  C   UNL     1     -44.912  57.606 -56.905  1.00  0.00     0.256 C 
HETATM   32  N   UNL     1     -44.798  57.138 -58.194  1.00  0.00    -0.323 N 
HETATM   33  H   UNL     1     -43.972  56.624 -58.461  1.00  0.00     0.169 HD
HETATM   34  O   UNL     1     -45.897  58.132 -56.402  1.00  0.00    -0.267 OA
BRANCH  32  35
HETATM   35  C   UNL     1     -45.663  57.368 -59.285  1.00  0.00     0.035 A 
HETATM   36  C   UNL     1     -46.495  56.400 -59.844  1.00  0.00     0.029 A 
HETATM   37  C   UNL     1     -47.411  56.755 -60.841  1.00  0.00     0.002 A 
HETATM   38  C   UNL     1     -47.488  58.072 -61.295  1.00  0.00     0.000 A 
HETATM   39  C   UNL     1     -46.642  59.038 -60.761  1.00  0.00     0.002 A 
HETATM   40  C   UNL     1     -45.737  58.688 -59.758  1.00  0.00     0.029 A 
ENDBRANCH  32  35
ENDBRANCH  10  31
TORSDOF 9
ENDMDL
MODEL 5
REMARK VINA RESULT:      -7.7      2.190      8.301
REMARK  9 active torsions:
REMARK  status: ('A' for Active; 'I' for Inactive)
REMARK    1  A    between atoms: C_6  and  C_7 
REMARK    2  A    between atoms: C_7  and  C_8 
REMARK       I    between atoms: C_8  and  N_9 
REMARK    3  A    between atoms: N_9  and  C_10 
REMARK    4  A    between atoms: C_10  and  C_11 
REMARK    5  A    between atoms: C_11  and  N_12 
REMARK    6  A    between atoms: C_17  and  C_18 
REMARK    7  A    between atoms: C_21  and  C_22 
REMARK    8  A    between atoms: C_29  and  C_30 
REMARK       I    between atoms: C_30  and  N_31 
REMARK    9  A    between atoms: N_31  and  C_32 
ROOT
HETATM    1  C   UNL     1     -39.927  58.530 -53.034  1.00  0.00     0.071 C 
HETATM    2  C   UNL     1     -41.311  58.693 -53.619  1.00  0.00     0.047 C 
HETATM    3  N   UNL     1     -41.395  59.755 -54.509  1.00  0.00    -0.229 NA
HETATM    4  C   UNL     1     -42.457  59.835 -55.233  1.00  0.00     0.170 C 
HETATM    5  N   UNL     1     -43.728  58.966 -55.034  1.00  0.00    -0.319 N 
HETATM    6  C   UNL     1     -44.522  59.034 -56.051  1.00  0.00     0.011 C 
HETATM    7  C   UNL     1     -43.783  58.392 -53.671  1.00  0.00     0.165 C 
HETATM    8  S   UNL     1     -42.603  60.857 -56.623  1.00  0.00    -0.086 SA
HETATM    9  C   UNL     1     -44.030  59.884 -57.203  1.00  0.00     0.135 C 
HETATM   10  C   UNL     1     -42.379  57.907 -53.339  1.00  0.00     0.062 C 
ENDROOT
BRANCH   6  11
HETATM   11  C   UNL     1     -45.866  58.365 -56.075  1.00  0.00     0.156 C 
BRANCH  11  12
HETATM   12  C   UNL     1     -46.568  58.383 -57.418  1.00  0.00     0.223 C 
HETATM   13  N   UNL     1     -46.426  57.228 -58.143  1.00  0.00    -0.359 N 
HETATM   14  H   UNL     1     -45.814  56.509 -57.765  1.00  0.00     0.162 HD
HETATM   15  O   UNL     1     -47.176  59.371 -57.818  1.00  0.00    -0.273 OA
BRANCH  13  16
HETATM   16  C   UNL     1     -46.752  57.024 -59.559  1.00  0.00     0.150 C 
BRANCH  16  17
HETATM   17  C   UNL     1     -45.943  55.991 -60.372  1.00  0.00     0.253 C 
BRANCH  17  18
HETATM   18  N   UNL     1     -44.854  55.308 -59.570  1.00  0.00    -0.077 N 
HETATM   19  H   UNL     1     -45.058  55.522 -58.573  1.00  0.00     0.279 HD
HETATM   20  C   UNL     1     -44.813  53.812 -59.719  1.00  0.00     0.269 C 
HETATM   21  C   UNL     1     -43.502  55.908 -59.862  1.00  0.00     0.269 C 
ENDBRANCH  17  18
ENDBRANCH  16  17
ENDBRANCH  13  16
ENDBRANCH  11  12
ENDBRANCH   6  11
BRANCH   7  22
HETATM   22  C   UNL     1     -44.349  59.473 -52.723  1.00  0.00    -0.030 A 
HETATM   23  C   UNL     1     -43.667  59.805 -51.535  1.00  0.00     0.010 A 
HETATM   24  C   UNL     1     -44.259  60.603 -50.550  1.00  0.00     0.008 A 
HETATM   25  C   UNL     1     -45.541  61.128 -50.728  1.00  0.00    -0.055 A 
HETATM   26  C   UNL     1     -46.180  60.901 -51.950  1.00  0.00     0.008 A 
HETATM   27  C   UNL     1     -45.594  60.094 -52.932  1.00  0.00     0.010 A 
BRANCH  25  28
HETATM   28  C   UNL     1     -46.209  61.911 -49.608  1.00  0.00     0.010 C 
HETATM   29  C   UNL     1     -45.192  62.446 -48.601  1.00  0.00     0.015 C 
HETATM   30  C   UNL     1     -47.079  63.044 -50.162  1.00  0.00     0.015 C 
ENDBRANCH  25  28
ENDBRANCH   7  22
BRANCH  10  31
HETATM   31  C   UNL     1     -42.343  56.481 -52.870  1.00  0.00     0.256 C 
HETATM   32  N   UNL     1     -41.105  55.886 -52.974  1.00  0.00    -0.323 N 
HETATM   33  H   UNL     1     -40.283  56.466 -53.032  1.00  0.00     0.169 HD
HETATM   34  O   UNL     1     -43.411  55.918 -52.667  1.00  0.00    -0.267 OA
BRANCH  32  35
HETATM   35  C   UNL     1     -40.807  54.514 -53.121  1.00  0.00     0.035 A 
HETATM   36  C   UNL     1     -40.746  53.852 -54.346  1.00  0.00     0.029 A 
HETATM   37  C   UNL     1     -40.317  52.521 -54.402  1.00  0.00     0.002 A 
HETATM   38  C   UNL     1     -39.966  51.842 -53.235  1.00  0.00     0.000 A 
HETATM   39  C   UNL     1     -40.051  52.487 -52.007  1.00  0.00     0.002 A 
HETATM   40  C   UNL     1     -40.466  53.818 -51.951  1.00  0.00     0.029 A 
ENDBRANCH  32  35
ENDBRANCH  10  31
TORSDOF 9
ENDMDL
MODEL 6
REMARK VINA RESULT:      -7.6      3.127      8.175
REMARK  9 active torsions:
REMARK  status: ('A' for Active; 'I' for Inactive)
REMARK    1  A    between atoms: C_6  and  C_7 
REMARK    2  A    between atoms: C_7  and  C_8 
REMARK       I    between atoms: C_8  and  N_9 
REMARK    3  A    between atoms: N_9  and  C_10 
REMARK    4  A    between atoms: C_10  and  C_11 
REMARK    5  A    between atoms: C_11  and  N_12 
REMARK    6  A    between atoms: C_17  and  C_18 
REMARK    7  A    between atoms: C_21  and  C_22 
REMARK    8  A    between atoms: C_29  and  C_30 
REMARK       I    between atoms: C_30  and  N_31 
REMARK    9  A    between atoms: N_31  and  C_32 
ROOT
HETATM    1  C   UNL     1     -44.225  57.183 -52.695  1.00  0.00     0.071 C 
HETATM    2  C   UNL     1     -43.738  57.926 -53.918  1.00  0.00     0.047 C 
HETATM    3  N   UNL     1     -44.506  59.044 -54.209  1.00  0.00    -0.229 NA
HETATM    4  C   UNL     1     -44.041  59.869 -55.082  1.00  0.00     0.170 C 
HETATM    5  N   UNL     1     -42.803  59.599 -55.979  1.00  0.00    -0.319 N 
HETATM    6  C   UNL     1     -42.377  60.677 -56.549  1.00  0.00     0.011 C 
HETATM    7  C   UNL     1     -42.509  58.151 -56.074  1.00  0.00     0.165 C 
HETATM    8  S   UNL     1     -44.659  61.467 -55.325  1.00  0.00    -0.086 SA
HETATM    9  C   UNL     1     -43.127  61.941 -56.188  1.00  0.00     0.135 C 
HETATM   10  C   UNL     1     -42.668  57.576 -54.673  1.00  0.00     0.062 C 
ENDROOT
BRANCH   6  11
HETATM   11  C   UNL     1     -41.253  60.677 -57.543  1.00  0.00     0.156 C 
BRANCH  11  12
HETATM   12  C   UNL     1     -41.674  60.839 -58.990  1.00  0.00     0.223 C 
HETATM   13  N   UNL     1     -42.484  59.836 -59.457  1.00  0.00    -0.359 N 
HETATM   14  H   UNL     1     -42.662  59.049 -58.835  1.00  0.00     0.162 HD
HETATM   15  O   UNL     1     -41.284  61.777 -59.677  1.00  0.00    -0.273 OA
BRANCH  13  16
HETATM   16  C   UNL     1     -42.842  59.562 -60.853  1.00  0.00     0.150 C 
BRANCH  16  17
HETATM   17  C   UNL     1     -44.204  60.055 -61.386  1.00  0.00     0.253 C 
BRANCH  17  18
HETATM   18  N   UNL     1     -44.107  61.316 -62.220  1.00  0.00    -0.077 N 
HETATM   19  H   UNL     1     -44.892  61.269 -62.900  1.00  0.00     0.279 HD
HETATM   20  C   UNL     1     -44.252  62.595 -61.441  1.00  0.00     0.269 C 
HETATM   21  C   UNL     1     -42.841  61.334 -63.039  1.00  0.00     0.269 C 
ENDBRANCH  17  18
ENDBRANCH  16  17
ENDBRANCH  13  16
ENDBRANCH  11  12
ENDBRANCH   6  11
BRANCH   7  22
HETATM   22  C   UNL     1     -43.444  57.546 -57.145  1.00  0.00    -0.030 A 
HETATM   23  C   UNL     1     -43.028  56.436 -57.906  1.00  0.00     0.010 A 
HETATM   24  C   UNL     1     -43.745  56.008 -59.030  1.00  0.00     0.008 A 
HETATM   25  C   UNL     1     -44.923  56.653 -59.416  1.00  0.00    -0.055 A 
HETATM   26  C   UNL     1     -45.406  57.681 -58.602  1.00  0.00     0.008 A 
HETATM   27  C   UNL     1     -44.684  58.117 -57.484  1.00  0.00     0.010 A 
BRANCH  25  28
HETATM   28  C   UNL     1     -45.637  56.241 -60.694  1.00  0.00     0.010 C 
HETATM   29  C   UNL     1     -45.115  54.910 -61.235  1.00  0.00     0.015 C 
HETATM   30  C   UNL     1     -47.155  56.193 -60.493  1.00  0.00     0.015 C 
ENDBRANCH  25  28
ENDBRANCH   7  22
BRANCH  10  31
HETATM   31  C   UNL     1     -41.474  56.783 -54.223  1.00  0.00     0.256 C 
HETATM   32  N   UNL     1     -41.569  55.432 -54.472  1.00  0.00    -0.323 N 
HETATM   33  H   UNL     1     -42.212  55.105 -55.177  1.00  0.00     0.169 HD
HETATM   34  O   UNL     1     -40.660  57.337 -53.496  1.00  0.00    -0.267 OA
BRANCH  32  35
HETATM   35  C   UNL     1     -40.944  54.372 -53.782  1.00  0.00     0.035 A 
HETATM   36  C   UNL     1     -40.882  54.269 -52.394  1.00  0.00     0.029 A 
HETATM   37  C   UNL     1     -40.352  53.117 -51.800  1.00  0.00     0.002 A 
HETATM   38  C   UNL     1     -39.868  52.074 -52.589  1.00  0.00     0.000 A 
HETATM   39  C   UNL     1     -39.901  52.181 -53.975  1.00  0.00     0.002 A 
HETATM   40  C   UNL     1     -40.441  53.323 -54.568  1.00  0.00     0.029 A 
ENDBRANCH  32  35
ENDBRANCH  10  31
TORSDOF 9
ENDMDL
MODEL 7
REMARK VINA RESULT:      -7.5      2.808      7.079
REMARK  9 active torsions:
REMARK  status: ('A' for Active; 'I' for Inactive)
REMARK    1  A    between atoms: C_6  and  C_7 
REMARK    2  A    between atoms: C_7  and  C_8 
REMARK       I    between atoms: C_8  and  N_9 
REMARK    3  A    between atoms: N_9  and  C_10 
REMARK    4  A    between atoms: C_10  and  C_11 
REMARK    5  A    between atoms: C_11  and  N_12 
REMARK    6  A    between atoms: C_17  and  C_18 
REMARK    7  A    between atoms: C_21  and  C_22 
REMARK    8  A    between atoms: C_29  and  C_30 
REMARK       I    between atoms: C_30  and  N_31 
REMARK    9  A    between atoms: N_31  and  C_32 
ROOT
HETATM    1  C   UNL     1     -44.364  54.336 -50.592  1.00  0.00     0.071 C 
HETATM    2  C   UNL     1     -43.966  55.694 -51.125  1.00  0.00     0.047 C 
HETATM    3  N   UNL     1     -44.878  56.687 -50.797  1.00  0.00    -0.229 NA
HETATM    4  C   UNL     1     -44.520  57.907 -50.999  1.00  0.00     0.170 C 
HETATM    5  N   UNL     1     -43.244  58.336 -51.771  1.00  0.00    -0.319 N 
HETATM    6  C   UNL     1     -42.964  59.583 -51.585  1.00  0.00     0.011 C 
HETATM    7  C   UNL     1     -42.749  57.248 -52.645  1.00  0.00     0.165 C 
HETATM    8  S   UNL     1     -45.351  59.278 -50.346  1.00  0.00    -0.086 SA
HETATM    9  C   UNL     1     -43.887  60.321 -50.640  1.00  0.00     0.135 C 
HETATM   10  C   UNL     1     -42.846  55.958 -51.842  1.00  0.00     0.062 C 
ENDROOT
BRANCH   6  11
HETATM   11  C   UNL     1     -41.835  60.274 -52.294  1.00  0.00     0.156 C 
BRANCH  11  12
HETATM   12  C   UNL     1     -42.044  60.486 -53.779  1.00  0.00     0.223 C 
HETATM   13  N   UNL     1     -43.039  61.379 -54.087  1.00  0.00    -0.359 N 
HETATM   14  H   UNL     1     -43.589  61.751 -53.316  1.00  0.00     0.162 HD
HETATM   15  O   UNL     1     -41.393  59.873 -54.620  1.00  0.00    -0.273 OA
BRANCH  13  16
HETATM   16  C   UNL     1     -43.656  61.603 -55.399  1.00  0.00     0.150 C 
BRANCH  16  17
HETATM   17  C   UNL     1     -45.188  61.758 -55.488  1.00  0.00     0.253 C 
BRANCH  17  18
HETATM   18  N   UNL     1     -45.639  63.181 -55.752  1.00  0.00    -0.077 N 
HETATM   19  H   UNL     1     -46.664  63.128 -55.917  1.00  0.00     0.279 HD
HETATM   20  C   UNL     1     -45.407  64.132 -54.609  1.00  0.00     0.269 C 
HETATM   21  C   UNL     1     -45.033  63.719 -57.023  1.00  0.00     0.269 C 
ENDBRANCH  17  18
ENDBRANCH  16  17
ENDBRANCH  13  16
ENDBRANCH  11  12
ENDBRANCH   6  11
BRANCH   7  22
HETATM   22  C   UNL     1     -43.574  57.275 -53.951  1.00  0.00    -0.030 A 
HETATM   23  C   UNL     1     -43.048  56.723 -55.136  1.00  0.00     0.010 A 
HETATM   24  C   UNL     1     -43.663  56.932 -56.377  1.00  0.00     0.008 A 
HETATM   25  C   UNL     1     -44.843  57.673 -56.475  1.00  0.00    -0.055 A 
HETATM   26  C   UNL     1     -45.435  58.127 -55.294  1.00  0.00     0.008 A 
HETATM   27  C   UNL     1     -44.816  57.928 -54.054  1.00  0.00     0.010 A 
BRANCH  25  28
HETATM   28  C   UNL     1     -45.444  57.975 -57.839  1.00  0.00     0.010 C 
HETATM   29  C   UNL     1     -46.968  58.062 -57.784  1.00  0.00     0.015 C 
HETATM   30  C   UNL     1     -44.844  59.250 -58.443  1.00  0.00     0.015 C 
ENDBRANCH  25  28
ENDBRANCH   7  22
BRANCH  10  31
HETATM   31  C   UNL     1     -41.561  55.182 -51.814  1.00  0.00     0.256 C 
HETATM   32  N   UNL     1     -41.425  54.282 -52.848  1.00  0.00    -0.323 N 
HETATM   33  H   UNL     1     -41.974  54.406 -53.685  1.00  0.00     0.169 HD
HETATM   34  O   UNL     1     -40.880  55.237 -50.799  1.00  0.00    -0.267 OA
BRANCH  32  35
HETATM   35  C   UNL     1     -40.666  53.093 -52.874  1.00  0.00     0.035 A 
HETATM   36  C   UNL     1     -40.051  52.531 -51.758  1.00  0.00     0.029 A 
HETATM   37  C   UNL     1     -39.427  51.282 -51.856  1.00  0.00     0.002 A 
HETATM   38  C   UNL     1     -39.400  50.598 -53.072  1.00  0.00     0.000 A 
HETATM   39  C   UNL     1     -39.988  51.166 -54.197  1.00  0.00     0.002 A 
HETATM   40  C   UNL     1     -40.621  52.405 -54.097  1.00  0.00     0.029 A 
ENDBRANCH  32  35
ENDBRANCH  10  31
TORSDOF 9
ENDMDL
MODEL 8
REMARK VINA RESULT:      -7.0      3.141      7.466
REMARK  9 active torsions:
REMARK  status: ('A' for Active; 'I' for Inactive)
REMARK    1  A    between atoms: C_6  and  C_7 
REMARK    2  A    between atoms: C_7  and  C_8 
REMARK       I    between atoms: C_8  and  N_9 
REMARK    3  A    between atoms: N_9  and  C_10 
REMARK    4  A    between atoms: C_10  and  C_11 
REMARK    5  A    between atoms: C_11  and  N_12 
REMARK    6  A    between atoms: C_17  and  C_18 
REMARK    7  A    between atoms: C_21  and  C_22 
REMARK    8  A    between atoms: C_29  and  C_30 
REMARK       I    between atoms: C_30  and  N_31 
REMARK    9  A    between atoms: N_31  and  C_32 
ROOT
HETATM    1  C   UNL     1     -43.381  55.344 -58.487  1.00  0.00     0.071 C 
HETATM    2  C   UNL     1     -43.683  56.791 -58.169  1.00  0.00     0.047 C 
HETATM    3  N   UNL     1     -44.786  57.273 -58.860  1.00  0.00    -0.229 NA
HETATM    4  C   UNL     1     -45.264  58.410 -58.489  1.00  0.00     0.170 C 
HETATM    5  N   UNL     1     -44.576  59.369 -57.481  1.00  0.00    -0.319 N 
HETATM    6  C   UNL     1     -45.382  60.288 -57.063  1.00  0.00     0.011 C 
HETATM    7  C   UNL     1     -43.129  59.081 -57.361  1.00  0.00     0.165 C 
HETATM    8  S   UNL     1     -46.813  59.010 -58.973  1.00  0.00    -0.086 SA
HETATM    9  C   UNL     1     -46.796  60.201 -57.595  1.00  0.00     0.135 C 
HETATM   10  C   UNL     1     -42.983  57.567 -57.306  1.00  0.00     0.062 C 
ENDROOT
BRANCH   6  11
HETATM   11  C   UNL     1     -44.941  61.400 -56.157  1.00  0.00     0.156 C 
BRANCH  11  12
HETATM   12  C   UNL     1     -44.985  61.078 -54.677  1.00  0.00     0.223 C 
HETATM   13  N   UNL     1     -43.822  60.547 -54.181  1.00  0.00    -0.359 N 
HETATM   14  H   UNL     1     -43.077  60.346 -54.846  1.00  0.00     0.162 HD
HETATM   15  O   UNL     1     -45.997  61.252 -54.005  1.00  0.00    -0.273 OA
BRANCH  13  16
HETATM   16  C   UNL     1     -43.626  59.896 -52.881  1.00  0.00     0.150 C 
BRANCH  16  17
HETATM   17  C   UNL     1     -42.274  60.063 -52.156  1.00  0.00     0.253 C 
BRANCH  17  18
HETATM   18  N   UNL     1     -41.411  58.819 -52.189  1.00  0.00    -0.077 N 
HETATM   19  H   UNL     1     -41.256  58.607 -53.195  1.00  0.00     0.279 HD
HETATM   20  C   UNL     1     -40.063  58.975 -51.541  1.00  0.00     0.269 C 
HETATM   21  C   UNL     1     -42.142  57.631 -51.616  1.00  0.00     0.269 C 
ENDBRANCH  17  18
ENDBRANCH  16  17
ENDBRANCH  13  16
ENDBRANCH  11  12
ENDBRANCH   6  11
BRANCH   7  22
HETATM   22  C   UNL     1     -42.408  59.770 -58.542  1.00  0.00    -0.030 A 
HETATM   23  C   UNL     1     -41.868  61.062 -58.389  1.00  0.00     0.010 A 
HETATM   24  C   UNL     1     -41.417  61.803 -59.489  1.00  0.00     0.008 A 
HETATM   25  C   UNL     1     -41.459  61.267 -60.778  1.00  0.00    -0.055 A 
HETATM   26  C   UNL     1     -41.886  59.944 -60.927  1.00  0.00     0.008 A 
HETATM   27  C   UNL     1     -42.347  59.207 -59.830  1.00  0.00     0.010 A 
BRANCH  25  28
HETATM   28  C   UNL     1     -41.059  62.119 -61.973  1.00  0.00     0.010 C 
HETATM   29  C   UNL     1     -42.188  62.232 -62.996  1.00  0.00     0.015 C 
HETATM   30  C   UNL     1     -40.578  63.506 -61.533  1.00  0.00     0.015 C 
ENDBRANCH  25  28
ENDBRANCH   7  22
BRANCH  10  31
HETATM   31  C   UNL     1     -42.167  57.095 -56.137  1.00  0.00     0.256 C 
HETATM   32  N   UNL     1     -41.822  55.763 -56.192  1.00  0.00    -0.323 N 
HETATM   33  H   UNL     1     -41.835  55.287 -57.081  1.00  0.00     0.169 HD
HETATM   34  O   UNL     1     -42.080  57.833 -55.164  1.00  0.00    -0.267 OA
BRANCH  32  35
HETATM   35  C   UNL     1     -41.537  54.891 -55.120  1.00  0.00     0.035 A 
HETATM   36  C   UNL     1     -42.355  54.728 -54.003  1.00  0.00     0.029 A 
HETATM   37  C   UNL     1     -42.054  53.747 -53.052  1.00  0.00     0.002 A 
HETATM   38  C   UNL     1     -40.928  52.937 -53.204  1.00  0.00     0.000 A 
HETATM   39  C   UNL     1     -40.093  53.112 -54.301  1.00  0.00     0.002 A 
HETATM   40  C   UNL     1     -40.399  54.081 -55.257  1.00  0.00     0.029 A 
ENDBRANCH  32  35
ENDBRANCH  10  31
TORSDOF 9
ENDMDL
MODEL 9
REMARK VINA RESULT:      -7.0      2.674      7.359
REMARK  9 active torsions:
REMARK  status: ('A' for Active; 'I' for Inactive)
REMARK    1  A    between atoms: C_6  and  C_7 
REMARK    2  A    between atoms: C_7  and  C_8 
REMARK       I    between atoms: C_8  and  N_9 
REMARK    3  A    between atoms: N_9  and  C_10 
REMARK    4  A    between atoms: C_10  and  C_11 
REMARK    5  A    between atoms: C_11  and  N_12 
REMARK    6  A    between atoms: C_17  and  C_18 
REMARK    7  A    between atoms: C_21  and  C_22 
REMARK    8  A    between atoms: C_29  and  C_30 
REMARK       I    between atoms: C_30  and  N_31 
REMARK    9  A    between atoms: N_31  and  C_32 
ROOT
HETATM    1  C   UNL     1     -43.626  62.403 -52.015  1.00  0.00     0.071 C 
HETATM    2  C   UNL     1     -43.473  60.899 -52.023  1.00  0.00     0.047 C 
HETATM    3  N   UNL     1     -42.160  60.492 -51.831  1.00  0.00    -0.229 NA
HETATM    4  C   UNL     1     -41.958  59.243 -51.589  1.00  0.00     0.170 C 
HETATM    5  N   UNL     1     -43.040  58.136 -51.708  1.00  0.00    -0.319 N 
HETATM    6  C   UNL     1     -42.668  57.037 -51.140  1.00  0.00     0.011 C 
HETATM    7  C   UNL     1     -44.165  58.568 -52.567  1.00  0.00     0.165 C 
HETATM    8  S   UNL     1     -40.467  58.605 -50.985  1.00  0.00    -0.086 SA
HETATM    9  C   UNL     1     -41.317  57.083 -50.459  1.00  0.00     0.135 C 
HETATM   10  C   UNL     1     -44.481  60.008 -52.189  1.00  0.00     0.062 C 
ENDROOT
BRANCH   6  11
HETATM   11  C   UNL     1     -43.488  55.780 -51.195  1.00  0.00     0.156 C 
BRANCH  11  12
HETATM   12  C   UNL     1     -42.917  54.678 -52.064  1.00  0.00     0.223 C 
HETATM   13  N   UNL     1     -41.835  54.035 -51.519  1.00  0.00    -0.359 N 
HETATM   14  H   UNL     1     -41.469  54.394 -50.640  1.00  0.00     0.162 HD
HETATM   15  O   UNL     1     -43.376  54.424 -53.173  1.00  0.00    -0.273 OA
BRANCH  13  16
HETATM   16  C   UNL     1     -40.910  53.122 -52.201  1.00  0.00     0.150 C 
BRANCH  16  17
HETATM   17  C   UNL     1     -39.828  52.397 -51.373  1.00  0.00     0.253 C 
BRANCH  17  18
HETATM   18  N   UNL     1     -39.271  51.163 -52.052  1.00  0.00    -0.077 N 
HETATM   19  H   UNL     1     -38.242  51.305 -52.100  1.00  0.00     0.279 HD
HETATM   20  C   UNL     1     -39.522  49.876 -51.315  1.00  0.00     0.269 C 
HETATM   21  C   UNL     1     -39.749  51.061 -53.478  1.00  0.00     0.269 C 
ENDBRANCH  17  18
ENDBRANCH  16  17
ENDBRANCH  13  16
ENDBRANCH  11  12
ENDBRANCH   6  11
BRANCH   7  22
HETATM   22  C   UNL     1     -43.749  58.350 -54.039  1.00  0.00    -0.030 A 
HETATM   23  C   UNL     1     -44.575  58.804 -55.087  1.00  0.00     0.010 A 
HETATM   24  C   UNL     1     -44.348  58.426 -56.416  1.00  0.00     0.008 A 
HETATM   25  C   UNL     1     -43.268  57.606 -56.752  1.00  0.00    -0.055 A 
HETATM   26  C   UNL     1     -42.377  57.243 -55.738  1.00  0.00     0.008 A 
HETATM   27  C   UNL     1     -42.609  57.612 -54.408  1.00  0.00     0.010 A 
BRANCH  25  28
HETATM   28  C   UNL     1     -43.092  57.122 -58.183  1.00  0.00     0.010 C 
HETATM   29  C   UNL     1     -43.314  55.615 -58.308  1.00  0.00     0.015 C 
HETATM   30  C   UNL     1     -44.003  57.891 -59.147  1.00  0.00     0.015 C 
ENDBRANCH  25  28
ENDBRANCH   7  22
BRANCH  10  31
HETATM   31  C   UNL     1     -45.933  60.230 -51.873  1.00  0.00     0.256 C 
HETATM   32  N   UNL     1     -46.517  61.247 -52.593  1.00  0.00    -0.323 N 
HETATM   33  H   UNL     1     -46.091  61.548 -53.457  1.00  0.00     0.169 HD
HETATM   34  O   UNL     1     -46.393  59.676 -50.883  1.00  0.00    -0.267 OA
BRANCH  32  35
HETATM   35  C   UNL     1     -47.625  62.044 -52.235  1.00  0.00     0.035 A 
HETATM   36  C   UNL     1     -47.602  63.014 -51.235  1.00  0.00     0.029 A 
HETATM   37  C   UNL     1     -48.713  63.843 -51.038  1.00  0.00     0.002 A 
HETATM   38  C   UNL     1     -49.854  63.695 -51.826  1.00  0.00     0.000 A 
HETATM   39  C   UNL     1     -49.894  62.712 -52.808  1.00  0.00     0.002 A 
HETATM   40  C   UNL     1     -48.783  61.894 -53.014  1.00  0.00     0.029 A 
ENDBRANCH  32  35
ENDBRANCH  10  31
TORSDOF 9
ENDMDL
MODEL 10
REMARK VINA RESULT:      -7.0      2.585      8.508
REMARK  9 active torsions:
REMARK  status: ('A' for Active; 'I' for Inactive)
REMARK    1  A    between atoms: C_6  and  C_7 
REMARK    2  A    between atoms: C_7  and  C_8 
REMARK       I    between atoms: C_8  and  N_9 
REMARK    3  A    between atoms: N_9  and  C_10 
REMARK    4  A    between atoms: C_10  and  C_11 
REMARK    5  A    between atoms: C_11  and  N_12 
REMARK    6  A    between atoms: C_17  and  C_18 
REMARK    7  A    between atoms: C_21  and  C_22 
REMARK    8  A    between atoms: C_29  and  C_30 
REMARK       I    between atoms: C_30  and  N_31 
REMARK    9  A    between atoms: N_31  and  C_32 
ROOT
HETATM    1  C   UNL     1     -43.462  62.248 -51.471  1.00  0.00     0.071 C 
HETATM    2  C   UNL     1     -43.347  60.741 -51.512  1.00  0.00     0.047 C 
HETATM    3  N   UNL     1     -42.090  60.309 -51.910  1.00  0.00    -0.229 NA
HETATM    4  C   UNL     1     -41.818  59.060 -51.754  1.00  0.00     0.170 C 
HETATM    5  N   UNL     1     -42.855  57.974 -51.360  1.00  0.00    -0.319 N 
HETATM    6  C   UNL     1     -42.285  56.875 -50.990  1.00  0.00     0.011 C 
HETATM    7  C   UNL     1     -44.238  58.418 -51.645  1.00  0.00     0.165 C 
HETATM    8  S   UNL     1     -40.222  58.399 -51.855  1.00  0.00    -0.086 SA
HETATM    9  C   UNL     1     -40.772  56.903 -50.975  1.00  0.00     0.135 C 
HETATM   10  C   UNL     1     -44.337  59.870 -51.198  1.00  0.00     0.062 C 
ENDROOT
BRANCH   6  11
HETATM   11  C   UNL     1     -43.061  55.636 -50.651  1.00  0.00     0.156 C 
BRANCH  11  12
HETATM   12  C   UNL     1     -42.438  54.339 -51.124  1.00  0.00     0.223 C 
HETATM   13  N   UNL     1     -41.630  53.730 -50.198  1.00  0.00    -0.359 N 
HETATM   14  H   UNL     1     -41.459  54.227 -49.327  1.00  0.00     0.162 HD
HETATM   15  O   UNL     1     -42.625  53.905 -52.257  1.00  0.00    -0.273 OA
BRANCH  13  16
HETATM   16  C   UNL     1     -40.691  52.626 -50.428  1.00  0.00     0.150 C 
BRANCH  16  17
HETATM   17  C   UNL     1     -39.530  52.827 -51.425  1.00  0.00     0.253 C 
BRANCH  17  18
HETATM   18  N   UNL     1     -39.295  51.635 -52.329  1.00  0.00    -0.077 N 
HETATM   19  H   UNL     1     -38.291  51.675 -52.598  1.00  0.00     0.279 HD
HETATM   20  C   UNL     1     -39.542  50.300 -51.681  1.00  0.00     0.269 C 
HETATM   21  C   UNL     1     -40.080  51.757 -53.610  1.00  0.00     0.269 C 
ENDBRANCH  17  18
ENDBRANCH  16  17
ENDBRANCH  13  16
ENDBRANCH  11  12
ENDBRANCH   6  11
BRANCH   7  22
HETATM   22  C   UNL     1     -44.517  58.170 -53.145  1.00  0.00    -0.030 A 
HETATM   23  C   UNL     1     -44.089  56.977 -53.760  1.00  0.00     0.010 A 
HETATM   24  C   UNL     1     -44.119  56.818 -55.151  1.00  0.00     0.008 A 
HETATM   25  C   UNL     1     -44.607  57.833 -55.977  1.00  0.00    -0.055 A 
HETATM   26  C   UNL     1     -45.140  58.975 -55.371  1.00  0.00     0.008 A 
HETATM   27  C   UNL     1     -45.101  59.139 -53.982  1.00  0.00     0.010 A 
BRANCH  25  28
HETATM   28  C   UNL     1     -44.540  57.686 -57.489  1.00  0.00     0.010 C 
HETATM   29  C   UNL     1     -44.599  59.040 -58.197  1.00  0.00     0.015 C 
HETATM   30  C   UNL     1     -43.298  56.898 -57.919  1.00  0.00     0.015 C 
ENDBRANCH  25  28
ENDBRANCH   7  22
BRANCH  10  31
HETATM   31  C   UNL     1     -45.498  60.126 -50.279  1.00  0.00     0.256 C 
HETATM   32  N   UNL     1     -45.468  61.359 -49.666  1.00  0.00    -0.323 N 
HETATM   33  H   UNL     1     -44.914  62.098 -50.071  1.00  0.00     0.169 HD
HETATM   34  O   UNL     1     -46.212  59.178 -49.982  1.00  0.00    -0.267 OA
BRANCH  32  35
HETATM   35  C   UNL     1     -46.045  61.734 -48.434  1.00  0.00     0.035 A 
HETATM   36  C   UNL     1     -45.741  61.137 -47.212  1.00  0.00     0.029 A 
HETATM   37  C   UNL     1     -46.269  61.662 -46.026  1.00  0.00     0.002 A 
HETATM   38  C   UNL     1     -47.114  62.771 -46.058  1.00  0.00     0.000 A 
HETATM   39  C   UNL     1     -47.444  63.354 -47.277  1.00  0.00     0.002 A 
HETATM   40  C   UNL     1     -46.908  62.841 -48.458  1.00  0.00     0.029 A 
ENDBRANCH  32  35
ENDBRANCH  10  31
TORSDOF 9
ENDMDL
