MODEL 1
REMARK VINA RESULT:      -9.1      0.000      0.000
REMARK  4 active torsions:
REMARK  status: ('A' for Active; 'I' for Inactive)
REMARK    1  A    between atoms: N_8  and  C_9 
REMARK    2  A    between atoms: C_19  and  C_20 
REMARK    3  A    between atoms: C_20  and  C_21 
REMARK    4  A    between atoms: C_24  and  C_25 
ROOT
HETATM    1  C   UNL     1     -43.959  54.800 -54.328  1.00  0.00     0.069 C 
HETATM    2  C   UNL     1     -43.456  55.959 -53.504  1.00  0.00     0.017 C 
HETATM    3  N   UNL     1     -44.446  56.669 -52.837  1.00  0.00    -0.348 N 
HETATM    4  C   UNL     1     -44.185  57.836 -52.175  1.00  0.00     0.119 A 
HETATM    5  C   UNL     1     -42.927  58.266 -52.005  1.00  0.00     0.124 A 
HETATM    6  C   UNL     1     -42.997  59.492 -51.198  1.00  0.00     0.280 A 
HETATM    7  O   UNL     1     -42.038  60.154 -50.838  1.00  0.00    -0.265 OA
HETATM    8  N   UNL     1     -44.366  59.703 -50.965  1.00  0.00    -0.236 N 
HETATM    9  N   UNL     1     -45.111  58.685 -51.598  1.00  0.00    -0.179 NA
HETATM   10  C   UNL     1     -41.801  57.503 -52.542  1.00  0.00     0.199 C 
HETATM   11  O   UNL     1     -40.637  57.794 -52.294  1.00  0.00    -0.287 OA
HETATM   12  C   UNL     1     -42.150  56.320 -53.421  1.00  0.00     0.020 C 
HETATM   13  H   UNL     1     -45.410  56.508 -53.111  1.00  0.00     0.167 HD
HETATM   14  H   UNL     1     -45.698  58.171 -50.940  1.00  0.00     0.155 HD
ENDROOT
BRANCH  12  15
HETATM   15  C   UNL     1     -40.981  55.675 -54.125  1.00  0.00     0.083 C 
BRANCH  15  16
HETATM   16  C   UNL     1     -40.638  54.322 -53.537  1.00  0.00    -0.054 A 
HETATM   17  C   UNL     1     -40.586  54.147 -52.148  1.00  0.00     0.008 A 
HETATM   18  C   UNL     1     -40.196  52.924 -51.597  1.00  0.00     0.008 A 
HETATM   19  C   UNL     1     -39.849  51.844 -52.422  1.00  0.00    -0.055 A 
HETATM   20  C   UNL     1     -39.920  52.016 -53.811  1.00  0.00     0.008 A 
HETATM   21  C   UNL     1     -40.309  53.241 -54.362  1.00  0.00     0.008 A 
BRANCH  19  22
HETATM   22  C   UNL     1     -39.393  50.537 -51.799  1.00  0.00     0.010 C 
HETATM   23  C   UNL     1     -40.071  50.283 -50.451  1.00  0.00     0.015 C 
HETATM   24  C   UNL     1     -39.616  49.361 -52.754  1.00  0.00     0.015 C 
ENDBRANCH  19  22
ENDBRANCH  15  16
ENDBRANCH  12  15
BRANCH   8  25
HETATM   25  C   UNL     1     -45.016  60.773 -50.314  1.00  0.00     0.055 A 
HETATM   26  C   UNL     1     -46.021  61.513 -50.956  1.00  0.00     0.034 A 
HETATM   27  C   UNL     1     -46.659  62.574 -50.305  1.00  0.00     0.044 A 
HETATM   28  C   UNL     1     -46.298  62.899 -49.005  1.00  0.00     0.116 A 
HETATM   29  F   UNL     1     -46.909  63.913 -48.380  1.00  0.00    -0.206 F 
HETATM   30  C   UNL     1     -45.311  62.182 -48.344  1.00  0.00     0.044 A 
HETATM   31  C   UNL     1     -44.672  61.122 -48.996  1.00  0.00     0.034 A 
ENDBRANCH   8  25
TORSDOF 4
ENDMDL
MODEL 2
REMARK VINA RESULT:      -8.9      4.252      5.683
REMARK  4 active torsions:
REMARK  status: ('A' for Active; 'I' for Inactive)
REMARK    1  A    between atoms: N_8  and  C_9 
REMARK    2  A    between atoms: C_19  and  C_20 
REMARK    3  A    between atoms: C_20  and  C_21 
REMARK    4  A    between atoms: C_24  and  C_25 
ROOT
HETATM    1  C   UNL     1     -43.998  55.638 -50.947  1.00  0.00     0.069 C 
HETATM    2  C   UNL     1     -43.625  56.250 -52.273  1.00  0.00     0.017 C 
HETATM    3  N   UNL     1     -44.703  56.658 -53.049  1.00  0.00    -0.348 N 
HETATM    4  C   UNL     1     -44.551  57.087 -54.337  1.00  0.00     0.119 A 
HETATM    5  C   UNL     1     -43.334  57.285 -54.861  1.00  0.00     0.124 A 
HETATM    6  C   UNL     1     -43.530  57.811 -56.219  1.00  0.00     0.280 A 
HETATM    7  O   UNL     1     -42.637  58.117 -56.991  1.00  0.00    -0.265 OA
HETATM    8  N   UNL     1     -44.922  57.863 -56.397  1.00  0.00    -0.236 N 
HETATM    9  N   UNL     1     -45.561  57.385 -55.233  1.00  0.00    -0.179 NA
HETATM   10  C   UNL     1     -42.132  57.027 -54.067  1.00  0.00     0.199 C 
HETATM   11  O   UNL     1     -41.011  57.320 -54.466  1.00  0.00    -0.287 OA
HETATM   12  C   UNL     1     -42.347  56.381 -52.714  1.00  0.00     0.020 C 
HETATM   13  H   UNL     1     -45.626  56.332 -52.783  1.00  0.00     0.167 HD
HETATM   14  H   UNL     1     -46.196  58.076 -54.831  1.00  0.00     0.155 HD
ENDROOT
BRANCH  12  15
HETATM   15  C   UNL     1     -41.089  55.941 -52.005  1.00  0.00     0.083 C 
BRANCH  15  16
HETATM   16  C   UNL     1     -40.730  54.505 -52.325  1.00  0.00    -0.054 A 
HETATM   17  C   UNL     1     -40.228  53.661 -51.326  1.00  0.00     0.008 A 
HETATM   18  C   UNL     1     -39.822  52.359 -51.628  1.00  0.00     0.008 A 
HETATM   19  C   UNL     1     -39.908  51.867 -52.938  1.00  0.00    -0.055 A 
HETATM   20  C   UNL     1     -40.429  52.707 -53.933  1.00  0.00     0.008 A 
HETATM   21  C   UNL     1     -40.834  54.010 -53.630  1.00  0.00     0.008 A 
BRANCH  19  22
HETATM   22  C   UNL     1     -39.426  50.462 -53.248  1.00  0.00     0.010 C 
HETATM   23  C   UNL     1     -39.717  49.495 -52.099  1.00  0.00     0.015 C 
HETATM   24  C   UNL     1     -40.025  49.947 -54.560  1.00  0.00     0.015 C 
ENDBRANCH  19  22
ENDBRANCH  15  16
ENDBRANCH  12  15
BRANCH   8  25
HETATM   25  C   UNL     1     -45.673  58.213 -57.540  1.00  0.00     0.055 A 
HETATM   26  C   UNL     1     -46.607  59.259 -57.504  1.00  0.00     0.034 A 
HETATM   27  C   UNL     1     -47.349  59.599 -58.640  1.00  0.00     0.044 A 
HETATM   28  C   UNL     1     -47.157  58.896 -59.821  1.00  0.00     0.116 A 
HETATM   29  F   UNL     1     -47.865  59.222 -60.910  1.00  0.00    -0.206 F 
HETATM   30  C   UNL     1     -46.236  57.861 -59.888  1.00  0.00     0.044 A 
HETATM   31  C   UNL     1     -45.496  57.520 -58.751  1.00  0.00     0.034 A 
ENDBRANCH   8  25
TORSDOF 4
ENDMDL
MODEL 3
REMARK VINA RESULT:      -8.8      5.462      7.216
REMARK  4 active torsions:
REMARK  status: ('A' for Active; 'I' for Inactive)
REMARK    1  A    between atoms: N_8  and  C_9 
REMARK    2  A    between atoms: C_19  and  C_20 
REMARK    3  A    between atoms: C_20  and  C_21 
REMARK    4  A    between atoms: C_24  and  C_25 
ROOT
HETATM    1  C   UNL     1     -44.394  57.206 -52.713  1.00  0.00     0.069 C 
HETATM    2  C   UNL     1     -44.138  57.430 -54.182  1.00  0.00     0.017 C 
HETATM    3  N   UNL     1     -45.283  57.567 -54.957  1.00  0.00    -0.348 N 
HETATM    4  C   UNL     1     -45.237  57.619 -56.321  1.00  0.00     0.119 A 
HETATM    5  C   UNL     1     -44.067  57.700 -56.970  1.00  0.00     0.124 A 
HETATM    6  C   UNL     1     -44.376  57.815 -58.403  1.00  0.00     0.280 A 
HETATM    7  O   UNL     1     -43.552  57.918 -59.294  1.00  0.00    -0.265 OA
HETATM    8  N   UNL     1     -45.778  57.768 -58.482  1.00  0.00    -0.236 N 
HETATM    9  N   UNL     1     -46.316  57.618 -57.186  1.00  0.00    -0.179 NA
HETATM   10  C   UNL     1     -42.806  57.717 -56.230  1.00  0.00     0.199 C 
HETATM   11  O   UNL     1     -41.729  57.922 -56.778  1.00  0.00    -0.287 OA
HETATM   12  C   UNL     1     -42.900  57.473 -54.738  1.00  0.00     0.020 C 
HETATM   13  H   UNL     1     -46.170  57.300 -54.541  1.00  0.00     0.167 HD
HETATM   14  H   UNL     1     -46.960  58.374 -56.946  1.00  0.00     0.155 HD
ENDROOT
BRANCH  12  15
HETATM   15  C   UNL     1     -41.578  57.292 -54.031  1.00  0.00     0.083 C 
BRANCH  15  16
HETATM   16  C   UNL     1     -41.164  55.837 -53.963  1.00  0.00    -0.054 A 
HETATM   17  C   UNL     1     -41.259  55.129 -52.758  1.00  0.00     0.008 A 
HETATM   18  C   UNL     1     -40.808  53.810 -52.668  1.00  0.00     0.008 A 
HETATM   19  C   UNL     1     -40.251  53.165 -53.781  1.00  0.00    -0.055 A 
HETATM   20  C   UNL     1     -40.175  53.869 -54.990  1.00  0.00     0.008 A 
HETATM   21  C   UNL     1     -40.625  55.189 -55.081  1.00  0.00     0.008 A 
BRANCH  19  22
HETATM   22  C   UNL     1     -39.735  51.744 -53.647  1.00  0.00     0.010 C 
HETATM   23  C   UNL     1     -39.492  51.363 -52.186  1.00  0.00     0.015 C 
HETATM   24  C   UNL     1     -40.679  50.745 -54.323  1.00  0.00     0.015 C 
ENDBRANCH  19  22
ENDBRANCH  15  16
ENDBRANCH  12  15
BRANCH   8  25
HETATM   25  C   UNL     1     -46.617  57.757 -59.617  1.00  0.00     0.055 A 
HETATM   26  C   UNL     1     -47.183  58.939 -60.115  1.00  0.00     0.034 A 
HETATM   27  C   UNL     1     -48.016  58.920 -61.239  1.00  0.00     0.044 A 
HETATM   28  C   UNL     1     -48.284  57.715 -61.874  1.00  0.00     0.116 A 
HETATM   29  F   UNL     1     -49.079  57.695 -62.951  1.00  0.00    -0.206 F 
HETATM   30  C   UNL     1     -47.734  56.531 -61.407  1.00  0.00     0.044 A 
HETATM   31  C   UNL     1     -46.903  56.551 -60.282  1.00  0.00     0.034 A 
ENDBRANCH   8  25
TORSDOF 4
ENDMDL
MODEL 4
REMARK VINA RESULT:      -8.8      5.288      6.318
REMARK  4 active torsions:
REMARK  status: ('A' for Active; 'I' for Inactive)
REMARK    1  A    between atoms: N_8  and  C_9 
REMARK    2  A    between atoms: C_19  and  C_20 
REMARK    3  A    between atoms: C_20  and  C_21 
REMARK    4  A    between atoms: C_24  and  C_25 
ROOT
HETATM    1  C   UNL     1     -42.133  57.670 -51.849  1.00  0.00     0.069 C 
HETATM    2  C   UNL     1     -42.245  57.752 -53.351  1.00  0.00     0.017 C 
HETATM    3  N   UNL     1     -41.795  58.945 -53.903  1.00  0.00    -0.348 N 
HETATM    4  C   UNL     1     -41.968  59.246 -55.224  1.00  0.00     0.119 A 
HETATM    5  C   UNL     1     -42.441  58.334 -56.085  1.00  0.00     0.124 A 
HETATM    6  C   UNL     1     -42.430  58.954 -57.418  1.00  0.00     0.280 A 
HETATM    7  O   UNL     1     -42.785  58.410 -58.449  1.00  0.00    -0.265 OA
HETATM    8  N   UNL     1     -41.945  60.256 -57.214  1.00  0.00    -0.236 N 
HETATM    9  N   UNL     1     -41.682  60.450 -55.842  1.00  0.00    -0.179 NA
HETATM   10  C   UNL     1     -42.801  56.994 -55.624  1.00  0.00     0.199 C 
HETATM   11  O   UNL     1     -43.110  56.098 -56.400  1.00  0.00    -0.287 OA
HETATM   12  C   UNL     1     -42.765  56.767 -54.127  1.00  0.00     0.020 C 
HETATM   13  H   UNL     1     -41.636  59.726 -53.275  1.00  0.00     0.167 HD
HETATM   14  H   UNL     1     -40.710  60.712 -55.669  1.00  0.00     0.155 HD
ENDROOT
BRANCH  12  15
HETATM   15  C   UNL     1     -43.334  55.447 -53.663  1.00  0.00     0.083 C 
BRANCH  15  16
HETATM   16  C   UNL     1     -42.263  54.387 -53.514  1.00  0.00    -0.054 A 
HETATM   17  C   UNL     1     -41.947  53.542 -54.585  1.00  0.00     0.008 A 
HETATM   18  C   UNL     1     -41.016  52.513 -54.433  1.00  0.00     0.008 A 
HETATM   19  C   UNL     1     -40.375  52.303 -53.204  1.00  0.00    -0.055 A 
HETATM   20  C   UNL     1     -40.677  53.161 -52.138  1.00  0.00     0.008 A 
HETATM   21  C   UNL     1     -41.611  54.191 -52.291  1.00  0.00     0.008 A 
BRANCH  19  22
HETATM   22  C   UNL     1     -39.393  51.154 -53.053  1.00  0.00     0.010 C 
HETATM   23  C   UNL     1     -39.463  50.528 -51.659  1.00  0.00     0.015 C 
HETATM   24  C   UNL     1     -39.606  50.097 -54.140  1.00  0.00     0.015 C 
ENDBRANCH  19  22
ENDBRANCH  15  16
ENDBRANCH  12  15
BRANCH   8  25
HETATM   25  C   UNL     1     -41.801  61.318 -58.133  1.00  0.00     0.055 A 
HETATM   26  C   UNL     1     -42.916  61.905 -58.748  1.00  0.00     0.034 A 
HETATM   27  C   UNL     1     -42.765  62.956 -59.659  1.00  0.00     0.044 A 
HETATM   28  C   UNL     1     -41.495  63.428 -59.958  1.00  0.00     0.116 A 
HETATM   29  F   UNL     1     -41.349  64.436 -60.828  1.00  0.00    -0.206 F 
HETATM   30  C   UNL     1     -40.374  62.871 -59.361  1.00  0.00     0.044 A 
HETATM   31  C   UNL     1     -40.525  61.820 -58.452  1.00  0.00     0.034 A 
ENDBRANCH   8  25
TORSDOF 4
ENDMDL
MODEL 5
REMARK VINA RESULT:      -8.7      2.086      3.040
REMARK  4 active torsions:
REMARK  status: ('A' for Active; 'I' for Inactive)
REMARK    1  A    between atoms: N_8  and  C_9 
REMARK    2  A    between atoms: C_19  and  C_20 
REMARK    3  A    between atoms: C_20  and  C_21 
REMARK    4  A    between atoms: C_24  and  C_25 
ROOT
HETATM    1  C   UNL     1     -40.230  58.493 -53.220  1.00  0.00     0.069 C 
HETATM    2  C   UNL     1     -41.627  58.764 -52.722  1.00  0.00     0.017 C 
HETATM    3  N   UNL     1     -41.702  59.655 -51.658  1.00  0.00    -0.348 N 
HETATM    4  C   UNL     1     -42.868  59.891 -50.987  1.00  0.00     0.119 A 
HETATM    5  C   UNL     1     -44.032  59.391 -51.427  1.00  0.00     0.124 A 
HETATM    6  C   UNL     1     -45.082  59.892 -50.529  1.00  0.00     0.280 A 
HETATM    7  O   UNL     1     -46.272  59.647 -50.632  1.00  0.00    -0.265 OA
HETATM    8  N   UNL     1     -44.409  60.670 -49.573  1.00  0.00    -0.236 N 
HETATM    9  N   UNL     1     -43.024  60.649 -49.841  1.00  0.00    -0.179 NA
HETATM   10  C   UNL     1     -44.077  58.562 -52.631  1.00  0.00     0.199 C 
HETATM   11  O   UNL     1     -45.133  58.199 -53.134  1.00  0.00    -0.287 OA
HETATM   12  C   UNL     1     -42.741  58.179 -53.232  1.00  0.00     0.020 C 
HETATM   13  H   UNL     1     -40.842  59.881 -51.169  1.00  0.00     0.167 HD
HETATM   14  H   UNL     1     -42.645  61.585 -49.984  1.00  0.00     0.155 HD
ENDROOT
BRANCH  12  15
HETATM   15  C   UNL     1     -42.805  57.162 -54.347  1.00  0.00     0.083 C 
BRANCH  15  16
HETATM   16  C   UNL     1     -41.984  55.928 -54.038  1.00  0.00    -0.054 A 
HETATM   17  C   UNL     1     -41.034  55.461 -54.955  1.00  0.00     0.008 A 
HETATM   18  C   UNL     1     -40.327  54.281 -54.714  1.00  0.00     0.008 A 
HETATM   19  C   UNL     1     -40.552  53.537 -53.547  1.00  0.00    -0.055 A 
HETATM   20  C   UNL     1     -41.489  54.016 -52.621  1.00  0.00     0.008 A 
HETATM   21  C   UNL     1     -42.197  55.196 -52.864  1.00  0.00     0.008 A 
BRANCH  19  22
HETATM   22  C   UNL     1     -39.797  52.239 -53.324  1.00  0.00     0.010 C 
HETATM   23  C   UNL     1     -39.841  51.801 -51.860  1.00  0.00     0.015 C 
HETATM   24  C   UNL     1     -40.319  51.130 -54.243  1.00  0.00     0.015 C 
ENDBRANCH  19  22
ENDBRANCH  15  16
ENDBRANCH  12  15
BRANCH   8  25
HETATM   25  C   UNL     1     -44.912  61.325 -48.428  1.00  0.00     0.055 A 
HETATM   26  C   UNL     1     -45.582  60.617 -47.420  1.00  0.00     0.034 A 
HETATM   27  C   UNL     1     -46.080  61.274 -46.289  1.00  0.00     0.044 A 
HETATM   28  C   UNL     1     -45.905  62.644 -46.159  1.00  0.00     0.116 A 
HETATM   29  F   UNL     1     -46.379  63.274 -45.076  1.00  0.00    -0.206 F 
HETATM   30  C   UNL     1     -45.241  63.370 -47.137  1.00  0.00     0.044 A 
HETATM   31  C   UNL     1     -44.746  62.713 -48.268  1.00  0.00     0.034 A 
ENDBRANCH   8  25
TORSDOF 4
ENDMDL
MODEL 6
REMARK VINA RESULT:      -8.4      5.790      7.157
REMARK  4 active torsions:
REMARK  status: ('A' for Active; 'I' for Inactive)
REMARK    1  A    between atoms: N_8  and  C_9 
REMARK    2  A    between atoms: C_19  and  C_20 
REMARK    3  A    between atoms: C_20  and  C_21 
REMARK    4  A    between atoms: C_24  and  C_25 
ROOT
HETATM    1  C   UNL     1     -43.247  58.469 -52.589  1.00  0.00     0.069 C 
HETATM    2  C   UNL     1     -42.929  58.347 -54.059  1.00  0.00     0.017 C 
HETATM    3  N   UNL     1     -42.319  59.465 -54.615  1.00  0.00    -0.348 N 
HETATM    4  C   UNL     1     -42.106  59.585 -55.959  1.00  0.00     0.119 A 
HETATM    5  C   UNL     1     -42.332  58.556 -56.788  1.00  0.00     0.124 A 
HETATM    6  C   UNL     1     -41.934  58.993 -58.134  1.00  0.00     0.280 A 
HETATM    7  O   UNL     1     -41.992  58.310 -59.141  1.00  0.00    -0.265 OA
HETATM    8  N   UNL     1     -41.502  60.320 -57.978  1.00  0.00    -0.236 N 
HETATM    9  N   UNL     1     -41.635  60.701 -56.626  1.00  0.00    -0.179 NA
HETATM   10  C   UNL     1     -42.832  57.282 -56.273  1.00  0.00     0.199 C 
HETATM   11  O   UNL     1     -42.925  56.284 -56.978  1.00  0.00    -0.287 OA
HETATM   12  C   UNL     1     -43.225  57.257 -54.811  1.00  0.00     0.020 C 
HETATM   13  H   UNL     1     -42.331  60.326 -54.077  1.00  0.00     0.167 HD
HETATM   14  H   UNL     1     -40.748  61.004 -56.221  1.00  0.00     0.155 HD
ENDROOT
BRANCH  12  15
HETATM   15  C   UNL     1     -43.926  55.999 -54.355  1.00  0.00     0.083 C 
BRANCH  15  16
HETATM   16  C   UNL     1     -43.029  55.126 -53.503  1.00  0.00    -0.054 A 
HETATM   17  C   UNL     1     -43.452  54.694 -52.240  1.00  0.00     0.008 A 
HETATM   18  C   UNL     1     -42.602  53.953 -51.416  1.00  0.00     0.008 A 
HETATM   19  C   UNL     1     -41.306  53.623 -51.836  1.00  0.00    -0.055 A 
HETATM   20  C   UNL     1     -40.891  54.039 -53.108  1.00  0.00     0.008 A 
HETATM   21  C   UNL     1     -41.741  54.782 -53.932  1.00  0.00     0.008 A 
BRANCH  19  22
HETATM   22  C   UNL     1     -40.389  52.848 -50.908  1.00  0.00     0.010 C 
HETATM   23  C   UNL     1     -39.440  51.931 -51.682  1.00  0.00     0.015 C 
HETATM   24  C   UNL     1     -39.608  53.790 -49.986  1.00  0.00     0.015 C 
ENDBRANCH  19  22
ENDBRANCH  15  16
ENDBRANCH  12  15
BRANCH   8  25
HETATM   25  C   UNL     1     -41.085  61.254 -58.952  1.00  0.00     0.055 A 
HETATM   26  C   UNL     1     -40.150  62.253 -58.648  1.00  0.00     0.034 A 
HETATM   27  C   UNL     1     -39.743  63.176 -59.617  1.00  0.00     0.044 A 
HETATM   28  C   UNL     1     -40.268  63.101 -60.899  1.00  0.00     0.116 A 
HETATM   29  F   UNL     1     -39.878  63.982 -61.829  1.00  0.00    -0.206 F 
HETATM   30  C   UNL     1     -41.190  62.119 -61.231  1.00  0.00     0.044 A 
HETATM   31  C   UNL     1     -41.598  61.198 -60.260  1.00  0.00     0.034 A 
ENDBRANCH   8  25
TORSDOF 4
ENDMDL
MODEL 7
REMARK VINA RESULT:      -8.3      5.987      9.735
REMARK  4 active torsions:
REMARK  status: ('A' for Active; 'I' for Inactive)
REMARK    1  A    between atoms: N_8  and  C_9 
REMARK    2  A    between atoms: C_19  and  C_20 
REMARK    3  A    between atoms: C_20  and  C_21 
REMARK    4  A    between atoms: C_24  and  C_25 
ROOT
HETATM    1  C   UNL     1     -44.720  57.136 -58.874  1.00  0.00     0.069 C 
HETATM    2  C   UNL     1     -43.776  57.148 -57.698  1.00  0.00     0.017 C 
HETATM    3  N   UNL     1     -43.288  55.900 -57.331  1.00  0.00    -0.348 N 
HETATM    4  C   UNL     1     -42.550  55.712 -56.198  1.00  0.00     0.119 A 
HETATM    5  C   UNL     1     -42.126  56.753 -55.468  1.00  0.00     0.124 A 
HETATM    6  C   UNL     1     -41.306  56.208 -54.375  1.00  0.00     0.280 A 
HETATM    7  O   UNL     1     -40.748  56.870 -53.518  1.00  0.00    -0.265 OA
HETATM    8  N   UNL     1     -41.335  54.816 -54.553  1.00  0.00    -0.236 N 
HETATM    9  N   UNL     1     -42.133  54.501 -55.674  1.00  0.00    -0.179 NA
HETATM   10  C   UNL     1     -42.462  58.121 -55.860  1.00  0.00     0.199 C 
HETATM   11  O   UNL     1     -41.985  59.098 -55.295  1.00  0.00    -0.287 OA
HETATM   12  C   UNL     1     -43.431  58.269 -57.014  1.00  0.00     0.020 C 
HETATM   13  H   UNL     1     -43.747  55.081 -57.717  1.00  0.00     0.167 HD
HETATM   14  H   UNL     1     -41.617  53.972 -56.378  1.00  0.00     0.155 HD
ENDROOT
BRANCH  12  15
HETATM   15  C   UNL     1     -43.919  59.676 -57.267  1.00  0.00     0.083 C 
BRANCH  15  16
HETATM   16  C   UNL     1     -42.934  60.480 -58.090  1.00  0.00    -0.054 A 
HETATM   17  C   UNL     1     -42.709  60.161 -59.435  1.00  0.00     0.008 A 
HETATM   18  C   UNL     1     -41.748  60.848 -60.181  1.00  0.00     0.008 A 
HETATM   19  C   UNL     1     -40.987  61.872 -59.599  1.00  0.00    -0.055 A 
HETATM   20  C   UNL     1     -41.228  62.202 -58.259  1.00  0.00     0.008 A 
HETATM   21  C   UNL     1     -42.189  61.514 -57.513  1.00  0.00     0.008 A 
BRANCH  19  22
HETATM   22  C   UNL     1     -39.923  62.578 -60.420  1.00  0.00     0.010 C 
HETATM   23  C   UNL     1     -40.517  63.262 -61.652  1.00  0.00     0.015 C 
HETATM   24  C   UNL     1     -39.136  63.576 -59.565  1.00  0.00     0.015 C 
ENDBRANCH  19  22
ENDBRANCH  15  16
ENDBRANCH  12  15
BRANCH   8  25
HETATM   25  C   UNL     1     -40.785  53.793 -53.750  1.00  0.00     0.055 A 
HETATM   26  C   UNL     1     -40.791  53.884 -52.351  1.00  0.00     0.034 A 
HETATM   27  C   UNL     1     -40.242  52.868 -51.561  1.00  0.00     0.044 A 
HETATM   28  C   UNL     1     -39.688  51.750 -52.169  1.00  0.00     0.116 A 
HETATM   29  F   UNL     1     -39.165  50.775 -51.415  1.00  0.00    -0.206 F 
HETATM   30  C   UNL     1     -39.674  51.629 -53.551  1.00  0.00     0.044 A 
HETATM   31  C   UNL     1     -40.221  52.647 -54.339  1.00  0.00     0.034 A 
ENDBRANCH   8  25
TORSDOF 4
ENDMDL
MODEL 8
REMARK VINA RESULT:      -8.0      3.315      9.428
REMARK  4 active torsions:
REMARK  status: ('A' for Active; 'I' for Inactive)
REMARK    1  A    between atoms: N_8  and  C_9 
REMARK    2  A    between atoms: C_19  and  C_20 
REMARK    3  A    between atoms: C_20  and  C_21 
REMARK    4  A    between atoms: C_24  and  C_25 
ROOT
HETATM    1  C   UNL     1     -46.542  60.315 -51.873  1.00  0.00     0.069 C 
HETATM    2  C   UNL     1     -45.109  59.909 -51.635  1.00  0.00     0.017 C 
HETATM    3  N   UNL     1     -44.823  58.585 -51.943  1.00  0.00    -0.348 N 
HETATM    4  C   UNL     1     -43.620  58.011 -51.642  1.00  0.00     0.119 A 
HETATM    5  C   UNL     1     -42.601  58.747 -51.176  1.00  0.00     0.124 A 
HETATM    6  C   UNL     1     -41.450  57.845 -51.030  1.00  0.00     0.280 A 
HETATM    7  O   UNL     1     -40.344  58.173 -50.638  1.00  0.00    -0.265 OA
HETATM    8  N   UNL     1     -41.920  56.582 -51.425  1.00  0.00    -0.236 N 
HETATM    9  N   UNL     1     -43.281  56.678 -51.781  1.00  0.00    -0.179 NA
HETATM   10  C   UNL     1     -42.760  60.185 -50.960  1.00  0.00     0.199 C 
HETATM   11  O   UNL     1     -41.817  60.908 -50.662  1.00  0.00    -0.287 OA
HETATM   12  C   UNL     1     -44.159  60.739 -51.134  1.00  0.00     0.020 C 
HETATM   13  H   UNL     1     -45.604  57.954 -52.090  1.00  0.00     0.167 HD
HETATM   14  H   UNL     1     -43.452  56.369 -52.739  1.00  0.00     0.155 HD
ENDROOT
BRANCH  12  15
HETATM   15  C   UNL     1     -44.338  62.177 -50.711  1.00  0.00     0.083 C 
BRANCH  15  16
HETATM   16  C   UNL     1     -44.631  62.302 -49.230  1.00  0.00    -0.054 A 
HETATM   17  C   UNL     1     -44.607  63.556 -48.607  1.00  0.00     0.008 A 
HETATM   18  C   UNL     1     -44.800  63.672 -47.228  1.00  0.00     0.008 A 
HETATM   19  C   UNL     1     -45.024  62.535 -46.438  1.00  0.00    -0.055 A 
HETATM   20  C   UNL     1     -45.067  61.283 -47.067  1.00  0.00     0.008 A 
HETATM   21  C   UNL     1     -44.872  61.168 -48.446  1.00  0.00     0.008 A 
BRANCH  19  22
HETATM   22  C   UNL     1     -45.195  62.683 -44.937  1.00  0.00     0.010 C 
HETATM   23  C   UNL     1     -44.204  61.812 -44.164  1.00  0.00     0.015 C 
HETATM   24  C   UNL     1     -45.084  64.150 -44.508  1.00  0.00     0.015 C 
ENDBRANCH  19  22
ENDBRANCH  15  16
ENDBRANCH  12  15
BRANCH   8  25
HETATM   25  C   UNL     1     -41.265  55.331 -51.411  1.00  0.00     0.055 A 
HETATM   26  C   UNL     1     -40.746  54.795 -50.223  1.00  0.00     0.034 A 
HETATM   27  C   UNL     1     -40.096  53.556 -50.217  1.00  0.00     0.044 A 
HETATM   28  C   UNL     1     -39.966  52.844 -51.400  1.00  0.00     0.116 A 
HETATM   29  F   UNL     1     -39.346  51.656 -51.396  1.00  0.00    -0.206 F 
HETATM   30  C   UNL     1     -40.474  53.346 -52.589  1.00  0.00     0.044 A 
HETATM   31  C   UNL     1     -41.122  54.585 -52.595  1.00  0.00     0.034 A 
ENDBRANCH   8  25
TORSDOF 4
ENDMDL
MODEL 9
REMARK VINA RESULT:      -7.8      3.973      9.683
REMARK  4 active torsions:
REMARK  status: ('A' for Active; 'I' for Inactive)
REMARK    1  A    between atoms: N_8  and  C_9 
REMARK    2  A    between atoms: C_19  and  C_20 
REMARK    3  A    between atoms: C_20  and  C_21 
REMARK    4  A    between atoms: C_24  and  C_25 
ROOT
HETATM    1  C   UNL     1     -41.720  59.665 -50.390  1.00  0.00     0.069 C 
HETATM    2  C   UNL     1     -41.683  58.636 -51.492  1.00  0.00     0.017 C 
HETATM    3  N   UNL     1     -41.434  57.338 -51.065  1.00  0.00    -0.348 N 
HETATM    4  C   UNL     1     -41.214  56.314 -51.942  1.00  0.00     0.119 A 
HETATM    5  C   UNL     1     -41.385  56.484 -53.261  1.00  0.00     0.124 A 
HETATM    6  C   UNL     1     -41.141  55.182 -53.898  1.00  0.00     0.280 A 
HETATM    7  O   UNL     1     -41.217  54.959 -55.094  1.00  0.00    -0.265 OA
HETATM    8  N   UNL     1     -40.810  54.313 -52.846  1.00  0.00    -0.236 N 
HETATM    9  N   UNL     1     -40.827  55.024 -51.627  1.00  0.00    -0.179 NA
HETATM   10  C   UNL     1     -41.796  57.782 -53.795  1.00  0.00     0.199 C 
HETATM   11  O   UNL     1     -42.088  57.939 -54.975  1.00  0.00    -0.287 OA
HETATM   12  C   UNL     1     -41.850  58.928 -52.807  1.00  0.00     0.020 C 
HETATM   13  H   UNL     1     -41.092  57.209 -50.119  1.00  0.00     0.167 HD
HETATM   14  H   UNL     1     -41.477  54.617 -50.953  1.00  0.00     0.155 HD
ENDROOT
BRANCH  12  15
HETATM   15  C   UNL     1     -42.076  60.291 -53.416  1.00  0.00     0.083 C 
BRANCH  15  16
HETATM   16  C   UNL     1     -43.475  60.807 -53.150  1.00  0.00    -0.054 A 
HETATM   17  C   UNL     1     -43.667  62.080 -52.598  1.00  0.00     0.008 A 
HETATM   18  C   UNL     1     -44.949  62.534 -52.278  1.00  0.00     0.008 A 
HETATM   19  C   UNL     1     -46.072  61.726 -52.504  1.00  0.00    -0.055 A 
HETATM   20  C   UNL     1     -45.879  60.460 -53.074  1.00  0.00     0.008 A 
HETATM   21  C   UNL     1     -44.596  60.006 -53.393  1.00  0.00     0.008 A 
BRANCH  19  22
HETATM   22  C   UNL     1     -47.451  62.227 -52.114  1.00  0.00     0.010 C 
HETATM   23  C   UNL     1     -47.374  63.500 -51.269  1.00  0.00     0.015 C 
HETATM   24  C   UNL     1     -48.332  62.441 -53.348  1.00  0.00     0.015 C 
ENDBRANCH  19  22
ENDBRANCH  15  16
ENDBRANCH  12  15
BRANCH   8  25
HETATM   25  C   UNL     1     -40.404  52.961 -52.886  1.00  0.00     0.055 A 
HETATM   26  C   UNL     1     -40.443  52.225 -54.079  1.00  0.00     0.034 A 
HETATM   27  C   UNL     1     -40.042  50.885 -54.111  1.00  0.00     0.044 A 
HETATM   28  C   UNL     1     -39.594  50.275 -52.948  1.00  0.00     0.116 A 
HETATM   29  F   UNL     1     -39.208  48.993 -52.977  1.00  0.00    -0.206 F 
HETATM   30  C   UNL     1     -39.539  50.980 -51.754  1.00  0.00     0.044 A 
HETATM   31  C   UNL     1     -39.942  52.319 -51.723  1.00  0.00     0.034 A 
ENDBRANCH   8  25
TORSDOF 4
ENDMDL
MODEL 10
REMARK VINA RESULT:      -7.7      2.674      4.561
REMARK  4 active torsions:
REMARK  status: ('A' for Active; 'I' for Inactive)
REMARK    1  A    between atoms: N_8  and  C_9 
REMARK    2  A    between atoms: C_19  and  C_20 
REMARK    3  A    between atoms: C_20  and  C_21 
REMARK    4  A    between atoms: C_24  and  C_25 
ROOT
HETATM    1  C   UNL     1     -43.434  54.467 -52.560  1.00  0.00     0.069 C 
HETATM    2  C   UNL     1     -43.258  55.950 -52.352  1.00  0.00     0.017 C 
HETATM    3  N   UNL     1     -44.102  56.507 -51.399  1.00  0.00    -0.348 N 
HETATM    4  C   UNL     1     -44.184  57.856 -51.199  1.00  0.00     0.119 A 
HETATM    5  C   UNL     1     -43.334  58.697 -51.805  1.00  0.00     0.124 A 
HETATM    6  C   UNL     1     -43.646  60.049 -51.318  1.00  0.00     0.280 A 
HETATM    7  O   UNL     1     -43.065  61.067 -51.650  1.00  0.00    -0.265 OA
HETATM    8  N   UNL     1     -44.724  59.882 -50.433  1.00  0.00    -0.236 N 
HETATM    9  N   UNL     1     -45.079  58.517 -50.379  1.00  0.00    -0.179 NA
HETATM   10  C   UNL     1     -42.307  58.189 -52.714  1.00  0.00     0.199 C 
HETATM   11  O   UNL     1     -41.434  58.911 -53.181  1.00  0.00    -0.287 OA
HETATM   12  C   UNL     1     -42.374  56.713 -53.044  1.00  0.00     0.020 C 
HETATM   13  H   UNL     1     -44.890  55.951 -51.083  1.00  0.00     0.167 HD
HETATM   14  H   UNL     1     -45.030  58.144 -49.430  1.00  0.00     0.155 HD
ENDROOT
BRANCH  12  15
HETATM   15  C   UNL     1     -41.436  56.256 -54.136  1.00  0.00     0.083 C 
BRANCH  15  16
HETATM   16  C   UNL     1     -42.115  56.213 -55.489  1.00  0.00    -0.054 A 
HETATM   17  C   UNL     1     -42.557  54.996 -56.022  1.00  0.00     0.008 A 
HETATM   18  C   UNL     1     -43.115  54.937 -57.301  1.00  0.00     0.008 A 
HETATM   19  C   UNL     1     -43.246  56.095 -58.080  1.00  0.00    -0.055 A 
HETATM   20  C   UNL     1     -42.821  57.316 -57.537  1.00  0.00     0.008 A 
HETATM   21  C   UNL     1     -42.262  57.374 -56.257  1.00  0.00     0.008 A 
BRANCH  19  22
HETATM   22  C   UNL     1     -43.822  56.000 -59.481  1.00  0.00     0.010 C 
HETATM   23  C   UNL     1     -44.397  54.611 -59.765  1.00  0.00     0.015 C 
HETATM   24  C   UNL     1     -44.872  57.087 -59.724  1.00  0.00     0.015 C 
ENDBRANCH  19  22
ENDBRANCH  15  16
ENDBRANCH  12  15
BRANCH   8  25
HETATM   25  C   UNL     1     -45.479  60.851 -49.739  1.00  0.00     0.055 A 
HETATM   26  C   UNL     1     -46.272  61.784 -50.423  1.00  0.00     0.034 A 
HETATM   27  C   UNL     1     -47.015  62.744 -49.728  1.00  0.00     0.044 A 
HETATM   28  C   UNL     1     -46.973  62.773 -48.342  1.00  0.00     0.116 A 
HETATM   29  F   UNL     1     -47.685  63.689 -47.674  1.00  0.00    -0.206 F 
HETATM   30  C   UNL     1     -46.202  61.859 -47.637  1.00  0.00     0.044 A 
HETATM   31  C   UNL     1     -45.458  60.901 -48.333  1.00  0.00     0.034 A 
ENDBRANCH   8  25
TORSDOF 4
ENDMDL
