MODEL 1
REMARK VINA RESULT:      -7.8      0.000      0.000
REMARK  7 active torsions:
REMARK  status: ('A' for Active; 'I' for Inactive)
REMARK    1  A    between atoms: C_2  and  C_3 
REMARK    2  A    between atoms: C_3  and  N_4 
REMARK    3  A    between atoms: C_7  and  C_8 
REMARK    4  A    between atoms: C_8  and  N_9 
REMARK       I    between atoms: N_9  and  C_10 
REMARK       I    between atoms: C_10  and  N_11 
REMARK    5  A    between atoms: N_11  and  C_12 
REMARK    6  A    between atoms: C_16  and  N_17 
REMARK       I    between atoms: N_17  and  C_18 
REMARK    7  A    between atoms: C_18  and  C_19 
ROOT
HETATM    1  C   UNL     1     -41.646  57.623 -51.272  1.00  0.00     0.036 A 
HETATM    2  C   UNL     1     -41.394  57.384 -52.622  1.00  0.00     0.038 A 
HETATM    3  C   UNL     1     -41.179  56.075 -53.103  1.00  0.00    -0.033 A 
HETATM    4  C   UNL     1     -40.936  55.885 -54.577  1.00  0.00     0.050 C 
HETATM    5  C   UNL     1     -41.173  54.995 -52.196  1.00  0.00     0.041 A 
HETATM    6  C   UNL     1     -41.465  55.245 -50.851  1.00  0.00     0.032 A 
HETATM    7  C   UNL     1     -41.718  56.541 -50.397  1.00  0.00     0.032 A 
ENDROOT
BRANCH   1   8
HETATM    8  N   UNL     1     -41.849  58.907 -50.733  1.00  0.00    -0.309 N 
HETATM    9  C   UNL     1     -43.007  59.643 -50.802  1.00  0.00     0.320 C 
HETATM   10  N   UNL     1     -42.845  60.868 -50.184  1.00  0.00    -0.342 N 
HETATM   11  O   UNL     1     -44.032  59.360 -51.410  1.00  0.00    -0.247 OA
HETATM   12  H   UNL     1     -42.289  60.813 -49.337  1.00  0.00     0.164 HD
HETATM   13  H   UNL     1     -41.016  59.426 -50.496  1.00  0.00     0.170 HD
BRANCH  10  14
HETATM   14  C   UNL     1     -43.923  61.837 -50.175  1.00  0.00     0.130 C 
BRANCH  14  15
HETATM   15  C   UNL     1     -44.533  62.087 -48.794  1.00  0.00     0.031 C 
HETATM   16  C   UNL     1     -45.964  61.609 -48.603  1.00  0.00     0.241 C 
HETATM   17  N   UNL     1     -46.410  62.315 -47.319  1.00  0.00    -0.071 N 
HETATM   18  H   UNL     1     -47.356  62.671 -47.512  1.00  0.00     0.279 HD
HETATM   19  C   UNL     1     -45.480  63.501 -47.129  1.00  0.00     0.235 C 
HETATM   20  C   UNL     1     -44.638  63.552 -48.392  1.00  0.00     0.035 C 
BRANCH  17  21
HETATM   21  C   UNL     1     -46.500  61.386 -46.137  1.00  0.00     0.234 C 
BRANCH  21  22
HETATM   22  C   UNL     1     -46.235  59.933 -46.527  1.00  0.00     0.023 C 
HETATM   23  C   UNL     1     -47.010  58.925 -45.692  1.00  0.00     0.007 C 
ENDBRANCH  21  22
ENDBRANCH  17  21
ENDBRANCH  14  15
ENDBRANCH  10  14
ENDBRANCH   1   8
BRANCH   5  24
HETATM   24  N   UNL     1     -40.877  53.701 -52.670  1.00  0.00    -0.321 N 
HETATM   25  C   UNL     1     -40.035  52.753 -52.110  1.00  0.00     0.279 C 
HETATM   26  O   UNL     1     -39.386  52.901 -51.080  1.00  0.00    -0.265 OA
HETATM   27  H   UNL     1     -41.254  53.431 -53.572  1.00  0.00     0.169 HD
BRANCH  25  28
HETATM   28  C   UNL     1     -39.954  51.541 -52.904  1.00  0.00     0.142 A 
HETATM   29  O   UNL     1     -39.547  50.371 -52.311  1.00  0.00    -0.317 OA
HETATM   30  C   UNL     1     -39.557  49.413 -53.273  1.00  0.00     0.143 A 
HETATM   31  C   UNL     1     -39.977  49.935 -54.474  1.00  0.00     0.027 A 
HETATM   32  C   UNL     1     -40.231  51.307 -54.238  1.00  0.00     0.045 A 
ENDBRANCH  25  28
ENDBRANCH   5  24
TORSDOF 7
ENDMDL
MODEL 2
REMARK VINA RESULT:      -7.7      1.231      1.700
REMARK  7 active torsions:
REMARK  status: ('A' for Active; 'I' for Inactive)
REMARK    1  A    between atoms: C_2  and  C_3 
REMARK    2  A    between atoms: C_3  and  N_4 
REMARK    3  A    between atoms: C_7  and  C_8 
REMARK    4  A    between atoms: C_8  and  N_9 
REMARK       I    between atoms: N_9  and  C_10 
REMARK       I    between atoms: C_10  and  N_11 
REMARK    5  A    between atoms: N_11  and  C_12 
REMARK    6  A    between atoms: C_16  and  N_17 
REMARK       I    between atoms: N_17  and  C_18 
REMARK    7  A    between atoms: C_18  and  C_19 
ROOT
HETATM    1  C   UNL     1     -42.757  57.615 -52.212  1.00  0.00     0.036 A 
HETATM    2  C   UNL     1     -43.372  56.481 -51.684  1.00  0.00     0.038 A 
HETATM    3  C   UNL     1     -42.852  55.192 -51.926  1.00  0.00    -0.033 A 
HETATM    4  C   UNL     1     -43.552  54.011 -51.306  1.00  0.00     0.050 C 
HETATM    5  C   UNL     1     -41.719  55.044 -52.752  1.00  0.00     0.041 A 
HETATM    6  C   UNL     1     -41.090  56.192 -53.243  1.00  0.00     0.032 A 
HETATM    7  C   UNL     1     -41.592  57.465 -52.961  1.00  0.00     0.032 A 
ENDROOT
BRANCH   1   8
HETATM    8  N   UNL     1     -43.240  58.924 -52.021  1.00  0.00    -0.309 N 
HETATM    9  C   UNL     1     -42.726  59.861 -51.159  1.00  0.00     0.320 C 
HETATM   10  N   UNL     1     -43.460  61.030 -51.213  1.00  0.00    -0.342 N 
HETATM   11  O   UNL     1     -41.821  59.707 -50.347  1.00  0.00    -0.247 OA
HETATM   12  H   UNL     1     -43.758  61.266 -52.154  1.00  0.00     0.164 HD
HETATM   13  H   UNL     1     -44.175  59.105 -52.354  1.00  0.00     0.170 HD
BRANCH  10  14
HETATM   14  C   UNL     1     -43.131  62.147 -50.351  1.00  0.00     0.130 C 
BRANCH  14  15
HETATM   15  C   UNL     1     -44.227  62.512 -49.348  1.00  0.00     0.031 C 
HETATM   16  C   UNL     1     -45.308  61.465 -49.134  1.00  0.00     0.241 C 
HETATM   17  N   UNL     1     -46.417  62.235 -48.412  1.00  0.00    -0.071 N 
HETATM   18  H   UNL     1     -47.295  61.953 -48.869  1.00  0.00     0.279 HD
HETATM   19  C   UNL     1     -46.180  63.709 -48.696  1.00  0.00     0.235 C 
HETATM   20  C   UNL     1     -45.052  63.740 -49.713  1.00  0.00     0.035 C 
BRANCH  17  21
HETATM   21  C   UNL     1     -46.525  61.883 -46.951  1.00  0.00     0.234 C 
BRANCH  21  22
HETATM   22  C   UNL     1     -45.649  60.687 -46.583  1.00  0.00     0.023 C 
HETATM   23  C   UNL     1     -44.675  60.968 -45.449  1.00  0.00     0.007 C 
ENDBRANCH  21  22
ENDBRANCH  17  21
ENDBRANCH  14  15
ENDBRANCH  10  14
ENDBRANCH   1   8
BRANCH   5  24
HETATM   24  N   UNL     1     -41.254  53.747 -53.055  1.00  0.00    -0.321 N 
HETATM   25  C   UNL     1     -40.316  52.991 -52.370  1.00  0.00     0.279 C 
HETATM   26  O   UNL     1     -39.716  53.346 -51.361  1.00  0.00    -0.265 OA
HETATM   27  H   UNL     1     -41.571  53.322 -53.918  1.00  0.00     0.169 HD
BRANCH  25  28
HETATM   28  C   UNL     1     -40.066  51.709 -53.002  1.00  0.00     0.142 A 
HETATM   29  O   UNL     1     -39.674  50.641 -52.233  1.00  0.00    -0.317 OA
HETATM   30  C   UNL     1     -39.506  49.586 -53.072  1.00  0.00     0.143 A 
HETATM   31  C   UNL     1     -39.796  49.945 -54.367  1.00  0.00     0.027 A 
HETATM   32  C   UNL     1     -40.156  51.313 -54.324  1.00  0.00     0.045 A 
ENDBRANCH  25  28
ENDBRANCH   5  24
TORSDOF 7
ENDMDL
MODEL 3
REMARK VINA RESULT:      -7.3      6.470     10.741
REMARK  7 active torsions:
REMARK  status: ('A' for Active; 'I' for Inactive)
REMARK    1  A    between atoms: C_2  and  C_3 
REMARK    2  A    between atoms: C_3  and  N_4 
REMARK    3  A    between atoms: C_7  and  C_8 
REMARK    4  A    between atoms: C_8  and  N_9 
REMARK       I    between atoms: N_9  and  C_10 
REMARK       I    between atoms: C_10  and  N_11 
REMARK    5  A    between atoms: N_11  and  C_12 
REMARK    6  A    between atoms: C_16  and  N_17 
REMARK       I    between atoms: N_17  and  C_18 
REMARK    7  A    between atoms: C_18  and  C_19 
ROOT
HETATM    1  C   UNL     1     -42.930  56.661 -57.496  1.00  0.00     0.036 A 
HETATM    2  C   UNL     1     -43.361  55.636 -58.337  1.00  0.00     0.038 A 
HETATM    3  C   UNL     1     -44.282  55.885 -59.377  1.00  0.00    -0.033 A 
HETATM    4  C   UNL     1     -44.686  54.738 -60.264  1.00  0.00     0.050 C 
HETATM    5  C   UNL     1     -44.810  57.183 -59.540  1.00  0.00     0.041 A 
HETATM    6  C   UNL     1     -44.340  58.209 -58.714  1.00  0.00     0.032 A 
HETATM    7  C   UNL     1     -43.397  57.955 -57.715  1.00  0.00     0.032 A 
ENDROOT
BRANCH   1   8
HETATM    8  N   UNL     1     -42.029  56.469 -56.432  1.00  0.00    -0.309 N 
HETATM    9  C   UNL     1     -42.360  56.277 -55.113  1.00  0.00     0.320 C 
HETATM   10  N   UNL     1     -41.223  56.144 -54.339  1.00  0.00    -0.342 N 
HETATM   11  O   UNL     1     -43.477  56.324 -54.612  1.00  0.00    -0.247 OA
HETATM   12  H   UNL     1     -40.493  55.608 -54.797  1.00  0.00     0.164 HD
HETATM   13  H   UNL     1     -41.072  56.737 -56.607  1.00  0.00     0.170 HD
BRANCH  10  14
HETATM   14  C   UNL     1     -41.325  55.980 -52.902  1.00  0.00     0.130 C 
BRANCH  14  15
HETATM   15  C   UNL     1     -40.635  54.727 -52.361  1.00  0.00     0.031 C 
HETATM   16  C   UNL     1     -41.237  53.398 -52.792  1.00  0.00     0.241 C 
HETATM   17  N   UNL     1     -40.609  52.389 -51.826  1.00  0.00    -0.071 N 
HETATM   18  H   UNL     1     -41.379  51.777 -51.525  1.00  0.00     0.279 HD
HETATM   19  C   UNL     1     -40.126  53.181 -50.622  1.00  0.00     0.235 C 
HETATM   20  C   UNL     1     -40.641  54.592 -50.844  1.00  0.00     0.035 C 
BRANCH  17  21
HETATM   21  C   UNL     1     -39.560  51.524 -52.476  1.00  0.00     0.234 C 
BRANCH  21  22
HETATM   22  C   UNL     1     -39.821  51.332 -53.969  1.00  0.00     0.023 C 
HETATM   23  C   UNL     1     -39.630  49.898 -54.443  1.00  0.00     0.007 C 
ENDBRANCH  21  22
ENDBRANCH  17  21
ENDBRANCH  14  15
ENDBRANCH  10  14
ENDBRANCH   1   8
BRANCH   5  24
HETATM   24  N   UNL     1     -45.791  57.407 -60.528  1.00  0.00    -0.321 N 
HETATM   25  C   UNL     1     -46.997  58.077 -60.404  1.00  0.00     0.279 C 
HETATM   26  O   UNL     1     -47.421  58.591 -59.375  1.00  0.00    -0.265 OA
HETATM   27  H   UNL     1     -45.657  56.969 -61.433  1.00  0.00     0.169 HD
BRANCH  25  28
HETATM   28  C   UNL     1     -47.764  58.077 -61.636  1.00  0.00     0.142 A 
HETATM   29  O   UNL     1     -47.958  59.257 -62.311  1.00  0.00    -0.317 OA
HETATM   30  C   UNL     1     -48.705  58.970 -63.409  1.00  0.00     0.143 A 
HETATM   31  C   UNL     1     -48.985  57.625 -63.466  1.00  0.00     0.027 A 
HETATM   32  C   UNL     1     -48.381  57.048 -62.323  1.00  0.00     0.045 A 
ENDBRANCH  25  28
ENDBRANCH   5  24
TORSDOF 7
ENDMDL
MODEL 4
REMARK VINA RESULT:      -7.2     17.597     20.475
REMARK  7 active torsions:
REMARK  status: ('A' for Active; 'I' for Inactive)
REMARK    1  A    between atoms: C_2  and  C_3 
REMARK    2  A    between atoms: C_3  and  N_4 
REMARK    3  A    between atoms: C_7  and  C_8 
REMARK    4  A    between atoms: C_8  and  N_9 
REMARK       I    between atoms: N_9  and  C_10 
REMARK       I    between atoms: C_10  and  N_11 
REMARK    5  A    between atoms: N_11  and  C_12 
REMARK    6  A    between atoms: C_16  and  N_17 
REMARK       I    between atoms: N_17  and  C_18 
REMARK    7  A    between atoms: C_18  and  C_19 
ROOT
HETATM    1  C   UNL     1     -35.979  41.322 -52.789  1.00  0.00     0.036 A 
HETATM    2  C   UNL     1     -36.018  40.017 -52.299  1.00  0.00     0.038 A 
HETATM    3  C   UNL     1     -35.218  39.626 -51.205  1.00  0.00    -0.033 A 
HETATM    4  C   UNL     1     -35.326  38.208 -50.710  1.00  0.00     0.050 C 
HETATM    5  C   UNL     1     -34.331  40.558 -50.625  1.00  0.00     0.041 A 
HETATM    6  C   UNL     1     -34.331  41.873 -51.102  1.00  0.00     0.032 A 
HETATM    7  C   UNL     1     -35.159  42.256 -52.159  1.00  0.00     0.032 A 
ENDROOT
BRANCH   1   8
HETATM    8  N   UNL     1     -36.739  41.764 -53.888  1.00  0.00    -0.309 N 
HETATM    9  C   UNL     1     -36.331  41.791 -55.199  1.00  0.00     0.320 C 
HETATM   10  N   UNL     1     -37.325  42.305 -56.010  1.00  0.00    -0.342 N 
HETATM   11  O   UNL     1     -35.219  41.522 -55.637  1.00  0.00    -0.247 OA
HETATM   12  H   UNL     1     -38.254  42.000 -55.739  1.00  0.00     0.164 HD
HETATM   13  H   UNL     1     -37.546  42.331 -53.671  1.00  0.00     0.170 HD
BRANCH  10  14
HETATM   14  C   UNL     1     -37.102  42.475 -57.432  1.00  0.00     0.130 C 
BRANCH  14  15
HETATM   15  C   UNL     1     -37.200  41.182 -58.243  1.00  0.00     0.031 C 
HETATM   16  C   UNL     1     -37.395  41.351 -59.742  1.00  0.00     0.241 C 
HETATM   17  N   UNL     1     -37.830  39.958 -60.207  1.00  0.00    -0.071 N 
HETATM   18  H   UNL     1     -38.616  40.114 -60.853  1.00  0.00     0.279 HD
HETATM   19  C   UNL     1     -38.355  39.233 -58.979  1.00  0.00     0.235 C 
HETATM   20  C   UNL     1     -38.372  40.280 -57.878  1.00  0.00     0.035 C 
BRANCH  17  21
HETATM   21  C   UNL     1     -36.753  39.224 -60.962  1.00  0.00     0.234 C 
BRANCH  21  22
HETATM   22  C   UNL     1     -37.199  38.844 -62.373  1.00  0.00     0.023 C 
HETATM   23  C   UNL     1     -38.501  38.057 -62.410  1.00  0.00     0.007 C 
ENDBRANCH  21  22
ENDBRANCH  17  21
ENDBRANCH  14  15
ENDBRANCH  10  14
ENDBRANCH   1   8
BRANCH   5  24
HETATM   24  N   UNL     1     -33.476  40.138 -49.585  1.00  0.00    -0.321 N 
HETATM   25  C   UNL     1     -32.108  39.925 -49.632  1.00  0.00     0.279 C 
HETATM   26  O   UNL     1     -31.401  40.067 -50.624  1.00  0.00    -0.265 OA
HETATM   27  H   UNL     1     -33.900  39.878 -48.702  1.00  0.00     0.169 HD
BRANCH  25  28
HETATM   28  C   UNL     1     -31.572  39.462 -48.366  1.00  0.00     0.142 A 
HETATM   29  O   UNL     1     -30.329  39.883 -47.963  1.00  0.00    -0.317 OA
HETATM   30  C   UNL     1     -30.079  39.297 -46.763  1.00  0.00     0.143 A 
HETATM   31  C   UNL     1     -31.143  38.518 -46.374  1.00  0.00     0.027 A 
HETATM   32  C   UNL     1     -32.105  38.621 -47.406  1.00  0.00     0.045 A 
ENDBRANCH  25  28
ENDBRANCH   5  24
TORSDOF 7
ENDMDL
MODEL 5
REMARK VINA RESULT:      -7.1      1.389      2.274
REMARK  7 active torsions:
REMARK  status: ('A' for Active; 'I' for Inactive)
REMARK    1  A    between atoms: C_2  and  C_3 
REMARK    2  A    between atoms: C_3  and  N_4 
REMARK    3  A    between atoms: C_7  and  C_8 
REMARK    4  A    between atoms: C_8  and  N_9 
REMARK       I    between atoms: N_9  and  C_10 
REMARK       I    between atoms: C_10  and  N_11 
REMARK    5  A    between atoms: N_11  and  C_12 
REMARK    6  A    between atoms: C_16  and  N_17 
REMARK       I    between atoms: N_17  and  C_18 
REMARK    7  A    between atoms: C_18  and  C_19 
ROOT
HETATM    1  C   UNL     1     -41.896  57.410 -51.061  1.00  0.00     0.036 A 
HETATM    2  C   UNL     1     -41.387  56.511 -50.125  1.00  0.00     0.038 A 
HETATM    3  C   UNL     1     -40.928  55.236 -50.515  1.00  0.00    -0.033 A 
HETATM    4  C   UNL     1     -40.367  54.323 -49.457  1.00  0.00     0.050 C 
HETATM    5  C   UNL     1     -41.028  54.845 -51.867  1.00  0.00     0.041 A 
HETATM    6  C   UNL     1     -41.505  55.771 -52.800  1.00  0.00     0.032 A 
HETATM    7  C   UNL     1     -41.917  57.046 -52.405  1.00  0.00     0.032 A 
ENDROOT
BRANCH   1   8
HETATM    8  N   UNL     1     -42.385  58.687 -50.728  1.00  0.00    -0.309 N 
HETATM    9  C   UNL     1     -43.696  59.094 -50.778  1.00  0.00     0.320 C 
HETATM   10  N   UNL     1     -43.812  60.418 -50.403  1.00  0.00    -0.342 N 
HETATM   11  O   UNL     1     -44.655  58.458 -51.198  1.00  0.00    -0.247 OA
HETATM   12  H   UNL     1     -43.198  60.667 -49.635  1.00  0.00     0.164 HD
HETATM   13  H   UNL     1     -41.701  59.428 -50.688  1.00  0.00     0.170 HD
BRANCH  10  14
HETATM   14  C   UNL     1     -45.101  61.080 -50.427  1.00  0.00     0.130 C 
BRANCH  14  15
HETATM   15  C   UNL     1     -45.537  61.658 -49.079  1.00  0.00     0.031 C 
HETATM   16  C   UNL     1     -45.467  63.172 -48.950  1.00  0.00     0.241 C 
HETATM   17  N   UNL     1     -45.583  63.409 -47.442  1.00  0.00    -0.071 N 
HETATM   18  H   UNL     1     -44.868  64.115 -47.216  1.00  0.00     0.279 HD
HETATM   19  C   UNL     1     -45.199  62.105 -46.764  1.00  0.00     0.235 C 
HETATM   20  C   UNL     1     -44.706  61.206 -47.885  1.00  0.00     0.035 C 
BRANCH  17  21
HETATM   21  C   UNL     1     -46.922  63.964 -47.033  1.00  0.00     0.234 C 
BRANCH  21  22
HETATM   22  C   UNL     1     -47.324  63.516 -45.629  1.00  0.00     0.023 C 
HETATM   23  C   UNL     1     -46.940  64.507 -44.539  1.00  0.00     0.007 C 
ENDBRANCH  21  22
ENDBRANCH  17  21
ENDBRANCH  14  15
ENDBRANCH  10  14
ENDBRANCH   1   8
BRANCH   5  24
HETATM   24  N   UNL     1     -40.643  53.540 -52.236  1.00  0.00    -0.321 N 
HETATM   25  C   UNL     1     -40.284  53.074 -53.490  1.00  0.00     0.279 C 
HETATM   26  O   UNL     1     -40.251  53.746 -54.515  1.00  0.00    -0.265 OA
HETATM   27  H   UNL     1     -40.700  52.814 -51.531  1.00  0.00     0.169 HD
BRANCH  25  28
HETATM   28  C   UNL     1     -39.980  51.655 -53.492  1.00  0.00     0.142 A 
HETATM   29  O   UNL     1     -39.783  51.005 -52.299  1.00  0.00    -0.317 OA
HETATM   30  C   UNL     1     -39.512  49.707 -52.592  1.00  0.00     0.143 A 
HETATM   31  C   UNL     1     -39.545  49.500 -53.951  1.00  0.00     0.027 A 
HETATM   32  C   UNL     1     -39.845  50.755 -54.532  1.00  0.00     0.045 A 
ENDBRANCH  25  28
ENDBRANCH   5  24
TORSDOF 7
ENDMDL
MODEL 6
REMARK VINA RESULT:      -7.0      6.808     10.476
REMARK  7 active torsions:
REMARK  status: ('A' for Active; 'I' for Inactive)
REMARK    1  A    between atoms: C_2  and  C_3 
REMARK    2  A    between atoms: C_3  and  N_4 
REMARK    3  A    between atoms: C_7  and  C_8 
REMARK    4  A    between atoms: C_8  and  N_9 
REMARK       I    between atoms: N_9  and  C_10 
REMARK       I    between atoms: C_10  and  N_11 
REMARK    5  A    between atoms: N_11  and  C_12 
REMARK    6  A    between atoms: C_16  and  N_17 
REMARK       I    between atoms: N_17  and  C_18 
REMARK    7  A    between atoms: C_18  and  C_19 
ROOT
HETATM    1  C   UNL     1     -43.298  56.455 -57.730  1.00  0.00     0.036 A 
HETATM    2  C   UNL     1     -43.691  55.774 -58.882  1.00  0.00     0.038 A 
HETATM    3  C   UNL     1     -44.774  56.230 -59.662  1.00  0.00    -0.033 A 
HETATM    4  C   UNL     1     -45.131  55.462 -60.907  1.00  0.00     0.050 C 
HETATM    5  C   UNL     1     -45.500  57.365 -59.247  1.00  0.00     0.041 A 
HETATM    6  C   UNL     1     -45.071  58.060 -58.112  1.00  0.00     0.032 A 
HETATM    7  C   UNL     1     -43.970  57.621 -57.372  1.00  0.00     0.032 A 
ENDROOT
BRANCH   1   8
HETATM    8  N   UNL     1     -42.238  56.038 -56.902  1.00  0.00    -0.309 N 
HETATM    9  C   UNL     1     -42.232  54.932 -56.088  1.00  0.00     0.320 C 
HETATM   10  N   UNL     1     -41.036  54.838 -55.401  1.00  0.00    -0.342 N 
HETATM   11  O   UNL     1     -43.161  54.165 -55.868  1.00  0.00    -0.247 OA
HETATM   12  H   UNL     1     -40.234  55.099 -55.966  1.00  0.00     0.164 HD
HETATM   13  H   UNL     1     -41.531  56.730 -56.703  1.00  0.00     0.170 HD
BRANCH  10  14
HETATM   14  C   UNL     1     -40.819  53.773 -54.442  1.00  0.00     0.130 C 
BRANCH  14  15
HETATM   15  C   UNL     1     -41.135  54.155 -52.995  1.00  0.00     0.031 C 
HETATM   16  C   UNL     1     -40.282  53.485 -51.929  1.00  0.00     0.241 C 
HETATM   17  N   UNL     1     -41.053  53.750 -50.633  1.00  0.00    -0.071 N 
HETATM   18  H   UNL     1     -41.051  52.858 -50.121  1.00  0.00     0.279 HD
HETATM   19  C   UNL     1     -42.484  54.069 -51.035  1.00  0.00     0.235 C 
HETATM   20  C   UNL     1     -42.543  53.809 -52.530  1.00  0.00     0.035 C 
BRANCH  17  21
HETATM   21  C   UNL     1     -40.397  54.785 -49.757  1.00  0.00     0.234 C 
BRANCH  21  22
HETATM   22  C   UNL     1     -41.272  56.025 -49.581  1.00  0.00     0.023 C 
HETATM   23  C   UNL     1     -40.833  57.208 -50.432  1.00  0.00     0.007 C 
ENDBRANCH  21  22
ENDBRANCH  17  21
ENDBRANCH  14  15
ENDBRANCH  10  14
ENDBRANCH   1   8
BRANCH   5  24
HETATM   24  N   UNL     1     -46.631  57.767 -59.988  1.00  0.00    -0.321 N 
HETATM   25  C   UNL     1     -46.767  58.871 -60.814  1.00  0.00     0.279 C 
HETATM   26  O   UNL     1     -45.897  59.707 -61.032  1.00  0.00    -0.265 OA
HETATM   27  H   UNL     1     -47.490  57.244 -59.859  1.00  0.00     0.169 HD
BRANCH  25  28
HETATM   28  C   UNL     1     -48.097  58.978 -61.386  1.00  0.00     0.142 A 
HETATM   29  O   UNL     1     -48.526  58.029 -62.280  1.00  0.00    -0.317 OA
HETATM   30  C   UNL     1     -49.785  58.375 -62.654  1.00  0.00     0.143 A 
HETATM   31  C   UNL     1     -50.185  59.522 -62.009  1.00  0.00     0.027 A 
HETATM   32  C   UNL     1     -49.097  59.912 -61.192  1.00  0.00     0.045 A 
ENDBRANCH  25  28
ENDBRANCH   5  24
TORSDOF 7
ENDMDL
MODEL 7
REMARK VINA RESULT:      -7.0      3.083      3.981
REMARK  7 active torsions:
REMARK  status: ('A' for Active; 'I' for Inactive)
REMARK    1  A    between atoms: C_2  and  C_3 
REMARK    2  A    between atoms: C_3  and  N_4 
REMARK    3  A    between atoms: C_7  and  C_8 
REMARK    4  A    between atoms: C_8  and  N_9 
REMARK       I    between atoms: N_9  and  C_10 
REMARK       I    between atoms: C_10  and  N_11 
REMARK    5  A    between atoms: N_11  and  C_12 
REMARK    6  A    between atoms: C_16  and  N_17 
REMARK       I    between atoms: N_17  and  C_18 
REMARK    7  A    between atoms: C_18  and  C_19 
ROOT
HETATM    1  C   UNL     1     -43.098  57.080 -51.216  1.00  0.00     0.036 A 
HETATM    2  C   UNL     1     -42.038  56.559 -50.474  1.00  0.00     0.038 A 
HETATM    3  C   UNL     1     -41.396  55.364 -50.861  1.00  0.00    -0.033 A 
HETATM    4  C   UNL     1     -40.242  54.871 -50.029  1.00  0.00     0.050 C 
HETATM    5  C   UNL     1     -41.862  54.660 -51.991  1.00  0.00     0.041 A 
HETATM    6  C   UNL     1     -42.901  55.213 -52.747  1.00  0.00     0.032 A 
HETATM    7  C   UNL     1     -43.499  56.419 -52.375  1.00  0.00     0.032 A 
ENDROOT
BRANCH   1   8
HETATM    8  N   UNL     1     -43.788  58.256 -50.869  1.00  0.00    -0.309 N 
HETATM    9  C   UNL     1     -43.673  59.477 -51.486  1.00  0.00     0.320 C 
HETATM   10  N   UNL     1     -44.481  60.414 -50.870  1.00  0.00    -0.342 N 
HETATM   11  O   UNL     1     -42.897  59.787 -52.382  1.00  0.00    -0.247 OA
HETATM   12  H   UNL     1     -45.378  60.036 -50.584  1.00  0.00     0.164 HD
HETATM   13  H   UNL     1     -44.209  58.269 -49.951  1.00  0.00     0.170 HD
BRANCH  10  14
HETATM   14  C   UNL     1     -44.487  61.791 -51.321  1.00  0.00     0.130 C 
BRANCH  14  15
HETATM   15  C   UNL     1     -45.713  62.177 -52.151  1.00  0.00     0.031 C 
HETATM   16  C   UNL     1     -46.924  61.266 -52.011  1.00  0.00     0.241 C 
HETATM   17  N   UNL     1     -47.808  61.660 -53.198  1.00  0.00    -0.071 N 
HETATM   18  H   UNL     1     -48.137  60.774 -53.606  1.00  0.00     0.279 HD
HETATM   19  C   UNL     1     -46.903  62.347 -54.207  1.00  0.00     0.235 C 
HETATM   20  C   UNL     1     -45.497  62.177 -53.659  1.00  0.00     0.035 C 
BRANCH  17  21
HETATM   21  C   UNL     1     -49.021  62.456 -52.790  1.00  0.00     0.234 C 
BRANCH  21  22
HETATM   22  C   UNL     1     -50.190  62.252 -53.752  1.00  0.00     0.023 C 
HETATM   23  C   UNL     1     -51.425  61.654 -53.094  1.00  0.00     0.007 C 
ENDBRANCH  21  22
ENDBRANCH  17  21
ENDBRANCH  14  15
ENDBRANCH  10  14
ENDBRANCH   1   8
BRANCH   5  24
HETATM   24  N   UNL     1     -41.269  53.425 -52.324  1.00  0.00    -0.321 N 
HETATM   25  C   UNL     1     -40.524  53.107 -53.449  1.00  0.00     0.279 C 
HETATM   26  O   UNL     1     -40.261  53.876 -54.367  1.00  0.00    -0.265 OA
HETATM   27  H   UNL     1     -41.458  52.632 -51.722  1.00  0.00     0.169 HD
BRANCH  25  28
HETATM   28  C   UNL     1     -40.102  51.719 -53.464  1.00  0.00     0.142 A 
HETATM   29  O   UNL     1     -40.146  51.012 -54.640  1.00  0.00    -0.317 OA
HETATM   30  C   UNL     1     -39.708  49.755 -54.366  1.00  0.00     0.143 A 
HETATM   31  C   UNL     1     -39.367  49.639 -53.040  1.00  0.00     0.027 A 
HETATM   32  C   UNL     1     -39.622  50.903 -52.456  1.00  0.00     0.045 A 
ENDBRANCH  25  28
ENDBRANCH   5  24
TORSDOF 7
ENDMDL
MODEL 8
REMARK VINA RESULT:      -6.7      4.792      6.288
REMARK  7 active torsions:
REMARK  status: ('A' for Active; 'I' for Inactive)
REMARK    1  A    between atoms: C_2  and  C_3 
REMARK    2  A    between atoms: C_3  and  N_4 
REMARK    3  A    between atoms: C_7  and  C_8 
REMARK    4  A    between atoms: C_8  and  N_9 
REMARK       I    between atoms: N_9  and  C_10 
REMARK       I    between atoms: C_10  and  N_11 
REMARK    5  A    between atoms: N_11  and  C_12 
REMARK    6  A    between atoms: C_16  and  N_17 
REMARK       I    between atoms: N_17  and  C_18 
REMARK    7  A    between atoms: C_18  and  C_19 
ROOT
HETATM    1  C   UNL     1     -44.664  59.487 -52.595  1.00  0.00     0.036 A 
HETATM    2  C   UNL     1     -44.328  58.162 -52.871  1.00  0.00     0.038 A 
HETATM    3  C   UNL     1     -44.551  57.605 -54.148  1.00  0.00    -0.033 A 
HETATM    4  C   UNL     1     -44.143  56.175 -54.386  1.00  0.00     0.050 C 
HETATM    5  C   UNL     1     -45.166  58.386 -55.148  1.00  0.00     0.041 A 
HETATM    6  C   UNL     1     -45.462  59.725 -54.869  1.00  0.00     0.032 A 
HETATM    7  C   UNL     1     -45.197  60.274 -53.613  1.00  0.00     0.032 A 
ENDROOT
BRANCH   1   8
HETATM    8  N   UNL     1     -44.483  60.090 -51.337  1.00  0.00    -0.309 N 
HETATM    9  C   UNL     1     -45.242  59.871 -50.214  1.00  0.00     0.320 C 
HETATM   10  N   UNL     1     -44.795  60.647 -49.162  1.00  0.00    -0.342 N 
HETATM   11  O   UNL     1     -46.254  59.186 -50.123  1.00  0.00    -0.247 OA
HETATM   12  H   UNL     1     -43.784  60.719 -49.125  1.00  0.00     0.164 HD
HETATM   13  H   UNL     1     -43.914  60.924 -51.322  1.00  0.00     0.170 HD
BRANCH  10  14
HETATM   14  C   UNL     1     -45.477  60.618 -47.883  1.00  0.00     0.130 C 
BRANCH  14  15
HETATM   15  C   UNL     1     -45.351  61.910 -47.073  1.00  0.00     0.031 C 
HETATM   16  C   UNL     1     -45.408  61.755 -45.561  1.00  0.00     0.241 C 
HETATM   17  N   UNL     1     -45.639  63.184 -45.062  1.00  0.00    -0.071 N 
HETATM   18  H   UNL     1     -46.367  63.111 -44.338  1.00  0.00     0.279 HD
HETATM   19  C   UNL     1     -46.204  63.969 -46.234  1.00  0.00     0.235 C 
HETATM   20  C   UNL     1     -46.447  62.937 -47.322  1.00  0.00     0.035 C 
BRANCH  17  21
HETATM   21  C   UNL     1     -44.416  63.791 -44.425  1.00  0.00     0.234 C 
BRANCH  21  22
HETATM   22  C   UNL     1     -43.953  62.998 -43.204  1.00  0.00     0.023 C 
HETATM   23  C   UNL     1     -42.878  63.705 -42.389  1.00  0.00     0.007 C 
ENDBRANCH  21  22
ENDBRANCH  17  21
ENDBRANCH  14  15
ENDBRANCH  10  14
ENDBRANCH   1   8
BRANCH   5  24
HETATM   24  N   UNL     1     -45.459  57.799 -56.396  1.00  0.00    -0.321 N 
HETATM   25  C   UNL     1     -44.801  57.974 -57.603  1.00  0.00     0.279 C 
HETATM   26  O   UNL     1     -43.830  58.701 -57.784  1.00  0.00    -0.265 OA
HETATM   27  H   UNL     1     -46.297  57.232 -56.466  1.00  0.00     0.169 HD
BRANCH  25  28
HETATM   28  C   UNL     1     -45.413  57.226 -58.686  1.00  0.00     0.142 A 
HETATM   29  O   UNL     1     -44.681  56.273 -59.347  1.00  0.00    -0.317 OA
HETATM   30  C   UNL     1     -45.487  55.742 -60.303  1.00  0.00     0.143 A 
HETATM   31  C   UNL     1     -46.733  56.322 -60.262  1.00  0.00     0.027 A 
HETATM   32  C   UNL     1     -46.687  57.281 -59.222  1.00  0.00     0.045 A 
ENDBRANCH  25  28
ENDBRANCH   5  24
TORSDOF 7
ENDMDL
MODEL 9
REMARK VINA RESULT:      -6.6      2.875      3.781
REMARK  7 active torsions:
REMARK  status: ('A' for Active; 'I' for Inactive)
REMARK    1  A    between atoms: C_2  and  C_3 
REMARK    2  A    between atoms: C_3  and  N_4 
REMARK    3  A    between atoms: C_7  and  C_8 
REMARK    4  A    between atoms: C_8  and  N_9 
REMARK       I    between atoms: N_9  and  C_10 
REMARK       I    between atoms: C_10  and  N_11 
REMARK    5  A    between atoms: N_11  and  C_12 
REMARK    6  A    between atoms: C_16  and  N_17 
REMARK       I    between atoms: N_17  and  C_18 
REMARK    7  A    between atoms: C_18  and  C_19 
ROOT
HETATM    1  C   UNL     1     -42.837  57.245 -51.465  1.00  0.00     0.036 A 
HETATM    2  C   UNL     1     -43.340  56.618 -52.604  1.00  0.00     0.038 A 
HETATM    3  C   UNL     1     -42.882  55.343 -52.996  1.00  0.00    -0.033 A 
HETATM    4  C   UNL     1     -43.485  54.713 -54.224  1.00  0.00     0.050 C 
HETATM    5  C   UNL     1     -41.866  54.711 -52.250  1.00  0.00     0.041 A 
HETATM    6  C   UNL     1     -41.398  55.334 -51.088  1.00  0.00     0.032 A 
HETATM    7  C   UNL     1     -41.891  56.579 -50.690  1.00  0.00     0.032 A 
ENDROOT
BRANCH   1   8
HETATM    8  N   UNL     1     -43.242  58.523 -51.037  1.00  0.00    -0.309 N 
HETATM    9  C   UNL     1     -44.509  58.887 -50.652  1.00  0.00     0.320 C 
HETATM   10  N   UNL     1     -44.552  60.226 -50.313  1.00  0.00    -0.342 N 
HETATM   11  O   UNL     1     -45.524  58.201 -50.692  1.00  0.00    -0.247 OA
HETATM   12  H   UNL     1     -43.725  60.533 -49.811  1.00  0.00     0.164 HD
HETATM   13  H   UNL     1     -42.620  59.285 -51.262  1.00  0.00     0.170 HD
BRANCH  10  14
HETATM   14  C   UNL     1     -45.801  60.847 -49.921  1.00  0.00     0.130 C 
BRANCH  14  15
HETATM   15  C   UNL     1     -46.407  61.767 -50.982  1.00  0.00     0.031 C 
HETATM   16  C   UNL     1     -46.979  61.078 -52.212  1.00  0.00     0.241 C 
HETATM   17  N   UNL     1     -47.147  62.220 -53.217  1.00  0.00    -0.071 N 
HETATM   18  H   UNL     1     -46.791  61.856 -54.112  1.00  0.00     0.279 HD
HETATM   19  C   UNL     1     -46.233  63.344 -52.759  1.00  0.00     0.235 C 
HETATM   20  C   UNL     1     -45.434  62.759 -51.606  1.00  0.00     0.035 C 
BRANCH  17  21
HETATM   21  C   UNL     1     -48.586  62.618 -53.422  1.00  0.00     0.234 C 
BRANCH  21  22
HETATM   22  C   UNL     1     -48.840  63.143 -54.834  1.00  0.00     0.023 C 
HETATM   23  C   UNL     1     -48.051  62.409 -55.909  1.00  0.00     0.007 C 
ENDBRANCH  21  22
ENDBRANCH  17  21
ENDBRANCH  14  15
ENDBRANCH  10  14
ENDBRANCH   1   8
BRANCH   5  24
HETATM   24  N   UNL     1     -41.356  53.473 -52.693  1.00  0.00    -0.321 N 
HETATM   25  C   UNL     1     -40.263  52.773 -52.209  1.00  0.00     0.279 C 
HETATM   26  O   UNL     1     -39.536  53.137 -51.290  1.00  0.00    -0.265 OA
HETATM   27  H   UNL     1     -41.775  53.058 -53.517  1.00  0.00     0.169 HD
BRANCH  25  28
HETATM   28  C   UNL     1     -40.019  51.544 -52.942  1.00  0.00     0.142 A 
HETATM   29  O   UNL     1     -39.597  50.426 -52.265  1.00  0.00    -0.317 OA
HETATM   30  C   UNL     1     -39.443  49.439 -53.185  1.00  0.00     0.143 A 
HETATM   31  C   UNL     1     -39.772  49.891 -54.441  1.00  0.00     0.027 A 
HETATM   32  C   UNL     1     -40.142  51.248 -54.286  1.00  0.00     0.045 A 
ENDBRANCH  25  28
ENDBRANCH   5  24
TORSDOF 7
ENDMDL
MODEL 10
REMARK VINA RESULT:      -6.5     18.153     21.347
REMARK  7 active torsions:
REMARK  status: ('A' for Active; 'I' for Inactive)
REMARK    1  A    between atoms: C_2  and  C_3 
REMARK    2  A    between atoms: C_3  and  N_4 
REMARK    3  A    between atoms: C_7  and  C_8 
REMARK    4  A    between atoms: C_8  and  N_9 
REMARK       I    between atoms: N_9  and  C_10 
REMARK       I    between atoms: C_10  and  N_11 
REMARK    5  A    between atoms: N_11  and  C_12 
REMARK    6  A    between atoms: C_16  and  N_17 
REMARK       I    between atoms: N_17  and  C_18 
REMARK    7  A    between atoms: C_18  and  C_19 
ROOT
HETATM    1  C   UNL     1     -32.488  40.261 -50.407  1.00  0.00     0.036 A 
HETATM    2  C   UNL     1     -31.984  40.108 -51.698  1.00  0.00     0.038 A 
HETATM    3  C   UNL     1     -32.813  40.270 -52.828  1.00  0.00    -0.033 A 
HETATM    4  C   UNL     1     -32.199  40.114 -54.194  1.00  0.00     0.050 C 
HETATM    5  C   UNL     1     -34.185  40.546 -52.648  1.00  0.00     0.041 A 
HETATM    6  C   UNL     1     -34.668  40.735 -51.350  1.00  0.00     0.032 A 
HETATM    7  C   UNL     1     -33.826  40.613 -50.242  1.00  0.00     0.032 A 
ENDROOT
BRANCH   1   8
HETATM    8  N   UNL     1     -31.714  40.094 -49.244  1.00  0.00    -0.309 N 
HETATM    9  C   UNL     1     -31.883  39.120 -48.289  1.00  0.00     0.320 C 
HETATM   10  N   UNL     1     -30.959  39.268 -47.272  1.00  0.00    -0.342 N 
HETATM   11  O   UNL     1     -32.777  38.285 -48.230  1.00  0.00    -0.247 OA
HETATM   12  H   UNL     1     -30.042  39.543 -47.608  1.00  0.00     0.164 HD
HETATM   13  H   UNL     1     -31.157  40.887 -48.963  1.00  0.00     0.170 HD
BRANCH  10  14
HETATM   14  C   UNL     1     -30.976  38.380 -46.127  1.00  0.00     0.130 C 
BRANCH  14  15
HETATM   15  C   UNL     1     -29.844  38.620 -45.127  1.00  0.00     0.031 C 
HETATM   16  C   UNL     1     -29.603  40.069 -44.730  1.00  0.00     0.241 C 
HETATM   17  N   UNL     1     -28.227  40.033 -44.060  1.00  0.00    -0.071 N 
HETATM   18  H   UNL     1     -27.714  40.843 -44.435  1.00  0.00     0.279 HD
HETATM   19  C   UNL     1     -27.540  38.766 -44.540  1.00  0.00     0.235 C 
HETATM   20  C   UNL     1     -28.462  38.195 -45.605  1.00  0.00     0.035 C 
BRANCH  17  21
HETATM   21  C   UNL     1     -28.296  40.186 -42.562  1.00  0.00     0.234 C 
BRANCH  21  22
HETATM   22  C   UNL     1     -28.017  38.871 -41.839  1.00  0.00     0.023 C 
HETATM   23  C   UNL     1     -29.263  38.217 -41.258  1.00  0.00     0.007 C 
ENDBRANCH  21  22
ENDBRANCH  17  21
ENDBRANCH  14  15
ENDBRANCH  10  14
ENDBRANCH   1   8
BRANCH   5  24
HETATM   24  N   UNL     1     -35.023  40.626 -53.779  1.00  0.00    -0.321 N 
HETATM   25  C   UNL     1     -35.819  41.686 -54.184  1.00  0.00     0.279 C 
HETATM   26  O   UNL     1     -35.928  42.757 -53.596  1.00  0.00    -0.265 OA
HETATM   27  H   UNL     1     -35.137  39.791 -54.343  1.00  0.00     0.169 HD
BRANCH  25  28
HETATM   28  C   UNL     1     -36.573  41.389 -55.388  1.00  0.00     0.142 A 
HETATM   29  O   UNL     1     -36.512  42.252 -56.453  1.00  0.00    -0.317 OA
HETATM   30  C   UNL     1     -37.308  41.739 -57.428  1.00  0.00     0.143 A 
HETATM   31  C   UNL     1     -37.870  40.552 -57.019  1.00  0.00     0.027 A 
HETATM   32  C   UNL     1     -37.399  40.326 -55.704  1.00  0.00     0.045 A 
ENDBRANCH  25  28
ENDBRANCH   5  24
TORSDOF 7
ENDMDL
