MODEL 1
REMARK VINA RESULT:      -8.4      0.000      0.000
REMARK  5 active torsions:
REMARK  status: ('A' for Active; 'I' for Inactive)
REMARK    1  A    between atoms: C_2  and  C_3 
REMARK    2  A    between atoms: C_7  and  C_8 
REMARK    3  A    between atoms: C_8  and  N_9 
REMARK       I    between atoms: N_9  and  C_10 
REMARK       I    between atoms: C_10  and  N_11 
REMARK    4  A    between atoms: N_11  and  C_12 
REMARK    5  A    between atoms: C_14  and  C_15 
ROOT
HETATM    1  N   UNL     1     -42.306  56.661 -53.978  1.00  0.00    -0.333 N 
HETATM    2  C   UNL     1     -42.225  55.354 -53.503  1.00  0.00     0.322 C 
HETATM    3  N   UNL     1     -40.940  54.915 -53.278  1.00  0.00    -0.309 N 
HETATM    4  O   UNL     1     -43.238  54.675 -53.352  1.00  0.00    -0.247 OA
HETATM    5  C   UNL     1     -41.301  57.697 -53.764  1.00  0.00     0.155 C 
HETATM    6  H   UNL     1     -40.219  55.462 -53.720  1.00  0.00     0.170 HD
ENDROOT
BRANCH   1   7
HETATM    7  C   UNL     1     -43.555  57.081 -54.602  1.00  0.00     0.185 C 
BRANCH   7   8
HETATM    8  C   UNL     1     -43.521  56.821 -56.059  1.00  0.00     0.047 A 
HETATM    9  N   UNL     1     -43.323  55.567 -56.565  1.00  0.00    -0.280 N 
HETATM   10  N   UNL     1     -43.299  55.530 -57.908  1.00  0.00    -0.178 NA
HETATM   11  H   UNL     1     -43.206  54.701 -56.041  1.00  0.00     0.189 HD
HETATM   12  C   UNL     1     -43.473  56.805 -58.283  1.00  0.00     0.064 A 
HETATM   13  C   UNL     1     -43.622  57.650 -57.152  1.00  0.00     0.058 A 
BRANCH  12  14
HETATM   14  C   UNL     1     -43.483  57.216 -59.748  1.00  0.00    -0.005 C 
HETATM   15  C   UNL     1     -44.218  58.555 -59.977  1.00  0.00     0.021 C 
HETATM   16  C   UNL     1     -44.192  56.134 -60.589  1.00  0.00     0.021 C 
HETATM   17  C   UNL     1     -42.037  57.375 -60.260  1.00  0.00     0.021 C 
ENDBRANCH  12  14
ENDBRANCH   7   8
ENDBRANCH   1   7
BRANCH   3  18
HETATM   18  C   UNL     1     -40.527  53.670 -52.760  1.00  0.00     0.037 A 
HETATM   19  C   UNL     1     -40.383  52.512 -53.528  1.00  0.00     0.045 A 
HETATM   20  C   UNL     1     -39.961  51.304 -52.941  1.00  0.00     0.050 A 
HETATM   21  C   UNL     1     -39.676  51.274 -51.568  1.00  0.00     0.016 A 
HETATM   22  C   UNL     1     -39.830  52.421 -50.794  1.00  0.00     0.003 A 
HETATM   23  C   UNL     1     -40.257  53.610 -51.387  1.00  0.00     0.029 A 
BRANCH  20  24
HETATM   24  C   UNL     1     -39.773  50.068 -53.783  1.00  0.00     0.417 C 
HETATM   25  F   UNL     1     -40.849  49.770 -54.564  1.00  0.00    -0.166 F 
HETATM   26  F   UNL     1     -38.711  50.173 -54.629  1.00  0.00    -0.166 F 
HETATM   27  F   UNL     1     -39.542  48.951 -53.037  1.00  0.00    -0.166 F 
ENDBRANCH  20  24
ENDBRANCH   3  18
TORSDOF 5
ENDMDL
MODEL 2
REMARK VINA RESULT:      -8.1      1.721      2.267
REMARK  5 active torsions:
REMARK  status: ('A' for Active; 'I' for Inactive)
REMARK    1  A    between atoms: C_2  and  C_3 
REMARK    2  A    between atoms: C_7  and  C_8 
REMARK    3  A    between atoms: C_8  and  N_9 
REMARK       I    between atoms: N_9  and  C_10 
REMARK       I    between atoms: C_10  and  N_11 
REMARK    4  A    between atoms: N_11  and  C_12 
REMARK    5  A    between atoms: C_14  and  C_15 
ROOT
HETATM    1  N   UNL     1     -42.068  56.289 -53.517  1.00  0.00    -0.333 N 
HETATM    2  C   UNL     1     -42.028  54.898 -53.578  1.00  0.00     0.322 C 
HETATM    3  N   UNL     1     -40.782  54.360 -53.357  1.00  0.00    -0.309 N 
HETATM    4  O   UNL     1     -43.037  54.251 -53.848  1.00  0.00    -0.247 OA
HETATM    5  C   UNL     1     -41.129  57.125 -52.777  1.00  0.00     0.155 C 
HETATM    6  H   UNL     1     -40.015  55.007 -53.444  1.00  0.00     0.170 HD
ENDROOT
BRANCH   1   7
HETATM    7  C   UNL     1     -43.220  56.962 -54.103  1.00  0.00     0.185 C 
BRANCH   7   8
HETATM    8  C   UNL     1     -42.972  57.270 -55.531  1.00  0.00     0.047 A 
HETATM    9  N   UNL     1     -42.301  58.394 -55.921  1.00  0.00    -0.280 N 
HETATM   10  N   UNL     1     -42.194  58.517 -57.255  1.00  0.00    -0.178 NA
HETATM   11  H   UNL     1     -41.888  59.107 -55.322  1.00  0.00     0.189 HD
HETATM   12  C   UNL     1     -42.830  57.443 -57.744  1.00  0.00     0.064 A 
HETATM   13  C   UNL     1     -43.331  56.629 -56.694  1.00  0.00     0.058 A 
BRANCH  12  14
HETATM   14  C   UNL     1     -42.969  57.205 -59.240  1.00  0.00    -0.005 C 
HETATM   15  C   UNL     1     -44.336  57.671 -59.785  1.00  0.00     0.021 C 
HETATM   16  C   UNL     1     -42.824  55.699 -59.544  1.00  0.00     0.021 C 
HETATM   17  C   UNL     1     -41.868  57.974 -60.000  1.00  0.00     0.021 C 
ENDBRANCH  12  14
ENDBRANCH   7   8
ENDBRANCH   1   7
BRANCH   3  18
HETATM   18  C   UNL     1     -40.421  52.997 -53.306  1.00  0.00     0.037 A 
HETATM   19  C   UNL     1     -40.245  52.278 -52.121  1.00  0.00     0.045 A 
HETATM   20  C   UNL     1     -39.889  50.916 -52.149  1.00  0.00     0.050 A 
HETATM   21  C   UNL     1     -39.718  50.280 -53.387  1.00  0.00     0.016 A 
HETATM   22  C   UNL     1     -39.880  50.993 -54.572  1.00  0.00     0.003 A 
HETATM   23  C   UNL     1     -40.224  52.344 -54.530  1.00  0.00     0.029 A 
BRANCH  20  24
HETATM   24  C   UNL     1     -39.735  50.138 -50.867  1.00  0.00     0.417 C 
HETATM   25  F   UNL     1     -38.462  49.713 -50.635  1.00  0.00    -0.166 F 
HETATM   26  F   UNL     1     -40.094  50.866 -49.773  1.00  0.00    -0.166 F 
HETATM   27  F   UNL     1     -40.508  49.016 -50.834  1.00  0.00    -0.166 F 
ENDBRANCH  20  24
ENDBRANCH   3  18
TORSDOF 5
ENDMDL
MODEL 3
REMARK VINA RESULT:      -7.7      1.198      1.631
REMARK  5 active torsions:
REMARK  status: ('A' for Active; 'I' for Inactive)
REMARK    1  A    between atoms: C_2  and  C_3 
REMARK    2  A    between atoms: C_7  and  C_8 
REMARK    3  A    between atoms: C_8  and  N_9 
REMARK       I    between atoms: N_9  and  C_10 
REMARK       I    between atoms: C_10  and  N_11 
REMARK    4  A    between atoms: N_11  and  C_12 
REMARK    5  A    between atoms: C_14  and  C_15 
ROOT
HETATM    1  N   UNL     1     -42.511  57.356 -54.067  1.00  0.00    -0.333 N 
HETATM    2  C   UNL     1     -42.436  56.099 -53.470  1.00  0.00     0.322 C 
HETATM    3  N   UNL     1     -41.164  55.581 -53.406  1.00  0.00    -0.309 N 
HETATM    4  O   UNL     1     -43.452  55.525 -53.084  1.00  0.00    -0.247 OA
HETATM    5  C   UNL     1     -41.419  58.321 -54.134  1.00  0.00     0.155 C 
HETATM    6  H   UNL     1     -40.493  56.019 -54.015  1.00  0.00     0.170 HD
ENDROOT
BRANCH   1   7
HETATM    7  C   UNL     1     -43.816  57.813 -54.526  1.00  0.00     0.185 C 
BRANCH   7   8
HETATM    8  C   UNL     1     -43.959  57.600 -55.985  1.00  0.00     0.047 A 
HETATM    9  N   UNL     1     -44.850  58.315 -56.735  1.00  0.00    -0.280 N 
HETATM   10  N   UNL     1     -44.856  57.967 -58.033  1.00  0.00    -0.178 NA
HETATM   11  H   UNL     1     -45.473  59.055 -56.416  1.00  0.00     0.189 HD
HETATM   12  C   UNL     1     -43.948  56.985 -58.123  1.00  0.00     0.064 A 
HETATM   13  C   UNL     1     -43.356  56.725 -56.859  1.00  0.00     0.058 A 
BRANCH  12  14
HETATM   14  C   UNL     1     -43.657  56.278 -59.439  1.00  0.00    -0.005 C 
HETATM   15  C   UNL     1     -44.220  54.841 -59.471  1.00  0.00     0.021 C 
HETATM   16  C   UNL     1     -42.132  56.197 -59.660  1.00  0.00     0.021 C 
HETATM   17  C   UNL     1     -44.288  57.062 -60.608  1.00  0.00     0.021 C 
ENDBRANCH  12  14
ENDBRANCH   7   8
ENDBRANCH   1   7
BRANCH   3  18
HETATM   18  C   UNL     1     -40.751  54.363 -52.825  1.00  0.00     0.037 A 
HETATM   19  C   UNL     1     -40.550  53.182 -53.545  1.00  0.00     0.045 A 
HETATM   20  C   UNL     1     -40.133  52.004 -52.896  1.00  0.00     0.050 A 
HETATM   21  C   UNL     1     -39.912  52.028 -51.512  1.00  0.00     0.016 A 
HETATM   22  C   UNL     1     -40.122  53.197 -50.786  1.00  0.00     0.003 A 
HETATM   23  C   UNL     1     -40.545  54.356 -51.440  1.00  0.00     0.029 A 
BRANCH  20  24
HETATM   24  C   UNL     1     -39.883  50.743 -53.685  1.00  0.00     0.417 C 
HETATM   25  F   UNL     1     -39.997  49.605 -52.946  1.00  0.00    -0.166 F 
HETATM   26  F   UNL     1     -40.749  50.605 -54.727  1.00  0.00    -0.166 F 
HETATM   27  F   UNL     1     -38.636  50.702 -54.233  1.00  0.00    -0.166 F 
ENDBRANCH  20  24
ENDBRANCH   3  18
TORSDOF 5
ENDMDL
MODEL 4
REMARK VINA RESULT:      -7.7      1.762      2.279
REMARK  5 active torsions:
REMARK  status: ('A' for Active; 'I' for Inactive)
REMARK    1  A    between atoms: C_2  and  C_3 
REMARK    2  A    between atoms: C_7  and  C_8 
REMARK    3  A    between atoms: C_8  and  N_9 
REMARK       I    between atoms: N_9  and  C_10 
REMARK       I    between atoms: C_10  and  N_11 
REMARK    4  A    between atoms: N_11  and  C_12 
REMARK    5  A    between atoms: C_14  and  C_15 
ROOT
HETATM    1  N   UNL     1     -42.545  56.188 -55.849  1.00  0.00    -0.333 N 
HETATM    2  C   UNL     1     -42.328  54.948 -55.249  1.00  0.00     0.322 C 
HETATM    3  N   UNL     1     -41.209  54.898 -54.450  1.00  0.00    -0.309 N 
HETATM    4  O   UNL     1     -43.075  54.000 -55.477  1.00  0.00    -0.247 OA
HETATM    5  C   UNL     1     -42.063  57.465 -55.336  1.00  0.00     0.155 C 
HETATM    6  H   UNL     1     -40.547  55.643 -54.595  1.00  0.00     0.170 HD
ENDROOT
BRANCH   1   7
HETATM    7  C   UNL     1     -43.451  56.241 -56.989  1.00  0.00     0.185 C 
BRANCH   7   8
HETATM    8  C   UNL     1     -42.973  57.223 -57.989  1.00  0.00     0.047 A 
HETATM    9  N   UNL     1     -41.965  56.930 -58.864  1.00  0.00    -0.280 N 
HETATM   10  N   UNL     1     -41.650  57.951 -59.678  1.00  0.00    -0.178 NA
HETATM   11  H   UNL     1     -41.461  56.048 -58.954  1.00  0.00     0.189 HD
HETATM   12  C   UNL     1     -42.473  58.942 -59.308  1.00  0.00     0.064 A 
HETATM   13  C   UNL     1     -43.325  58.526 -58.252  1.00  0.00     0.058 A 
BRANCH  12  14
HETATM   14  C   UNL     1     -42.429  60.312 -59.971  1.00  0.00    -0.005 C 
HETATM   15  C   UNL     1     -43.815  60.990 -60.010  1.00  0.00     0.021 C 
HETATM   16  C   UNL     1     -41.926  60.172 -61.423  1.00  0.00     0.021 C 
HETATM   17  C   UNL     1     -41.468  61.239 -59.199  1.00  0.00     0.021 C 
ENDBRANCH  12  14
ENDBRANCH   7   8
ENDBRANCH   1   7
BRANCH   3  18
HETATM   18  C   UNL     1     -40.744  53.814 -53.676  1.00  0.00     0.037 A 
HETATM   19  C   UNL     1     -40.537  52.527 -54.177  1.00  0.00     0.045 A 
HETATM   20  C   UNL     1     -40.066  51.495 -53.343  1.00  0.00     0.050 A 
HETATM   21  C   UNL     1     -39.798  51.774 -51.996  1.00  0.00     0.016 A 
HETATM   22  C   UNL     1     -40.014  53.051 -51.486  1.00  0.00     0.003 A 
HETATM   23  C   UNL     1     -40.490  54.063 -52.321  1.00  0.00     0.029 A 
BRANCH  20  24
HETATM   24  C   UNL     1     -39.811  50.117 -53.900  1.00  0.00     0.417 C 
HETATM   25  F   UNL     1     -39.633  49.165 -52.943  1.00  0.00    -0.166 F 
HETATM   26  F   UNL     1     -40.834  49.677 -54.684  1.00  0.00    -0.166 F 
HETATM   27  F   UNL     1     -38.696  50.063 -54.684  1.00  0.00    -0.166 F 
ENDBRANCH  20  24
ENDBRANCH   3  18
TORSDOF 5
ENDMDL
MODEL 5
REMARK VINA RESULT:      -7.5      2.543      4.850
REMARK  5 active torsions:
REMARK  status: ('A' for Active; 'I' for Inactive)
REMARK    1  A    between atoms: C_2  and  C_3 
REMARK    2  A    between atoms: C_7  and  C_8 
REMARK    3  A    between atoms: C_8  and  N_9 
REMARK       I    between atoms: N_9  and  C_10 
REMARK       I    between atoms: C_10  and  N_11 
REMARK    4  A    between atoms: N_11  and  C_12 
REMARK    5  A    between atoms: C_14  and  C_15 
ROOT
HETATM    1  N   UNL     1     -42.432  56.423 -54.969  1.00  0.00    -0.333 N 
HETATM    2  C   UNL     1     -41.406  55.629 -54.461  1.00  0.00     0.322 C 
HETATM    3  N   UNL     1     -41.841  54.515 -53.780  1.00  0.00    -0.309 N 
HETATM    4  O   UNL     1     -40.230  55.956 -54.599  1.00  0.00    -0.247 OA
HETATM    5  C   UNL     1     -43.775  55.956 -55.292  1.00  0.00     0.155 C 
HETATM    6  H   UNL     1     -42.807  54.538 -53.497  1.00  0.00     0.170 HD
ENDROOT
BRANCH   1   7
HETATM    7  C   UNL     1     -42.104  57.789 -55.357  1.00  0.00     0.185 C 
BRANCH   7   8
HETATM    8  C   UNL     1     -42.276  58.712 -54.211  1.00  0.00     0.047 A 
HETATM    9  N   UNL     1     -41.228  59.412 -53.684  1.00  0.00    -0.280 N 
HETATM   10  N   UNL     1     -41.571  60.178 -52.634  1.00  0.00    -0.178 NA
HETATM   11  H   UNL     1     -40.261  59.411 -54.003  1.00  0.00     0.189 HD
HETATM   12  C   UNL     1     -42.882  59.954 -52.468  1.00  0.00     0.064 A 
HETATM   13  C   UNL     1     -43.368  59.042 -53.442  1.00  0.00     0.058 A 
BRANCH  12  14
HETATM   14  C   UNL     1     -43.675  60.616 -51.351  1.00  0.00    -0.005 C 
HETATM   15  C   UNL     1     -44.846  59.738 -50.861  1.00  0.00     0.021 C 
HETATM   16  C   UNL     1     -44.260  61.954 -51.849  1.00  0.00     0.021 C 
HETATM   17  C   UNL     1     -42.753  60.894 -50.145  1.00  0.00     0.021 C 
ENDBRANCH  12  14
ENDBRANCH   7   8
ENDBRANCH   1   7
BRANCH   3  18
HETATM   18  C   UNL     1     -41.060  53.498 -53.192  1.00  0.00     0.037 A 
HETATM   19  C   UNL     1     -40.783  52.273 -53.804  1.00  0.00     0.045 A 
HETATM   20  C   UNL     1     -39.991  51.306 -53.156  1.00  0.00     0.050 A 
HETATM   21  C   UNL     1     -39.472  51.587 -51.884  1.00  0.00     0.016 A 
HETATM   22  C   UNL     1     -39.755  52.801 -51.262  1.00  0.00     0.003 A 
HETATM   23  C   UNL     1     -40.549  53.747 -51.912  1.00  0.00     0.029 A 
BRANCH  20  24
HETATM   24  C   UNL     1     -39.666  50.000 -53.837  1.00  0.00     0.417 C 
HETATM   25  F   UNL     1     -38.540  50.048 -54.601  1.00  0.00    -0.166 F 
HETATM   26  F   UNL     1     -39.477  48.985 -52.949  1.00  0.00    -0.166 F 
HETATM   27  F   UNL     1     -40.659  49.580 -54.672  1.00  0.00    -0.166 F 
ENDBRANCH  20  24
ENDBRANCH   3  18
TORSDOF 5
ENDMDL
MODEL 6
REMARK VINA RESULT:      -7.3      5.501      7.951
REMARK  5 active torsions:
REMARK  status: ('A' for Active; 'I' for Inactive)
REMARK    1  A    between atoms: C_2  and  C_3 
REMARK    2  A    between atoms: C_7  and  C_8 
REMARK    3  A    between atoms: C_8  and  N_9 
REMARK       I    between atoms: N_9  and  C_10 
REMARK       I    between atoms: C_10  and  N_11 
REMARK    4  A    between atoms: N_11  and  C_12 
REMARK    5  A    between atoms: C_14  and  C_15 
ROOT
HETATM    1  N   UNL     1     -42.762  59.582 -51.263  1.00  0.00    -0.333 N 
HETATM    2  C   UNL     1     -43.025  58.287 -51.705  1.00  0.00     0.322 C 
HETATM    3  N   UNL     1     -41.899  57.552 -51.996  1.00  0.00    -0.309 N 
HETATM    4  O   UNL     1     -44.180  57.893 -51.845  1.00  0.00    -0.247 OA
HETATM    5  C   UNL     1     -41.526  60.016 -50.620  1.00  0.00     0.155 C 
HETATM    6  H   UNL     1     -41.056  58.091 -52.117  1.00  0.00     0.170 HD
ENDROOT
BRANCH   1   7
HETATM    7  C   UNL     1     -43.853  60.547 -51.299  1.00  0.00     0.185 C 
BRANCH   7   8
HETATM    8  C   UNL     1     -44.505  60.646 -49.973  1.00  0.00     0.047 A 
HETATM    9  N   UNL     1     -45.465  59.760 -49.572  1.00  0.00    -0.280 N 
HETATM   10  N   UNL     1     -45.958  60.023 -48.350  1.00  0.00    -0.178 NA
HETATM   11  H   UNL     1     -45.817  58.955 -50.088  1.00  0.00     0.189 HD
HETATM   12  C   UNL     1     -45.306  61.124 -47.953  1.00  0.00     0.064 A 
HETATM   13  C   UNL     1     -44.378  61.547 -48.941  1.00  0.00     0.058 A 
BRANCH  12  14
HETATM   14  C   UNL     1     -45.587  61.784 -46.611  1.00  0.00    -0.005 C 
HETATM   15  C   UNL     1     -45.235  63.287 -46.611  1.00  0.00     0.021 C 
HETATM   16  C   UNL     1     -44.754  61.100 -45.508  1.00  0.00     0.021 C 
HETATM   17  C   UNL     1     -47.084  61.648 -46.261  1.00  0.00     0.021 C 
ENDBRANCH  12  14
ENDBRANCH   7   8
ENDBRANCH   1   7
BRANCH   3  18
HETATM   18  C   UNL     1     -41.825  56.208 -52.417  1.00  0.00     0.037 A 
HETATM   19  C   UNL     1     -41.070  55.226 -51.771  1.00  0.00     0.045 A 
HETATM   20  C   UNL     1     -41.050  53.901 -52.248  1.00  0.00     0.050 A 
HETATM   21  C   UNL     1     -41.805  53.572 -53.382  1.00  0.00     0.016 A 
HETATM   22  C   UNL     1     -42.549  54.547 -54.039  1.00  0.00     0.003 A 
HETATM   23  C   UNL     1     -42.554  55.858 -53.561  1.00  0.00     0.029 A 
BRANCH  20  24
HETATM   24  C   UNL     1     -40.261  52.839 -51.524  1.00  0.00     0.417 C 
HETATM   25  F   UNL     1     -39.869  51.809 -52.324  1.00  0.00    -0.166 F 
HETATM   26  F   UNL     1     -39.123  53.333 -50.961  1.00  0.00    -0.166 F 
HETATM   27  F   UNL     1     -40.960  52.267 -50.503  1.00  0.00    -0.166 F 
ENDBRANCH  20  24
ENDBRANCH   3  18
TORSDOF 5
ENDMDL
MODEL 7
REMARK VINA RESULT:      -7.1      2.086      2.762
REMARK  5 active torsions:
REMARK  status: ('A' for Active; 'I' for Inactive)
REMARK    1  A    between atoms: C_2  and  C_3 
REMARK    2  A    between atoms: C_7  and  C_8 
REMARK    3  A    between atoms: C_8  and  N_9 
REMARK       I    between atoms: N_9  and  C_10 
REMARK       I    between atoms: C_10  and  N_11 
REMARK    4  A    between atoms: N_11  and  C_12 
REMARK    5  A    between atoms: C_14  and  C_15 
ROOT
HETATM    1  N   UNL     1     -42.724  57.825 -51.508  1.00  0.00    -0.333 N 
HETATM    2  C   UNL     1     -42.616  56.438 -51.584  1.00  0.00     0.322 C 
HETATM    3  N   UNL     1     -41.320  55.975 -51.623  1.00  0.00    -0.309 N 
HETATM    4  O   UNL     1     -43.619  55.731 -51.650  1.00  0.00    -0.247 OA
HETATM    5  C   UNL     1     -41.706  58.719 -50.969  1.00  0.00     0.155 C 
HETATM    6  H   UNL     1     -40.627  56.666 -51.859  1.00  0.00     0.170 HD
ENDROOT
BRANCH   1   7
HETATM    7  C   UNL     1     -44.008  58.425 -51.846  1.00  0.00     0.185 C 
BRANCH   7   8
HETATM    8  C   UNL     1     -44.256  58.338 -53.304  1.00  0.00     0.047 A 
HETATM    9  N   UNL     1     -45.165  57.465 -53.831  1.00  0.00    -0.280 N 
HETATM   10  N   UNL     1     -45.235  57.511 -55.172  1.00  0.00    -0.178 NA
HETATM   11  H   UNL     1     -45.770  56.821 -53.324  1.00  0.00     0.189 HD
HETATM   12  C   UNL     1     -44.330  58.435 -55.525  1.00  0.00     0.064 A 
HETATM   13  C   UNL     1     -43.695  58.984 -54.381  1.00  0.00     0.058 A 
BRANCH  12  14
HETATM   14  C   UNL     1     -44.065  58.783 -56.982  1.00  0.00    -0.005 C 
HETATM   15  C   UNL     1     -44.535  57.673 -57.947  1.00  0.00     0.021 C 
HETATM   16  C   UNL     1     -42.552  58.995 -57.201  1.00  0.00     0.021 C 
HETATM   17  C   UNL     1     -44.808  60.082 -57.356  1.00  0.00     0.021 C 
ENDBRANCH  12  14
ENDBRANCH   7   8
ENDBRANCH   1   7
BRANCH   3  18
HETATM   18  C   UNL     1     -40.878  54.636 -51.654  1.00  0.00     0.037 A 
HETATM   19  C   UNL     1     -40.724  53.891 -52.825  1.00  0.00     0.045 A 
HETATM   20  C   UNL     1     -40.272  52.558 -52.778  1.00  0.00     0.050 A 
HETATM   21  C   UNL     1     -39.969  51.983 -51.536  1.00  0.00     0.016 A 
HETATM   22  C   UNL     1     -40.131  52.715 -50.363  1.00  0.00     0.003 A 
HETATM   23  C   UNL     1     -40.588  54.033 -50.424  1.00  0.00     0.029 A 
BRANCH  20  24
HETATM   24  C   UNL     1     -40.075  51.771 -54.049  1.00  0.00     0.417 C 
HETATM   25  F   UNL     1     -39.981  52.548 -55.164  1.00  0.00    -0.166 F 
HETATM   26  F   UNL     1     -38.942  51.016 -54.020  1.00  0.00    -0.166 F 
HETATM   27  F   UNL     1     -41.094  50.899 -54.293  1.00  0.00    -0.166 F 
ENDBRANCH  20  24
ENDBRANCH   3  18
TORSDOF 5
ENDMDL
MODEL 8
REMARK VINA RESULT:      -7.1      3.147      5.206
REMARK  5 active torsions:
REMARK  status: ('A' for Active; 'I' for Inactive)
REMARK    1  A    between atoms: C_2  and  C_3 
REMARK    2  A    between atoms: C_7  and  C_8 
REMARK    3  A    between atoms: C_8  and  N_9 
REMARK       I    between atoms: N_9  and  C_10 
REMARK       I    between atoms: C_10  and  N_11 
REMARK    4  A    between atoms: N_11  and  C_12 
REMARK    5  A    between atoms: C_14  and  C_15 
ROOT
HETATM    1  N   UNL     1     -42.163  56.227 -55.752  1.00  0.00    -0.333 N 
HETATM    2  C   UNL     1     -41.367  55.731 -54.721  1.00  0.00     0.322 C 
HETATM    3  N   UNL     1     -41.679  54.448 -54.336  1.00  0.00    -0.309 N 
HETATM    4  O   UNL     1     -40.498  56.431 -54.205  1.00  0.00    -0.247 OA
HETATM    5  C   UNL     1     -42.866  55.413 -56.737  1.00  0.00     0.155 C 
HETATM    6  H   UNL     1     -42.584  54.121 -54.634  1.00  0.00     0.170 HD
ENDROOT
BRANCH   1   7
HETATM    7  C   UNL     1     -42.176  57.668 -55.966  1.00  0.00     0.185 C 
BRANCH   7   8
HETATM    8  C   UNL     1     -42.667  58.370 -54.758  1.00  0.00     0.047 A 
HETATM    9  N   UNL     1     -41.924  59.326 -54.126  1.00  0.00    -0.280 N 
HETATM   10  N   UNL     1     -42.522  59.833 -53.034  1.00  0.00    -0.178 NA
HETATM   11  H   UNL     1     -41.008  59.677 -54.399  1.00  0.00     0.189 HD
HETATM   12  C   UNL     1     -43.685  59.172 -52.950  1.00  0.00     0.064 A 
HETATM   13  C   UNL     1     -43.820  58.245 -54.016  1.00  0.00     0.058 A 
BRANCH  12  14
HETATM   14  C   UNL     1     -44.673  59.425 -51.820  1.00  0.00    -0.005 C 
HETATM   15  C   UNL     1     -45.921  60.200 -52.295  1.00  0.00     0.021 C 
HETATM   16  C   UNL     1     -43.993  60.252 -50.709  1.00  0.00     0.021 C 
HETATM   17  C   UNL     1     -45.145  58.084 -51.223  1.00  0.00     0.021 C 
ENDBRANCH  12  14
ENDBRANCH   7   8
ENDBRANCH   1   7
BRANCH   3  18
HETATM   18  C   UNL     1     -41.038  53.654 -53.362  1.00  0.00     0.037 A 
HETATM   19  C   UNL     1     -41.048  53.935 -51.994  1.00  0.00     0.045 A 
HETATM   20  C   UNL     1     -40.387  53.092 -51.080  1.00  0.00     0.050 A 
HETATM   21  C   UNL     1     -39.720  51.955 -51.557  1.00  0.00     0.016 A 
HETATM   22  C   UNL     1     -39.695  51.676 -52.921  1.00  0.00     0.003 A 
HETATM   23  C   UNL     1     -40.346  52.524 -53.817  1.00  0.00     0.029 A 
BRANCH  20  24
HETATM   24  C   UNL     1     -40.433  53.382 -49.601  1.00  0.00     0.417 C 
HETATM   25  F   UNL     1     -40.480  52.263 -48.825  1.00  0.00    -0.166 F 
HETATM   26  F   UNL     1     -39.348  54.088 -49.178  1.00  0.00    -0.166 F 
HETATM   27  F   UNL     1     -41.519  54.123 -49.241  1.00  0.00    -0.166 F 
ENDBRANCH  20  24
ENDBRANCH   3  18
TORSDOF 5
ENDMDL
MODEL 9
REMARK VINA RESULT:      -7.0      5.937      8.209
REMARK  5 active torsions:
REMARK  status: ('A' for Active; 'I' for Inactive)
REMARK    1  A    between atoms: C_2  and  C_3 
REMARK    2  A    between atoms: C_7  and  C_8 
REMARK    3  A    between atoms: C_8  and  N_9 
REMARK       I    between atoms: N_9  and  C_10 
REMARK       I    between atoms: C_10  and  N_11 
REMARK    4  A    between atoms: N_11  and  C_12 
REMARK    5  A    between atoms: C_14  and  C_15 
ROOT
HETATM    1  N   UNL     1     -44.328  59.243 -51.686  1.00  0.00    -0.333 N 
HETATM    2  C   UNL     1     -44.086  57.907 -51.373  1.00  0.00     0.322 C 
HETATM    3  N   UNL     1     -42.886  57.427 -51.844  1.00  0.00    -0.309 N 
HETATM    4  O   UNL     1     -44.920  57.243 -50.763  1.00  0.00    -0.247 OA
HETATM    5  C   UNL     1     -43.301  60.241 -51.962  1.00  0.00     0.155 C 
HETATM    6  H   UNL     1     -42.456  57.984 -52.565  1.00  0.00     0.170 HD
ENDROOT
BRANCH   1   7
HETATM    7  C   UNL     1     -45.698  59.728 -51.579  1.00  0.00     0.185 C 
BRANCH   7   8
HETATM    8  C   UNL     1     -45.841  60.635 -50.416  1.00  0.00     0.047 A 
HETATM    9  N   UNL     1     -46.311  61.910 -50.549  1.00  0.00    -0.280 N 
HETATM   10  N   UNL     1     -46.347  62.590 -49.390  1.00  0.00    -0.178 NA
HETATM   11  H   UNL     1     -46.629  62.367 -51.402  1.00  0.00     0.189 HD
HETATM   12  C   UNL     1     -45.870  61.729 -48.480  1.00  0.00     0.064 A 
HETATM   13  C   UNL     1     -45.543  60.486 -49.081  1.00  0.00     0.058 A 
BRANCH  12  14
HETATM   14  C   UNL     1     -45.713  62.113 -47.016  1.00  0.00    -0.005 C 
HETATM   15  C   UNL     1     -44.814  61.125 -46.242  1.00  0.00     0.021 C 
HETATM   16  C   UNL     1     -47.096  62.135 -46.332  1.00  0.00     0.021 C 
HETATM   17  C   UNL     1     -45.081  63.516 -46.904  1.00  0.00     0.021 C 
ENDBRANCH  12  14
ENDBRANCH   7   8
ENDBRANCH   1   7
BRANCH   3  18
HETATM   18  C   UNL     1     -42.332  56.143 -51.658  1.00  0.00     0.037 A 
HETATM   19  C   UNL     1     -41.587  55.768 -50.537  1.00  0.00     0.045 A 
HETATM   20  C   UNL     1     -41.068  54.464 -50.419  1.00  0.00     0.050 A 
HETATM   21  C   UNL     1     -41.314  53.536 -51.441  1.00  0.00     0.016 A 
HETATM   22  C   UNL     1     -42.044  53.907 -52.567  1.00  0.00     0.003 A 
HETATM   23  C   UNL     1     -42.545  55.205 -52.675  1.00  0.00     0.029 A 
BRANCH  20  24
HETATM   24  C   UNL     1     -40.296  54.056 -49.191  1.00  0.00     0.417 C 
HETATM   25  F   UNL     1     -40.394  52.729 -48.899  1.00  0.00    -0.166 F 
HETATM   26  F   UNL     1     -38.964  54.319 -49.304  1.00  0.00    -0.166 F 
HETATM   27  F   UNL     1     -40.707  54.710 -48.067  1.00  0.00    -0.166 F 
ENDBRANCH  20  24
ENDBRANCH   3  18
TORSDOF 5
ENDMDL
MODEL 10
REMARK VINA RESULT:      -6.9      2.649      3.296
REMARK  5 active torsions:
REMARK  status: ('A' for Active; 'I' for Inactive)
REMARK    1  A    between atoms: C_2  and  C_3 
REMARK    2  A    between atoms: C_7  and  C_8 
REMARK    3  A    between atoms: C_8  and  N_9 
REMARK       I    between atoms: N_9  and  C_10 
REMARK       I    between atoms: C_10  and  N_11 
REMARK    4  A    between atoms: N_11  and  C_12 
REMARK    5  A    between atoms: C_14  and  C_15 
ROOT
HETATM    1  N   UNL     1     -43.130  55.706 -55.405  1.00  0.00    -0.333 N 
HETATM    2  C   UNL     1     -42.381  55.374 -54.278  1.00  0.00     0.322 C 
HETATM    3  N   UNL     1     -42.018  54.048 -54.213  1.00  0.00    -0.309 N 
HETATM    4  O   UNL     1     -42.124  56.217 -53.423  1.00  0.00    -0.247 OA
HETATM    5  C   UNL     1     -43.108  54.982 -56.672  1.00  0.00     0.155 C 
HETATM    6  H   UNL     1     -42.541  53.432 -54.815  1.00  0.00     0.170 HD
ENDROOT
BRANCH   1   7
HETATM    7  C   UNL     1     -43.876  56.957 -55.380  1.00  0.00     0.185 C 
BRANCH   7   8
HETATM    8  C   UNL     1     -43.877  57.590 -56.719  1.00  0.00     0.047 A 
HETATM    9  N   UNL     1     -44.989  57.600 -57.512  1.00  0.00    -0.280 N 
HETATM   10  N   UNL     1     -44.793  58.197 -58.700  1.00  0.00    -0.178 NA
HETATM   11  H   UNL     1     -45.910  57.223 -57.292  1.00  0.00     0.189 HD
HETATM   12  C   UNL     1     -43.507  58.572 -58.681  1.00  0.00     0.064 A 
HETATM   13  C   UNL     1     -42.894  58.214 -57.452  1.00  0.00     0.058 A 
BRANCH  12  14
HETATM   14  C   UNL     1     -42.856  59.271 -59.865  1.00  0.00    -0.005 C 
HETATM   15  C   UNL     1     -43.886  59.706 -60.929  1.00  0.00     0.021 C 
HETATM   16  C   UNL     1     -41.846  58.322 -60.541  1.00  0.00     0.021 C 
HETATM   17  C   UNL     1     -42.108  60.533 -59.385  1.00  0.00     0.021 C 
ENDBRANCH  12  14
ENDBRANCH   7   8
ENDBRANCH   1   7
BRANCH   3  18
HETATM   18  C   UNL     1     -41.228  53.411 -53.233  1.00  0.00     0.037 A 
HETATM   19  C   UNL     1     -41.220  53.768 -51.883  1.00  0.00     0.045 A 
HETATM   20  C   UNL     1     -40.406  53.082 -50.960  1.00  0.00     0.050 A 
HETATM   21  C   UNL     1     -39.603  52.026 -51.412  1.00  0.00     0.016 A 
HETATM   22  C   UNL     1     -39.596  51.673 -52.758  1.00  0.00     0.003 A 
HETATM   23  C   UNL     1     -40.401  52.366 -53.663  1.00  0.00     0.029 A 
BRANCH  20  24
HETATM   24  C   UNL     1     -40.429  53.450 -49.498  1.00  0.00     0.417 C 
HETATM   25  F   UNL     1     -40.530  52.376 -48.666  1.00  0.00    -0.166 F 
HETATM   26  F   UNL     1     -39.307  54.120 -49.115  1.00  0.00    -0.166 F 
HETATM   27  F   UNL     1     -41.474  54.264 -49.175  1.00  0.00    -0.166 F 
ENDBRANCH  20  24
ENDBRANCH   3  18
TORSDOF 5
ENDMDL
