MODEL 1
REMARK VINA RESULT:      -8.5      0.000      0.000
REMARK  5 active torsions:
REMARK  status: ('A' for Active; 'I' for Inactive)
REMARK    1  A    between atoms: C_2  and  N_3 
REMARK       I    between atoms: N_3  and  C_4 
REMARK       I    between atoms: C_4  and  N_5 
REMARK    2  A    between atoms: N_5  and  C_6 
REMARK    3  A    between atoms: C_9  and  C_10 
REMARK    4  A    between atoms: C_10  and  C_11 
REMARK       I    between atoms: C_11  and  N_12 
REMARK    5  A    between atoms: N_12  and  C_13 
ROOT
HETATM    1  C   UNL     1     -42.472  58.086 -53.308  1.00  0.00     0.174 A 
HETATM    2  S   UNL     1     -41.984  59.622 -52.752  1.00  0.00    -0.062 SA
HETATM    3  C   UNL     1     -41.524  58.911 -51.257  1.00  0.00     0.081 A 
HETATM    4  C   UNL     1     -41.755  57.546 -51.290  1.00  0.00     0.052 A 
HETATM    5  N   UNL     1     -42.299  57.086 -52.483  1.00  0.00    -0.228 NA
ENDROOT
BRANCH   1   6
HETATM    6  N   UNL     1     -42.968  58.070 -54.580  1.00  0.00    -0.287 N 
HETATM    7  C   UNL     1     -44.148  57.463 -54.881  1.00  0.00     0.326 C 
HETATM    8  N   UNL     1     -44.493  57.417 -56.205  1.00  0.00    -0.309 N 
HETATM    9  O   UNL     1     -44.962  57.034 -54.065  1.00  0.00    -0.247 OA
HETATM   10  H   UNL     1     -45.478  57.207 -56.320  1.00  0.00     0.170 HD
HETATM   11  H   UNL     1     -42.576  58.724 -55.237  1.00  0.00     0.172 HD
BRANCH   8  12
HETATM   12  C   UNL     1     -43.722  57.472 -57.379  1.00  0.00     0.036 A 
HETATM   13  C   UNL     1     -43.337  56.348 -58.116  1.00  0.00     0.032 A 
HETATM   14  C   UNL     1     -42.606  56.498 -59.299  1.00  0.00     0.044 A 
HETATM   15  C   UNL     1     -42.272  57.770 -59.748  1.00  0.00     0.116 A 
HETATM   16  C   UNL     1     -42.666  58.898 -59.042  1.00  0.00     0.044 A 
HETATM   17  F   UNL     1     -41.579  57.909 -60.885  1.00  0.00    -0.206 F 
HETATM   18  C   UNL     1     -43.399  58.749 -57.863  1.00  0.00     0.032 A 
ENDBRANCH   8  12
ENDBRANCH   1   6
BRANCH   4  19
HETATM   19  C   UNL     1     -41.436  56.552 -50.223  1.00  0.00     0.163 C 
BRANCH  19  20
HETATM   20  C   UNL     1     -41.506  55.100 -50.673  1.00  0.00     0.227 C 
HETATM   21  N   UNL     1     -40.685  54.785 -51.741  1.00  0.00    -0.327 N 
HETATM   22  H   UNL     1     -40.278  55.583 -52.239  1.00  0.00     0.169 HD
HETATM   23  O   UNL     1     -42.198  54.300 -50.044  1.00  0.00    -0.273 OA
BRANCH  21  24
HETATM   24  C   UNL     1     -40.411  53.511 -52.274  1.00  0.00     0.036 A 
HETATM   25  C   UNL     1     -40.015  52.411 -51.510  1.00  0.00     0.055 A 
HETATM   26  C   UNL     1     -39.730  51.183 -52.123  1.00  0.00     0.058 A 
HETATM   27 CL   UNL     1     -39.227  49.874 -51.111  1.00  0.00    -0.082 Cl
HETATM   28  C   UNL     1     -39.847  51.047 -53.510  1.00  0.00     0.055 A 
HETATM   29 CL   UNL     1     -39.512  49.565 -54.334  1.00  0.00    -0.083 Cl
HETATM   30  C   UNL     1     -40.243  52.141 -54.278  1.00  0.00     0.028 A 
HETATM   31  C   UNL     1     -40.517  53.365 -53.662  1.00  0.00     0.031 A 
ENDBRANCH  21  24
ENDBRANCH  19  20
ENDBRANCH   4  19
TORSDOF 5
ENDMDL
MODEL 2
REMARK VINA RESULT:      -8.5      4.032      7.639
REMARK  5 active torsions:
REMARK  status: ('A' for Active; 'I' for Inactive)
REMARK    1  A    between atoms: C_2  and  N_3 
REMARK       I    between atoms: N_3  and  C_4 
REMARK       I    between atoms: C_4  and  N_5 
REMARK    2  A    between atoms: N_5  and  C_6 
REMARK    3  A    between atoms: C_9  and  C_10 
REMARK    4  A    between atoms: C_10  and  C_11 
REMARK       I    between atoms: C_11  and  N_12 
REMARK    5  A    between atoms: N_12  and  C_13 
ROOT
HETATM    1  C   UNL     1     -41.960  55.739 -51.864  1.00  0.00     0.174 A 
HETATM    2  S   UNL     1     -43.339  56.028 -50.904  1.00  0.00    -0.062 SA
HETATM    3  C   UNL     1     -43.423  57.621 -51.542  1.00  0.00     0.081 A 
HETATM    4  C   UNL     1     -42.406  57.819 -52.460  1.00  0.00     0.052 A 
HETATM    5  N   UNL     1     -41.573  56.722 -52.637  1.00  0.00    -0.228 NA
ENDROOT
BRANCH   1   6
HETATM    6  N   UNL     1     -41.427  54.489 -51.737  1.00  0.00    -0.287 N 
HETATM    7  C   UNL     1     -40.441  54.218 -50.839  1.00  0.00     0.326 C 
HETATM    8  N   UNL     1     -39.909  52.957 -50.875  1.00  0.00    -0.309 N 
HETATM    9  O   UNL     1     -40.053  54.975 -49.950  1.00  0.00    -0.247 OA
HETATM   10  H   UNL     1     -39.397  52.752 -50.025  1.00  0.00     0.170 HD
HETATM   11  H   UNL     1     -41.943  53.724 -52.138  1.00  0.00     0.172 HD
BRANCH   8  12
HETATM   12  C   UNL     1     -39.840  51.996 -51.897  1.00  0.00     0.036 A 
HETATM   13  C   UNL     1     -39.606  50.635 -51.677  1.00  0.00     0.032 A 
HETATM   14  C   UNL     1     -39.597  49.739 -52.751  1.00  0.00     0.044 A 
HETATM   15  C   UNL     1     -39.832  50.203 -54.040  1.00  0.00     0.116 A 
HETATM   16  C   UNL     1     -40.089  51.546 -54.274  1.00  0.00     0.044 A 
HETATM   17  F   UNL     1     -39.830  49.341 -55.064  1.00  0.00    -0.206 F 
HETATM   18  C   UNL     1     -40.102  52.441 -53.202  1.00  0.00     0.032 A 
ENDBRANCH   8  12
ENDBRANCH   1   6
BRANCH   4  19
HETATM   19  C   UNL     1     -42.163  59.039 -53.286  1.00  0.00     0.163 C 
BRANCH  19  20
HETATM   20  C   UNL     1     -42.243  58.808 -54.789  1.00  0.00     0.227 C 
HETATM   21  N   UNL     1     -43.043  57.745 -55.168  1.00  0.00    -0.327 N 
HETATM   22  H   UNL     1     -43.329  57.112 -54.414  1.00  0.00     0.169 HD
HETATM   23  O   UNL     1     -41.681  59.589 -55.555  1.00  0.00    -0.273 OA
BRANCH  21  24
HETATM   24  C   UNL     1     -43.441  57.385 -56.470  1.00  0.00     0.036 A 
HETATM   25  C   UNL     1     -44.457  58.024 -57.184  1.00  0.00     0.055 A 
HETATM   26  C   UNL     1     -44.813  57.583 -58.466  1.00  0.00     0.058 A 
HETATM   27 CL   UNL     1     -46.095  58.413 -59.278  1.00  0.00    -0.082 Cl
HETATM   28  C   UNL     1     -44.147  56.498 -59.046  1.00  0.00     0.055 A 
HETATM   29 CL   UNL     1     -44.533  55.899 -60.620  1.00  0.00    -0.083 Cl
HETATM   30  C   UNL     1     -43.131  55.856 -58.339  1.00  0.00     0.028 A 
HETATM   31  C   UNL     1     -42.786  56.295 -57.057  1.00  0.00     0.031 A 
ENDBRANCH  21  24
ENDBRANCH  19  20
ENDBRANCH   4  19
TORSDOF 5
ENDMDL
MODEL 3
REMARK VINA RESULT:      -8.5      3.798      7.599
REMARK  5 active torsions:
REMARK  status: ('A' for Active; 'I' for Inactive)
REMARK    1  A    between atoms: C_2  and  N_3 
REMARK       I    between atoms: N_3  and  C_4 
REMARK       I    between atoms: C_4  and  N_5 
REMARK    2  A    between atoms: N_5  and  C_6 
REMARK    3  A    between atoms: C_9  and  C_10 
REMARK    4  A    between atoms: C_10  and  C_11 
REMARK       I    between atoms: C_11  and  N_12 
REMARK    5  A    between atoms: N_12  and  C_13 
ROOT
HETATM    1  C   UNL     1     -42.224  55.592 -51.573  1.00  0.00     0.174 A 
HETATM    2  S   UNL     1     -43.740  55.619 -50.794  1.00  0.00    -0.062 SA
HETATM    3  C   UNL     1     -43.873  57.293 -51.155  1.00  0.00     0.081 A 
HETATM    4  C   UNL     1     -42.760  57.715 -51.863  1.00  0.00     0.052 A 
HETATM    5  N   UNL     1     -41.820  56.720 -52.099  1.00  0.00    -0.228 NA
ENDROOT
BRANCH   1   6
HETATM    6  N   UNL     1     -41.608  54.375 -51.585  1.00  0.00    -0.287 N 
HETATM    7  C   UNL     1     -40.503  54.123 -50.831  1.00  0.00     0.326 C 
HETATM    8  N   UNL     1     -39.909  52.902 -51.004  1.00  0.00    -0.309 N 
HETATM    9  O   UNL     1     -40.051  54.858 -49.954  1.00  0.00    -0.247 OA
HETATM   10  H   UNL     1     -39.283  52.688 -50.236  1.00  0.00     0.170 HD
HETATM   11  H   UNL     1     -42.126  53.598 -51.962  1.00  0.00     0.172 HD
BRANCH   8  12
HETATM   12  C   UNL     1     -39.913  51.999 -52.080  1.00  0.00     0.036 A 
HETATM   13  C   UNL     1     -40.118  52.371 -53.413  1.00  0.00     0.032 A 
HETATM   14  C   UNL     1     -40.062  51.411 -54.429  1.00  0.00     0.044 A 
HETATM   15  C   UNL     1     -39.790  50.085 -54.112  1.00  0.00     0.116 A 
HETATM   16  C   UNL     1     -39.562  49.702 -52.798  1.00  0.00     0.044 A 
HETATM   17  F   UNL     1     -39.731  49.171 -55.089  1.00  0.00    -0.206 F 
HETATM   18  C   UNL     1     -39.614  50.661 -51.784  1.00  0.00     0.032 A 
ENDBRANCH   8  12
ENDBRANCH   1   6
BRANCH   4  19
HETATM   19  C   UNL     1     -42.512  59.077 -52.422  1.00  0.00     0.163 C 
BRANCH  19  20
HETATM   20  C   UNL     1     -41.949  59.084 -53.837  1.00  0.00     0.227 C 
HETATM   21  N   UNL     1     -42.725  58.423 -54.771  1.00  0.00    -0.327 N 
HETATM   22  H   UNL     1     -43.476  57.837 -54.392  1.00  0.00     0.169 HD
HETATM   23  O   UNL     1     -40.920  59.714 -54.079  1.00  0.00    -0.273 OA
BRANCH  21  24
HETATM   24  C   UNL     1     -42.557  58.394 -56.169  1.00  0.00     0.036 A 
HETATM   25  C   UNL     1     -42.749  57.258 -56.957  1.00  0.00     0.055 A 
HETATM   26  C   UNL     1     -42.530  57.305 -58.341  1.00  0.00     0.058 A 
HETATM   27 CL   UNL     1     -42.769  55.850 -59.246  1.00  0.00    -0.082 Cl
HETATM   28  C   UNL     1     -42.123  58.498 -58.948  1.00  0.00     0.055 A 
HETATM   29 CL   UNL     1     -41.834  58.630 -60.647  1.00  0.00    -0.083 Cl
HETATM   30  C   UNL     1     -41.931  59.636 -58.167  1.00  0.00     0.028 A 
HETATM   31  C   UNL     1     -42.142  59.581 -56.785  1.00  0.00     0.031 A 
ENDBRANCH  21  24
ENDBRANCH  19  20
ENDBRANCH   4  19
TORSDOF 5
ENDMDL
MODEL 4
REMARK VINA RESULT:      -8.1      2.542      3.125
REMARK  5 active torsions:
REMARK  status: ('A' for Active; 'I' for Inactive)
REMARK    1  A    between atoms: C_2  and  N_3 
REMARK       I    between atoms: N_3  and  C_4 
REMARK       I    between atoms: C_4  and  N_5 
REMARK    2  A    between atoms: N_5  and  C_6 
REMARK    3  A    between atoms: C_9  and  C_10 
REMARK    4  A    between atoms: C_10  and  C_11 
REMARK       I    between atoms: C_11  and  N_12 
REMARK    5  A    between atoms: N_12  and  C_13 
ROOT
HETATM    1  C   UNL     1     -44.093  57.503 -55.172  1.00  0.00     0.174 A 
HETATM    2  S   UNL     1     -45.076  58.832 -54.752  1.00  0.00    -0.062 SA
HETATM    3  C   UNL     1     -44.523  58.700 -53.131  1.00  0.00     0.081 A 
HETATM    4  C   UNL     1     -43.611  57.664 -53.023  1.00  0.00     0.052 A 
HETATM    5  N   UNL     1     -43.371  56.987 -54.211  1.00  0.00    -0.228 NA
ENDROOT
BRANCH   1   6
HETATM    6  N   UNL     1     -44.149  57.144 -56.488  1.00  0.00    -0.287 N 
HETATM    7  C   UNL     1     -43.200  57.537 -57.380  1.00  0.00     0.326 C 
HETATM    8  N   UNL     1     -43.416  57.206 -58.690  1.00  0.00    -0.309 N 
HETATM    9  O   UNL     1     -42.133  58.081 -57.098  1.00  0.00    -0.247 OA
HETATM   10  H   UNL     1     -42.564  57.284 -59.233  1.00  0.00     0.170 HD
HETATM   11  H   UNL     1     -44.761  56.383 -56.733  1.00  0.00     0.172 HD
BRANCH   8  12
HETATM   12  C   UNL     1     -44.593  56.924 -59.406  1.00  0.00     0.036 A 
HETATM   13  C   UNL     1     -44.916  55.662 -59.913  1.00  0.00     0.032 A 
HETATM   14  C   UNL     1     -46.131  55.460 -60.576  1.00  0.00     0.044 A 
HETATM   15  C   UNL     1     -47.023  56.516 -60.721  1.00  0.00     0.116 A 
HETATM   16  C   UNL     1     -46.729  57.769 -60.204  1.00  0.00     0.044 A 
HETATM   17  F   UNL     1     -48.188  56.315 -61.350  1.00  0.00    -0.206 F 
HETATM   18  C   UNL     1     -45.518  57.971 -59.538  1.00  0.00     0.032 A 
ENDBRANCH   8  12
ENDBRANCH   1   6
BRANCH   4  19
HETATM   19  C   UNL     1     -42.849  57.258 -51.805  1.00  0.00     0.163 C 
BRANCH  19  20
HETATM   20  C   UNL     1     -42.640  55.757 -51.664  1.00  0.00     0.227 C 
HETATM   21  N   UNL     1     -41.416  55.299 -52.117  1.00  0.00    -0.327 N 
HETATM   22  H   UNL     1     -40.870  55.964 -52.674  1.00  0.00     0.169 HD
HETATM   23  O   UNL     1     -43.499  55.072 -51.109  1.00  0.00    -0.273 OA
BRANCH  21  24
HETATM   24  C   UNL     1     -40.870  54.008 -51.976  1.00  0.00     0.036 A 
HETATM   25  C   UNL     1     -40.525  53.183 -53.048  1.00  0.00     0.055 A 
HETATM   26  C   UNL     1     -40.015  51.896 -52.821  1.00  0.00     0.058 A 
HETATM   27 CL   UNL     1     -39.630  50.927 -54.201  1.00  0.00    -0.082 Cl
HETATM   28  C   UNL     1     -39.840  51.430 -51.514  1.00  0.00     0.055 A 
HETATM   29 CL   UNL     1     -39.218  49.857 -51.159  1.00  0.00    -0.083 Cl
HETATM   30  C   UNL     1     -40.182  52.250 -50.439  1.00  0.00     0.028 A 
HETATM   31  C   UNL     1     -40.699  53.529 -50.672  1.00  0.00     0.031 A 
ENDBRANCH  21  24
ENDBRANCH  19  20
ENDBRANCH   4  19
TORSDOF 5
ENDMDL
MODEL 5
REMARK VINA RESULT:      -8.0      3.702      6.103
REMARK  5 active torsions:
REMARK  status: ('A' for Active; 'I' for Inactive)
REMARK    1  A    between atoms: C_2  and  N_3 
REMARK       I    between atoms: N_3  and  C_4 
REMARK       I    between atoms: C_4  and  N_5 
REMARK    2  A    between atoms: N_5  and  C_6 
REMARK    3  A    between atoms: C_9  and  C_10 
REMARK    4  A    between atoms: C_10  and  C_11 
REMARK       I    between atoms: C_11  and  N_12 
REMARK    5  A    between atoms: N_12  and  C_13 
ROOT
HETATM    1  C   UNL     1     -42.489  58.971 -55.270  1.00  0.00     0.174 A 
HETATM    2  S   UNL     1     -42.206  59.974 -56.619  1.00  0.00    -0.062 SA
HETATM    3  C   UNL     1     -42.248  58.588 -57.633  1.00  0.00     0.081 A 
HETATM    4  C   UNL     1     -42.496  57.455 -56.877  1.00  0.00     0.052 A 
HETATM    5  N   UNL     1     -42.636  57.694 -55.516  1.00  0.00    -0.228 NA
ENDROOT
BRANCH   1   6
HETATM    6  N   UNL     1     -42.560  59.625 -54.075  1.00  0.00    -0.287 N 
HETATM    7  C   UNL     1     -41.525  59.617 -53.190  1.00  0.00     0.326 C 
HETATM    8  N   UNL     1     -41.749  60.217 -51.981  1.00  0.00    -0.309 N 
HETATM    9  O   UNL     1     -40.392  59.196 -53.417  1.00  0.00    -0.247 OA
HETATM   10  H   UNL     1     -40.877  60.409 -51.501  1.00  0.00     0.170 HD
HETATM   11  H   UNL     1     -43.284  60.316 -53.968  1.00  0.00     0.172 HD
BRANCH   8  12
HETATM   12  C   UNL     1     -42.930  60.475 -51.264  1.00  0.00     0.036 A 
HETATM   13  C   UNL     1     -43.991  59.571 -51.154  1.00  0.00     0.032 A 
HETATM   14  C   UNL     1     -45.113  59.892 -50.382  1.00  0.00     0.044 A 
HETATM   15  C   UNL     1     -45.165  61.110 -49.713  1.00  0.00     0.116 A 
HETATM   16  C   UNL     1     -44.111  62.008 -49.792  1.00  0.00     0.044 A 
HETATM   17  F   UNL     1     -46.238  61.410 -48.970  1.00  0.00    -0.206 F 
HETATM   18  C   UNL     1     -42.989  61.686 -50.559  1.00  0.00     0.032 A 
ENDBRANCH   8  12
ENDBRANCH   1   6
BRANCH   4  19
HETATM   19  C   UNL     1     -42.673  56.059 -57.377  1.00  0.00     0.163 C 
BRANCH  19  20
HETATM   20  C   UNL     1     -42.542  54.985 -56.307  1.00  0.00     0.227 C 
HETATM   21  N   UNL     1     -41.313  54.947 -55.673  1.00  0.00    -0.327 N 
HETATM   22  H   UNL     1     -40.567  55.494 -56.116  1.00  0.00     0.169 HD
HETATM   23  O   UNL     1     -43.516  54.289 -56.020  1.00  0.00    -0.273 OA
BRANCH  21  24
HETATM   24  C   UNL     1     -40.944  54.186 -54.547  1.00  0.00     0.036 A 
HETATM   25  C   UNL     1     -41.017  54.648 -53.232  1.00  0.00     0.055 A 
HETATM   26  C   UNL     1     -40.600  53.836 -52.167  1.00  0.00     0.058 A 
HETATM   27 CL   UNL     1     -40.701  54.488 -50.568  1.00  0.00    -0.082 Cl
HETATM   28  C   UNL     1     -40.113  52.548 -52.415  1.00  0.00     0.055 A 
HETATM   29 CL   UNL     1     -39.581  51.493 -51.154  1.00  0.00    -0.083 Cl
HETATM   30  C   UNL     1     -40.039  52.081 -53.726  1.00  0.00     0.028 A 
HETATM   31  C   UNL     1     -40.448  52.898 -54.784  1.00  0.00     0.031 A 
ENDBRANCH  21  24
ENDBRANCH  19  20
ENDBRANCH   4  19
TORSDOF 5
ENDMDL
MODEL 6
REMARK VINA RESULT:      -7.9      1.932      2.214
REMARK  5 active torsions:
REMARK  status: ('A' for Active; 'I' for Inactive)
REMARK    1  A    between atoms: C_2  and  N_3 
REMARK       I    between atoms: N_3  and  C_4 
REMARK       I    between atoms: C_4  and  N_5 
REMARK    2  A    between atoms: N_5  and  C_6 
REMARK    3  A    between atoms: C_9  and  C_10 
REMARK    4  A    between atoms: C_10  and  C_11 
REMARK       I    between atoms: C_11  and  N_12 
REMARK    5  A    between atoms: N_12  and  C_13 
ROOT
HETATM    1  C   UNL     1     -43.108  57.949 -53.795  1.00  0.00     0.174 A 
HETATM    2  S   UNL     1     -44.002  59.119 -52.937  1.00  0.00    -0.062 SA
HETATM    3  C   UNL     1     -43.360  58.502 -51.468  1.00  0.00     0.081 A 
HETATM    4  C   UNL     1     -42.491  57.457 -51.732  1.00  0.00     0.052 A 
HETATM    5  N   UNL     1     -42.354  57.153 -53.081  1.00  0.00    -0.228 NA
ENDROOT
BRANCH   1   6
HETATM    6  N   UNL     1     -43.260  57.994 -55.151  1.00  0.00    -0.287 N 
HETATM    7  C   UNL     1     -42.604  58.909 -55.916  1.00  0.00     0.326 C 
HETATM    8  N   UNL     1     -42.915  58.929 -57.248  1.00  0.00    -0.309 N 
HETATM    9  O   UNL     1     -41.703  59.651 -55.530  1.00  0.00    -0.247 OA
HETATM   10  H   UNL     1     -42.211  59.426 -57.781  1.00  0.00     0.170 HD
HETATM   11  H   UNL     1     -43.664  57.188 -55.598  1.00  0.00     0.172 HD
BRANCH   8  12
HETATM   12  C   UNL     1     -44.060  58.517 -57.952  1.00  0.00     0.036 A 
HETATM   13  C   UNL     1     -45.209  59.300 -58.105  1.00  0.00     0.032 A 
HETATM   14  C   UNL     1     -46.287  58.828 -58.860  1.00  0.00     0.044 A 
HETATM   15  C   UNL     1     -46.210  57.581 -59.471  1.00  0.00     0.116 A 
HETATM   16  C   UNL     1     -45.069  56.802 -59.349  1.00  0.00     0.044 A 
HETATM   17  F   UNL     1     -47.242  57.137 -60.199  1.00  0.00    -0.206 F 
HETATM   18  C   UNL     1     -43.991  57.274 -58.598  1.00  0.00     0.032 A 
ENDBRANCH   8  12
ENDBRANCH   1   6
BRANCH   4  19
HETATM   19  C   UNL     1     -41.676  56.691 -50.743  1.00  0.00     0.163 C 
BRANCH  19  20
HETATM   20  C   UNL     1     -41.615  55.192 -51.003  1.00  0.00     0.227 C 
HETATM   21  N   UNL     1     -40.890  54.829 -52.124  1.00  0.00    -0.327 N 
HETATM   22  H   UNL     1     -40.646  55.593 -52.763  1.00  0.00     0.169 HD
HETATM   23  O   UNL     1     -42.125  54.413 -50.199  1.00  0.00    -0.273 OA
BRANCH  21  24
HETATM   24  C   UNL     1     -40.521  53.533 -52.532  1.00  0.00     0.036 A 
HETATM   25  C   UNL     1     -40.140  52.515 -51.656  1.00  0.00     0.055 A 
HETATM   26  C   UNL     1     -39.756  51.259 -52.146  1.00  0.00     0.058 A 
HETATM   27 CL   UNL     1     -39.278  50.056 -50.999  1.00  0.00    -0.082 Cl
HETATM   28  C   UNL     1     -39.758  51.012 -53.524  1.00  0.00     0.055 A 
HETATM   29 CL   UNL     1     -39.297  49.490 -54.199  1.00  0.00    -0.083 Cl
HETATM   30  C   UNL     1     -40.139  52.024 -54.403  1.00  0.00     0.028 A 
HETATM   31  C   UNL     1     -40.512  53.278 -53.908  1.00  0.00     0.031 A 
ENDBRANCH  21  24
ENDBRANCH  19  20
ENDBRANCH   4  19
TORSDOF 5
ENDMDL
MODEL 7
REMARK VINA RESULT:      -7.8      4.317      7.734
REMARK  5 active torsions:
REMARK  status: ('A' for Active; 'I' for Inactive)
REMARK    1  A    between atoms: C_2  and  N_3 
REMARK       I    between atoms: N_3  and  C_4 
REMARK       I    between atoms: C_4  and  N_5 
REMARK    2  A    between atoms: N_5  and  C_6 
REMARK    3  A    between atoms: C_9  and  C_10 
REMARK    4  A    between atoms: C_10  and  C_11 
REMARK       I    between atoms: C_11  and  N_12 
REMARK    5  A    between atoms: N_12  and  C_13 
ROOT
HETATM    1  C   UNL     1     -41.973  57.757 -52.092  1.00  0.00     0.174 A 
HETATM    2  S   UNL     1     -41.054  58.252 -50.743  1.00  0.00    -0.062 SA
HETATM    3  C   UNL     1     -41.430  59.887 -51.113  1.00  0.00     0.081 A 
HETATM    4  C   UNL     1     -42.248  59.945 -52.229  1.00  0.00     0.052 A 
HETATM    5  N   UNL     1     -42.555  58.707 -52.779  1.00  0.00    -0.228 NA
ENDROOT
BRANCH   1   6
HETATM    6  N   UNL     1     -42.021  56.407 -52.287  1.00  0.00    -0.287 N 
HETATM    7  C   UNL     1     -42.846  55.607 -51.558  1.00  0.00     0.326 C 
HETATM    8  N   UNL     1     -42.732  54.259 -51.766  1.00  0.00    -0.309 N 
HETATM    9  O   UNL     1     -43.734  55.994 -50.800  1.00  0.00    -0.247 OA
HETATM   10  H   UNL     1     -43.540  53.764 -51.407  1.00  0.00     0.170 HD
HETATM   11  H   UNL     1     -41.628  56.049 -53.141  1.00  0.00     0.172 HD
BRANCH   8  12
HETATM   12  C   UNL     1     -41.674  53.468 -52.245  1.00  0.00     0.036 A 
HETATM   13  C   UNL     1     -40.699  52.886 -51.429  1.00  0.00     0.032 A 
HETATM   14  C   UNL     1     -39.705  52.076 -51.986  1.00  0.00     0.044 A 
HETATM   15  C   UNL     1     -39.694  51.840 -53.356  1.00  0.00     0.116 A 
HETATM   16  C   UNL     1     -40.666  52.390 -54.179  1.00  0.00     0.044 A 
HETATM   17  F   UNL     1     -38.744  51.058 -53.885  1.00  0.00    -0.206 F 
HETATM   18  C   UNL     1     -41.661  53.196 -53.622  1.00  0.00     0.032 A 
ENDBRANCH   8  12
ENDBRANCH   1   6
BRANCH   4  19
HETATM   19  C   UNL     1     -42.853  61.166 -52.840  1.00  0.00     0.163 C 
BRANCH  19  20
HETATM   20  C   UNL     1     -43.102  61.062 -54.338  1.00  0.00     0.227 C 
HETATM   21  N   UNL     1     -42.040  60.559 -55.068  1.00  0.00    -0.327 N 
HETATM   22  H   UNL     1     -41.146  60.499 -54.569  1.00  0.00     0.169 HD
HETATM   23  O   UNL     1     -44.209  61.347 -54.792  1.00  0.00    -0.273 OA
BRANCH  21  24
HETATM   24  C   UNL     1     -42.020  60.197 -56.429  1.00  0.00     0.036 A 
HETATM   25  C   UNL     1     -41.687  61.071 -57.466  1.00  0.00     0.055 A 
HETATM   26  C   UNL     1     -41.722  60.639 -58.800  1.00  0.00     0.058 A 
HETATM   27 CL   UNL     1     -41.316  61.786 -60.029  1.00  0.00    -0.082 Cl
HETATM   28  C   UNL     1     -42.084  59.322 -59.103  1.00  0.00     0.055 A 
HETATM   29 CL   UNL     1     -42.149  58.722 -60.722  1.00  0.00    -0.083 Cl
HETATM   30  C   UNL     1     -42.416  58.445 -58.071  1.00  0.00     0.028 A 
HETATM   31  C   UNL     1     -42.389  58.884 -56.744  1.00  0.00     0.031 A 
ENDBRANCH  21  24
ENDBRANCH  19  20
ENDBRANCH   4  19
TORSDOF 5
ENDMDL
MODEL 8
REMARK VINA RESULT:      -7.7      2.006      2.810
REMARK  5 active torsions:
REMARK  status: ('A' for Active; 'I' for Inactive)
REMARK    1  A    between atoms: C_2  and  N_3 
REMARK       I    between atoms: N_3  and  C_4 
REMARK       I    between atoms: C_4  and  N_5 
REMARK    2  A    between atoms: N_5  and  C_6 
REMARK    3  A    between atoms: C_9  and  C_10 
REMARK    4  A    between atoms: C_10  and  C_11 
REMARK       I    between atoms: C_11  and  N_12 
REMARK    5  A    between atoms: N_12  and  C_13 
ROOT
HETATM    1  C   UNL     1     -43.822  59.412 -53.666  1.00  0.00     0.174 A 
HETATM    2  S   UNL     1     -45.038  60.446 -53.065  1.00  0.00    -0.062 SA
HETATM    3  C   UNL     1     -44.185  60.550 -51.578  1.00  0.00     0.081 A 
HETATM    4  C   UNL     1     -43.020  59.805 -51.646  1.00  0.00     0.052 A 
HETATM    5  N   UNL     1     -42.824  59.158 -52.859  1.00  0.00    -0.228 NA
ENDROOT
BRANCH   1   6
HETATM    6  N   UNL     1     -44.017  58.984 -54.947  1.00  0.00    -0.287 N 
HETATM    7  C   UNL     1     -44.544  57.760 -55.222  1.00  0.00     0.326 C 
HETATM    8  N   UNL     1     -44.594  57.396 -56.540  1.00  0.00    -0.309 N 
HETATM    9  O   UNL     1     -45.052  56.998 -54.401  1.00  0.00    -0.247 OA
HETATM   10  H   UNL     1     -45.230  56.620 -56.682  1.00  0.00     0.170 HD
HETATM   11  H   UNL     1     -44.001  59.680 -55.674  1.00  0.00     0.172 HD
BRANCH   8  12
HETATM   12  C   UNL     1     -43.845  57.806 -57.657  1.00  0.00     0.036 A 
HETATM   13  C   UNL     1     -42.452  57.714 -57.742  1.00  0.00     0.032 A 
HETATM   14  C   UNL     1     -41.791  58.105 -58.911  1.00  0.00     0.044 A 
HETATM   15  C   UNL     1     -42.523  58.576 -59.994  1.00  0.00     0.116 A 
HETATM   16  C   UNL     1     -43.907  58.653 -59.936  1.00  0.00     0.044 A 
HETATM   17  F   UNL     1     -41.886  58.943 -61.113  1.00  0.00    -0.206 F 
HETATM   18  C   UNL     1     -44.568  58.259 -58.771  1.00  0.00     0.032 A 
ENDBRANCH   8  12
ENDBRANCH   1   6
BRANCH   4  19
HETATM   19  C   UNL     1     -41.967  59.681 -50.594  1.00  0.00     0.163 C 
BRANCH  19  20
HETATM   20  C   UNL     1     -41.088  58.445 -50.725  1.00  0.00     0.227 C 
HETATM   21  N   UNL     1     -41.768  57.243 -50.655  1.00  0.00    -0.327 N 
HETATM   22  H   UNL     1     -42.738  57.298 -50.327  1.00  0.00     0.169 HD
HETATM   23  O   UNL     1     -39.886  58.574 -50.953  1.00  0.00    -0.273 OA
BRANCH  21  24
HETATM   24  C   UNL     1     -41.266  55.950 -50.900  1.00  0.00     0.036 A 
HETATM   25  C   UNL     1     -41.253  55.340 -52.156  1.00  0.00     0.055 A 
HETATM   26  C   UNL     1     -40.763  54.035 -52.310  1.00  0.00     0.058 A 
HETATM   27 CL   UNL     1     -40.799  53.341 -53.894  1.00  0.00    -0.082 Cl
HETATM   28  C   UNL     1     -40.274  53.334 -51.202  1.00  0.00     0.055 A 
HETATM   29 CL   UNL     1     -39.655  51.724 -51.316  1.00  0.00    -0.083 Cl
HETATM   30  C   UNL     1     -40.283  53.938 -49.946  1.00  0.00     0.028 A 
HETATM   31  C   UNL     1     -40.781  55.236 -49.798  1.00  0.00     0.031 A 
ENDBRANCH  21  24
ENDBRANCH  19  20
ENDBRANCH   4  19
TORSDOF 5
ENDMDL
MODEL 9
REMARK VINA RESULT:      -7.6     15.950     19.390
REMARK  5 active torsions:
REMARK  status: ('A' for Active; 'I' for Inactive)
REMARK    1  A    between atoms: C_2  and  N_3 
REMARK       I    between atoms: N_3  and  C_4 
REMARK       I    between atoms: C_4  and  N_5 
REMARK    2  A    between atoms: N_5  and  C_6 
REMARK    3  A    between atoms: C_9  and  C_10 
REMARK    4  A    between atoms: C_10  and  C_11 
REMARK       I    between atoms: C_11  and  N_12 
REMARK    5  A    between atoms: N_12  and  C_13 
ROOT
HETATM    1  C   UNL     1     -34.219  40.668 -50.583  1.00  0.00     0.174 A 
HETATM    2  S   UNL     1     -35.497  39.542 -50.492  1.00  0.00    -0.062 SA
HETATM    3  C   UNL     1     -36.298  40.381 -51.760  1.00  0.00     0.081 A 
HETATM    4  C   UNL     1     -35.527  41.452 -52.181  1.00  0.00     0.052 A 
HETATM    5  N   UNL     1     -34.329  41.600 -51.494  1.00  0.00    -0.228 NA
ENDROOT
BRANCH   1   6
HETATM    6  N   UNL     1     -33.200  40.447 -49.703  1.00  0.00    -0.287 N 
HETATM    7  C   UNL     1     -32.013  39.912 -50.100  1.00  0.00     0.326 C 
HETATM    8  N   UNL     1     -31.104  39.638 -49.114  1.00  0.00    -0.309 N 
HETATM    9  O   UNL     1     -31.659  39.738 -51.265  1.00  0.00    -0.247 OA
HETATM   10  H   UNL     1     -30.175  39.508 -49.498  1.00  0.00     0.170 HD
HETATM   11  H   UNL     1     -33.248  40.915 -48.813  1.00  0.00     0.172 HD
BRANCH   8  12
HETATM   12  C   UNL     1     -31.257  39.381 -47.740  1.00  0.00     0.036 A 
HETATM   13  C   UNL     1     -32.071  38.370 -47.219  1.00  0.00     0.032 A 
HETATM   14  C   UNL     1     -32.130  38.156 -45.838  1.00  0.00     0.044 A 
HETATM   15  C   UNL     1     -31.368  38.943 -44.983  1.00  0.00     0.116 A 
HETATM   16  C   UNL     1     -30.537  39.935 -45.485  1.00  0.00     0.044 A 
HETATM   17  F   UNL     1     -31.422  38.729 -43.663  1.00  0.00    -0.206 F 
HETATM   18  C   UNL     1     -30.474  40.147 -46.863  1.00  0.00     0.032 A 
ENDBRANCH   8  12
ENDBRANCH   1   6
BRANCH   4  19
HETATM   19  C   UNL     1     -35.828  42.394 -53.299  1.00  0.00     0.163 C 
BRANCH  19  20
HETATM   20  C   UNL     1     -35.673  41.792 -54.689  1.00  0.00     0.227 C 
HETATM   21  N   UNL     1     -36.861  41.589 -55.367  1.00  0.00    -0.327 N 
HETATM   22  H   UNL     1     -37.714  41.670 -54.805  1.00  0.00     0.169 HD
HETATM   23  O   UNL     1     -34.547  41.597 -55.145  1.00  0.00    -0.273 OA
BRANCH  21  24
HETATM   24  C   UNL     1     -37.034  41.205 -56.711  1.00  0.00     0.036 A 
HETATM   25  C   UNL     1     -37.071  42.099 -57.783  1.00  0.00     0.055 A 
HETATM   26  C   UNL     1     -37.279  41.636 -59.090  1.00  0.00     0.058 A 
HETATM   27 CL   UNL     1     -37.333  42.808 -60.361  1.00  0.00    -0.082 Cl
HETATM   28  C   UNL     1     -37.444  40.269 -59.333  1.00  0.00     0.055 A 
HETATM   29 CL   UNL     1     -37.705  39.627 -60.917  1.00  0.00    -0.083 Cl
HETATM   30  C   UNL     1     -37.407  39.371 -58.268  1.00  0.00     0.028 A 
HETATM   31  C   UNL     1     -37.208  39.839 -56.965  1.00  0.00     0.031 A 
ENDBRANCH  21  24
ENDBRANCH  19  20
ENDBRANCH   4  19
TORSDOF 5
ENDMDL
MODEL 10
REMARK VINA RESULT:      -7.6      4.067      7.861
REMARK  5 active torsions:
REMARK  status: ('A' for Active; 'I' for Inactive)
REMARK    1  A    between atoms: C_2  and  N_3 
REMARK       I    between atoms: N_3  and  C_4 
REMARK       I    between atoms: C_4  and  N_5 
REMARK    2  A    between atoms: N_5  and  C_6 
REMARK    3  A    between atoms: C_9  and  C_10 
REMARK    4  A    between atoms: C_10  and  C_11 
REMARK       I    between atoms: C_11  and  N_12 
REMARK    5  A    between atoms: N_12  and  C_13 
ROOT
HETATM    1  C   UNL     1     -41.782  57.370 -53.426  1.00  0.00     0.174 A 
HETATM    2  S   UNL     1     -40.746  58.319 -52.460  1.00  0.00    -0.062 SA
HETATM    3  C   UNL     1     -41.261  59.716 -53.317  1.00  0.00     0.081 A 
HETATM    4  C   UNL     1     -42.204  59.367 -54.269  1.00  0.00     0.052 A 
HETATM    5  N   UNL     1     -42.497  58.010 -54.316  1.00  0.00    -0.228 NA
ENDROOT
BRANCH   1   6
HETATM    6  N   UNL     1     -41.770  56.036 -53.137  1.00  0.00    -0.287 N 
HETATM    7  C   UNL     1     -42.168  55.561 -51.924  1.00  0.00     0.326 C 
HETATM    8  N   UNL     1     -42.012  54.218 -51.711  1.00  0.00    -0.309 N 
HETATM    9  O   UNL     1     -42.728  56.216 -51.047  1.00  0.00    -0.247 OA
HETATM   10  H   UNL     1     -42.567  53.906 -50.923  1.00  0.00     0.170 HD
HETATM   11  H   UNL     1     -41.704  55.396 -53.911  1.00  0.00     0.172 HD
BRANCH   8  12
HETATM   12  C   UNL     1     -41.149  53.270 -52.286  1.00  0.00     0.036 A 
HETATM   13  C   UNL     1     -40.155  52.586 -51.579  1.00  0.00     0.032 A 
HETATM   14  C   UNL     1     -39.368  51.624 -52.221  1.00  0.00     0.044 A 
HETATM   15  C   UNL     1     -39.585  51.340 -53.564  1.00  0.00     0.116 A 
HETATM   16  C   UNL     1     -40.582  51.991 -54.276  1.00  0.00     0.044 A 
HETATM   17  F   UNL     1     -38.834  50.413 -54.173  1.00  0.00    -0.206 F 
HETATM   18  C   UNL     1     -41.370  52.949 -53.634  1.00  0.00     0.032 A 
ENDBRANCH   8  12
ENDBRANCH   1   6
BRANCH   4  19
HETATM   19  C   UNL     1     -42.949  60.287 -55.180  1.00  0.00     0.163 C 
BRANCH  19  20
HETATM   20  C   UNL     1     -43.326  59.677 -56.522  1.00  0.00     0.227 C 
HETATM   21  N   UNL     1     -44.310  58.707 -56.459  1.00  0.00    -0.327 N 
HETATM   22  H   UNL     1     -44.534  58.360 -55.521  1.00  0.00     0.169 HD
HETATM   23  O   UNL     1     -42.816  60.111 -57.554  1.00  0.00    -0.273 OA
BRANCH  21  24
HETATM   24  C   UNL     1     -44.978  58.082 -57.531  1.00  0.00     0.036 A 
HETATM   25  C   UNL     1     -44.375  57.181 -58.410  1.00  0.00     0.055 A 
HETATM   26  C   UNL     1     -45.103  56.626 -59.472  1.00  0.00     0.058 A 
HETATM   27 CL   UNL     1     -44.280  55.533 -60.531  1.00  0.00    -0.082 Cl
HETATM   28  C   UNL     1     -46.448  56.967 -59.655  1.00  0.00     0.055 A 
HETATM   29 CL   UNL     1     -47.406  56.323 -60.941  1.00  0.00    -0.083 Cl
HETATM   30  C   UNL     1     -47.055  57.865 -58.780  1.00  0.00     0.028 A 
HETATM   31  C   UNL     1     -46.321  58.422 -57.728  1.00  0.00     0.031 A 
ENDBRANCH  21  24
ENDBRANCH  19  20
ENDBRANCH   4  19
TORSDOF 5
ENDMDL
