MODEL 1
REMARK VINA RESULT:      -8.9      0.000      0.000
REMARK  8 active torsions:
REMARK  status: ('A' for Active; 'I' for Inactive)
REMARK    1  A    between atoms: C_10  and  C_11 
REMARK    2  A    between atoms: C_11  and  C_12 
REMARK       I    between atoms: C_12  and  N_13 
REMARK    3  A    between atoms: N_13  and  N_14 
REMARK       I    between atoms: N_14  and  C_15 
REMARK    4  A    between atoms: C_15  and  C_16 
REMARK    5  A    between atoms: C_16  and  C_17 
REMARK    6  A    between atoms: C_17  and  C_18 
REMARK       I    between atoms: C_18  and  N_19 
REMARK    7  A    between atoms: N_19  and  C_20 
REMARK    8  A    between atoms: C_20  and  C_21 
ROOT
HETATM    1  C   UNL     1     -42.485  55.058 -56.139  1.00  0.00     0.240 C 
HETATM    2  N   UNL     1     -42.710  55.781 -57.298  1.00  0.00    -0.267 N 
HETATM    3  O   UNL     1     -43.289  54.218 -55.732  1.00  0.00    -0.272 OA
HETATM    4  H   UNL     1     -41.988  56.347 -57.742  1.00  0.00     0.190 HD
ENDROOT
BRANCH   2   5
HETATM    5  N   UNL     1     -43.772  55.369 -58.119  1.00  0.00    -0.268 N 
HETATM    6  C   UNL     1     -43.560  55.347 -59.483  1.00  0.00     0.236 C 
HETATM    7  O   UNL     1     -42.558  55.825 -60.013  1.00  0.00    -0.272 OA
HETATM    8  H   UNL     1     -44.463  54.767 -57.668  1.00  0.00     0.190 HD
BRANCH   6   9
HETATM    9  C   UNL     1     -44.660  54.641 -60.248  1.00  0.00     0.114 C 
BRANCH   9  10
HETATM   10  C   UNL     1     -45.560  55.621 -60.987  1.00  0.00     0.112 C 
BRANCH  10  11
HETATM   11  C   UNL     1     -45.747  56.903 -60.205  1.00  0.00     0.218 C 
HETATM   12  N   UNL     1     -44.897  57.915 -60.570  1.00  0.00    -0.355 N 
HETATM   13  H   UNL     1     -44.457  57.856 -61.490  1.00  0.00     0.162 HD
HETATM   14  O   UNL     1     -46.599  57.011 -59.329  1.00  0.00    -0.274 OA
BRANCH  12  15
HETATM   15  C   UNL     1     -45.011  59.225 -59.975  1.00  0.00     0.187 C 
BRANCH  15  16
HETATM   16  C   UNL     1     -43.726  59.560 -59.317  1.00  0.00     0.070 A 
HETATM   17  O   UNL     1     -43.278  58.692 -58.364  1.00  0.00    -0.325 OA
HETATM   18  C   UNL     1     -42.105  59.189 -57.894  1.00  0.00     0.142 A 
HETATM   19  C   UNL     1     -41.792  60.368 -58.531  1.00  0.00     0.027 A 
HETATM   20  C   UNL     1     -42.840  60.609 -59.451  1.00  0.00     0.036 A 
ENDBRANCH  15  16
ENDBRANCH  12  15
ENDBRANCH  10  11
ENDBRANCH   9  10
ENDBRANCH   6   9
ENDBRANCH   2   5
BRANCH   1  21
HETATM   21  C   UNL     1     -41.172  55.360 -55.459  1.00  0.00     0.146 C 
BRANCH  21  22
HETATM   22  C   UNL     1     -40.984  54.816 -54.072  1.00  0.00    -0.015 A 
HETATM   23  C   UNL     1     -40.562  53.513 -53.624  1.00  0.00     0.000 A 
HETATM   24  C   UNL     1     -40.162  52.319 -54.265  1.00  0.00     0.021 A 
HETATM   25  C   UNL     1     -40.577  53.522 -52.225  1.00  0.00     0.049 A 
HETATM   26  C   UNL     1     -39.810  51.187 -53.514  1.00  0.00    -0.061 A 
HETATM   27  C   UNL     1     -39.350  49.932 -54.198  1.00  0.00     0.048 C 
HETATM   28  C   UNL     1     -39.836  51.250 -52.120  1.00  0.00     0.015 A 
HETATM   29  C   UNL     1     -40.225  52.412 -51.433  1.00  0.00    -0.034 A 
HETATM   30  C   UNL     1     -40.219  52.408 -49.931  1.00  0.00     0.050 C 
HETATM   31  N   UNL     1     -40.978  54.779 -51.840  1.00  0.00    -0.358 N 
HETATM   32  H   UNL     1     -41.070  55.073 -50.879  1.00  0.00     0.166 HD
HETATM   33  C   UNL     1     -41.233  55.567 -52.928  1.00  0.00     0.013 A 
HETATM   34  C   UNL     1     -41.687  56.974 -52.773  1.00  0.00     0.068 C 
ENDBRANCH  21  22
ENDBRANCH   1  21
TORSDOF 8
ENDMDL
MODEL 2
REMARK VINA RESULT:      -8.5      2.696      4.865
REMARK  8 active torsions:
REMARK  status: ('A' for Active; 'I' for Inactive)
REMARK    1  A    between atoms: C_10  and  C_11 
REMARK    2  A    between atoms: C_11  and  C_12 
REMARK       I    between atoms: C_12  and  N_13 
REMARK    3  A    between atoms: N_13  and  N_14 
REMARK       I    between atoms: N_14  and  C_15 
REMARK    4  A    between atoms: C_15  and  C_16 
REMARK    5  A    between atoms: C_16  and  C_17 
REMARK    6  A    between atoms: C_17  and  C_18 
REMARK       I    between atoms: C_18  and  N_19 
REMARK    7  A    between atoms: N_19  and  C_20 
REMARK    8  A    between atoms: C_20  and  C_21 
ROOT
HETATM    1  C   UNL     1     -42.890  55.923 -56.191  1.00  0.00     0.240 C 
HETATM    2  N   UNL     1     -44.034  56.435 -56.779  1.00  0.00    -0.267 N 
HETATM    3  O   UNL     1     -41.833  56.554 -56.171  1.00  0.00    -0.272 OA
HETATM    4  H   UNL     1     -44.953  56.012 -56.656  1.00  0.00     0.190 HD
ENDROOT
BRANCH   2   5
HETATM    5  N   UNL     1     -44.016  57.789 -57.152  1.00  0.00    -0.268 N 
HETATM    6  C   UNL     1     -44.801  58.666 -56.431  1.00  0.00     0.236 C 
HETATM    7  O   UNL     1     -45.629  58.296 -55.600  1.00  0.00    -0.272 OA
HETATM    8  H   UNL     1     -43.175  58.094 -57.645  1.00  0.00     0.190 HD
BRANCH   6   9
HETATM    9  C   UNL     1     -44.507  60.120 -56.734  1.00  0.00     0.114 C 
BRANCH   9  10
HETATM   10  C   UNL     1     -43.722  60.790 -55.615  1.00  0.00     0.112 C 
BRANCH  10  11
HETATM   11  C   UNL     1     -42.393  60.105 -55.382  1.00  0.00     0.218 C 
HETATM   12  N   UNL     1     -42.195  59.681 -54.094  1.00  0.00    -0.355 N 
HETATM   13  H   UNL     1     -43.019  59.563 -53.502  1.00  0.00     0.162 HD
HETATM   14  O   UNL     1     -41.579  59.944 -56.286  1.00  0.00    -0.274 OA
BRANCH  12  15
HETATM   15  C   UNL     1     -41.013  58.934 -53.735  1.00  0.00     0.187 C 
BRANCH  15  16
HETATM   16  C   UNL     1     -40.740  59.144 -52.294  1.00  0.00     0.070 A 
HETATM   17  O   UNL     1     -39.441  59.365 -51.939  1.00  0.00    -0.325 OA
HETATM   18  C   UNL     1     -39.419  59.522 -50.591  1.00  0.00     0.142 A 
HETATM   19  C   UNL     1     -40.687  59.404 -50.071  1.00  0.00     0.027 A 
HETATM   20  C   UNL     1     -41.543  59.159 -51.172  1.00  0.00     0.036 A 
ENDBRANCH  15  16
ENDBRANCH  12  15
ENDBRANCH  10  11
ENDBRANCH   9  10
ENDBRANCH   6   9
ENDBRANCH   2   5
BRANCH   1  21
HETATM   21  C   UNL     1     -43.069  54.566 -55.555  1.00  0.00     0.146 C 
BRANCH  21  22
HETATM   22  C   UNL     1     -42.441  54.358 -54.207  1.00  0.00    -0.015 A 
HETATM   23  C   UNL     1     -41.523  53.347 -53.744  1.00  0.00     0.000 A 
HETATM   24  C   UNL     1     -40.875  52.242 -54.339  1.00  0.00     0.021 A 
HETATM   25  C   UNL     1     -41.267  53.597 -52.392  1.00  0.00     0.049 A 
HETATM   26  C   UNL     1     -40.021  51.423 -53.584  1.00  0.00    -0.061 A 
HETATM   27  C   UNL     1     -39.306  50.270 -54.227  1.00  0.00     0.048 C 
HETATM   28  C   UNL     1     -39.794  51.718 -52.238  1.00  0.00     0.015 A 
HETATM   29  C   UNL     1     -40.413  52.807 -51.600  1.00  0.00    -0.034 A 
HETATM   30  C   UNL     1     -40.113  53.068 -50.152  1.00  0.00     0.050 C 
HETATM   31  N   UNL     1     -41.988  54.717 -52.051  1.00  0.00    -0.358 N 
HETATM   32  H   UNL     1     -41.984  55.133 -51.131  1.00  0.00     0.166 HD
HETATM   33  C   UNL     1     -42.701  55.184 -53.119  1.00  0.00     0.013 A 
HETATM   34  C   UNL     1     -43.566  56.389 -53.002  1.00  0.00     0.068 C 
ENDBRANCH  21  22
ENDBRANCH   1  21
TORSDOF 8
ENDMDL
MODEL 3
REMARK VINA RESULT:      -8.4      1.912      3.405
REMARK  8 active torsions:
REMARK  status: ('A' for Active; 'I' for Inactive)
REMARK    1  A    between atoms: C_10  and  C_11 
REMARK    2  A    between atoms: C_11  and  C_12 
REMARK       I    between atoms: C_12  and  N_13 
REMARK    3  A    between atoms: N_13  and  N_14 
REMARK       I    between atoms: N_14  and  C_15 
REMARK    4  A    between atoms: C_15  and  C_16 
REMARK    5  A    between atoms: C_16  and  C_17 
REMARK    6  A    between atoms: C_17  and  C_18 
REMARK       I    between atoms: C_18  and  N_19 
REMARK    7  A    between atoms: N_19  and  C_20 
REMARK    8  A    between atoms: C_20  and  C_21 
ROOT
HETATM    1  C   UNL     1     -42.357  54.743 -55.872  1.00  0.00     0.240 C 
HETATM    2  N   UNL     1     -42.430  55.383 -57.097  1.00  0.00    -0.267 N 
HETATM    3  O   UNL     1     -43.356  54.282 -55.320  1.00  0.00    -0.272 OA
HETATM    4  H   UNL     1     -41.603  55.615 -57.647  1.00  0.00     0.190 HD
ENDROOT
BRANCH   2   5
HETATM    5  N   UNL     1     -43.640  55.290 -57.801  1.00  0.00    -0.268 N 
HETATM    6  C   UNL     1     -43.596  55.408 -59.176  1.00  0.00     0.236 C 
HETATM    7  O   UNL     1     -42.587  55.755 -59.786  1.00  0.00    -0.272 OA
HETATM    8  H   UNL     1     -44.383  54.774 -57.326  1.00  0.00     0.190 HD
BRANCH   6   9
HETATM    9  C   UNL     1     -44.897  55.029 -59.851  1.00  0.00     0.114 C 
BRANCH   9  10
HETATM   10  C   UNL     1     -45.478  56.181 -60.660  1.00  0.00     0.112 C 
BRANCH  10  11
HETATM   11  C   UNL     1     -45.641  57.425 -59.816  1.00  0.00     0.218 C 
HETATM   12  N   UNL     1     -46.388  57.243 -58.680  1.00  0.00    -0.355 N 
HETATM   13  H   UNL     1     -46.497  56.289 -58.333  1.00  0.00     0.162 HD
HETATM   14  O   UNL     1     -45.132  58.496 -60.132  1.00  0.00    -0.274 OA
BRANCH  12  15
HETATM   15  C   UNL     1     -46.561  58.315 -57.729  1.00  0.00     0.187 C 
BRANCH  15  16
HETATM   16  C   UNL     1     -45.493  58.219 -56.708  1.00  0.00     0.070 A 
HETATM   17  O   UNL     1     -45.808  57.578 -55.545  1.00  0.00    -0.325 OA
HETATM   18  C   UNL     1     -44.700  57.612 -54.760  1.00  0.00     0.142 A 
HETATM   19  C   UNL     1     -43.675  58.267 -55.401  1.00  0.00     0.027 A 
HETATM   20  C   UNL     1     -44.186  58.661 -56.661  1.00  0.00     0.036 A 
ENDBRANCH  15  16
ENDBRANCH  12  15
ENDBRANCH  10  11
ENDBRANCH   9  10
ENDBRANCH   6   9
ENDBRANCH   2   5
BRANCH   1  21
HETATM   21  C   UNL     1     -40.961  54.633 -55.307  1.00  0.00     0.146 C 
BRANCH  21  22
HETATM   22  C   UNL     1     -40.843  54.365 -53.834  1.00  0.00    -0.015 A 
HETATM   23  C   UNL     1     -41.041  55.235 -52.702  1.00  0.00     0.000 A 
HETATM   24  C   UNL     1     -41.421  56.586 -52.538  1.00  0.00     0.021 A 
HETATM   25  C   UNL     1     -40.780  54.491 -51.547  1.00  0.00     0.049 A 
HETATM   26  C   UNL     1     -41.515  57.152 -51.256  1.00  0.00    -0.061 A 
HETATM   27  C   UNL     1     -41.954  58.577 -51.083  1.00  0.00     0.048 C 
HETATM   28  C   UNL     1     -41.249  56.365 -50.134  1.00  0.00     0.015 A 
HETATM   29  C   UNL     1     -40.868  55.016 -50.243  1.00  0.00    -0.034 A 
HETATM   30  C   UNL     1     -40.608  54.229 -48.991  1.00  0.00     0.050 C 
HETATM   31  N   UNL     1     -40.450  53.221 -51.957  1.00  0.00    -0.358 N 
HETATM   32  H   UNL     1     -40.221  52.466 -51.328  1.00  0.00     0.166 HD
HETATM   33  C   UNL     1     -40.475  53.126 -53.321  1.00  0.00     0.013 A 
HETATM   34  C   UNL     1     -40.150  51.849 -54.011  1.00  0.00     0.068 C 
ENDBRANCH  21  22
ENDBRANCH   1  21
TORSDOF 8
ENDMDL
MODEL 4
REMARK VINA RESULT:      -8.3      1.892      2.835
REMARK  8 active torsions:
REMARK  status: ('A' for Active; 'I' for Inactive)
REMARK    1  A    between atoms: C_10  and  C_11 
REMARK    2  A    between atoms: C_11  and  C_12 
REMARK       I    between atoms: C_12  and  N_13 
REMARK    3  A    between atoms: N_13  and  N_14 
REMARK       I    between atoms: N_14  and  C_15 
REMARK    4  A    between atoms: C_15  and  C_16 
REMARK    5  A    between atoms: C_16  and  C_17 
REMARK    6  A    between atoms: C_17  and  C_18 
REMARK       I    between atoms: C_18  and  N_19 
REMARK    7  A    between atoms: N_19  and  C_20 
REMARK    8  A    between atoms: C_20  and  C_21 
ROOT
HETATM    1  C   UNL     1     -41.884  55.052 -54.929  1.00  0.00     0.240 C 
HETATM    2  N   UNL     1     -41.735  55.895 -56.017  1.00  0.00    -0.267 N 
HETATM    3  O   UNL     1     -42.568  54.030 -54.989  1.00  0.00    -0.272 OA
HETATM    4  H   UNL     1     -41.043  56.643 -56.043  1.00  0.00     0.190 HD
ENDROOT
BRANCH   2   5
HETATM    5  N   UNL     1     -42.201  55.433 -57.258  1.00  0.00    -0.268 N 
HETATM    6  C   UNL     1     -42.875  56.326 -58.066  1.00  0.00     0.236 C 
HETATM    7  O   UNL     1     -43.230  57.439 -57.683  1.00  0.00    -0.272 OA
HETATM    8  H   UNL     1     -41.699  54.629 -57.640  1.00  0.00     0.190 HD
BRANCH   6   9
HETATM    9  C   UNL     1     -43.095  55.812 -59.473  1.00  0.00     0.114 C 
BRANCH   9  10
HETATM   10  C   UNL     1     -44.203  54.770 -59.536  1.00  0.00     0.112 C 
BRANCH  10  11
HETATM   11  C   UNL     1     -45.277  55.160 -60.527  1.00  0.00     0.218 C 
HETATM   12  N   UNL     1     -46.338  55.831 -59.975  1.00  0.00    -0.355 N 
HETATM   13  H   UNL     1     -46.196  56.279 -59.069  1.00  0.00     0.162 HD
HETATM   14  O   UNL     1     -45.182  54.899 -61.722  1.00  0.00    -0.274 OA
BRANCH  12  15
HETATM   15  C   UNL     1     -47.401  56.344 -60.806  1.00  0.00     0.187 C 
BRANCH  15  16
HETATM   16  C   UNL     1     -47.298  57.821 -60.846  1.00  0.00     0.070 A 
HETATM   17  O   UNL     1     -48.239  58.484 -61.580  1.00  0.00    -0.325 OA
HETATM   18  C   UNL     1     -47.955  59.809 -61.485  1.00  0.00     0.142 A 
HETATM   19  C   UNL     1     -46.842  60.008 -60.702  1.00  0.00     0.027 A 
HETATM   20  C   UNL     1     -46.415  58.723 -60.288  1.00  0.00     0.036 A 
ENDBRANCH  15  16
ENDBRANCH  12  15
ENDBRANCH  10  11
ENDBRANCH   9  10
ENDBRANCH   6   9
ENDBRANCH   2   5
BRANCH   1  21
HETATM   21  C   UNL     1     -41.113  55.475 -53.702  1.00  0.00     0.146 C 
BRANCH  21  22
HETATM   22  C   UNL     1     -40.925  54.442 -52.628  1.00  0.00    -0.015 A 
HETATM   23  C   UNL     1     -40.493  53.069 -52.711  1.00  0.00     0.000 A 
HETATM   24  C   UNL     1     -40.081  52.215 -53.759  1.00  0.00     0.021 A 
HETATM   25  C   UNL     1     -40.513  52.541 -51.416  1.00  0.00     0.049 A 
HETATM   26  C   UNL     1     -39.722  50.883 -53.497  1.00  0.00    -0.061 A 
HETATM   27  C   UNL     1     -39.250  49.990 -54.607  1.00  0.00     0.048 C 
HETATM   28  C   UNL     1     -39.753  50.407 -52.185  1.00  0.00     0.015 A 
HETATM   29  C   UNL     1     -40.154  51.215 -51.107  1.00  0.00    -0.034 A 
HETATM   30  C   UNL     1     -40.153  50.636 -49.722  1.00  0.00     0.050 C 
HETATM   31  N   UNL     1     -40.926  53.552 -50.581  1.00  0.00    -0.358 N 
HETATM   32  H   UNL     1     -41.023  53.454 -49.581  1.00  0.00     0.166 HD
HETATM   33  C   UNL     1     -41.184  54.695 -51.286  1.00  0.00     0.013 A 
HETATM   34  C   UNL     1     -41.650  55.932 -50.605  1.00  0.00     0.068 C 
ENDBRANCH  21  22
ENDBRANCH   1  21
TORSDOF 8
ENDMDL
MODEL 5
REMARK VINA RESULT:      -8.3      2.519      4.978
REMARK  8 active torsions:
REMARK  status: ('A' for Active; 'I' for Inactive)
REMARK    1  A    between atoms: C_10  and  C_11 
REMARK    2  A    between atoms: C_11  and  C_12 
REMARK       I    between atoms: C_12  and  N_13 
REMARK    3  A    between atoms: N_13  and  N_14 
REMARK       I    between atoms: N_14  and  C_15 
REMARK    4  A    between atoms: C_15  and  C_16 
REMARK    5  A    between atoms: C_16  and  C_17 
REMARK    6  A    between atoms: C_17  and  C_18 
REMARK       I    between atoms: C_18  and  N_19 
REMARK    7  A    between atoms: N_19  and  C_20 
REMARK    8  A    between atoms: C_20  and  C_21 
ROOT
HETATM    1  C   UNL     1     -42.451  56.487 -50.625  1.00  0.00     0.240 C 
HETATM    2  N   UNL     1     -42.417  57.849 -50.870  1.00  0.00    -0.267 N 
HETATM    3  O   UNL     1     -43.413  55.792 -50.955  1.00  0.00    -0.272 OA
HETATM    4  H   UNL     1     -41.569  58.406 -50.764  1.00  0.00     0.190 HD
ENDROOT
BRANCH   2   5
HETATM    5  N   UNL     1     -43.410  58.378 -51.709  1.00  0.00    -0.268 N 
HETATM    6  C   UNL     1     -43.004  59.015 -52.864  1.00  0.00     0.236 C 
HETATM    7  O   UNL     1     -41.829  59.285 -53.103  1.00  0.00    -0.272 OA
HETATM    8  H   UNL     1     -44.329  57.941 -51.626  1.00  0.00     0.190 HD
BRANCH   6   9
HETATM    9  C   UNL     1     -44.143  59.307 -53.818  1.00  0.00     0.114 C 
BRANCH   9  10
HETATM   10  C   UNL     1     -44.944  58.056 -54.151  1.00  0.00     0.112 C 
BRANCH  10  11
HETATM   11  C   UNL     1     -44.104  57.040 -54.893  1.00  0.00     0.218 C 
HETATM   12  N   UNL     1     -43.781  57.403 -56.176  1.00  0.00    -0.355 N 
HETATM   13  H   UNL     1     -43.838  58.394 -56.416  1.00  0.00     0.162 HD
HETATM   14  O   UNL     1     -43.744  55.990 -54.371  1.00  0.00    -0.274 OA
BRANCH  12  15
HETATM   15  C   UNL     1     -42.912  56.578 -56.980  1.00  0.00     0.187 C 
BRANCH  15  16
HETATM   16  C   UNL     1     -43.531  56.399 -58.314  1.00  0.00     0.070 A 
HETATM   17  O   UNL     1     -44.719  57.036 -58.533  1.00  0.00    -0.325 OA
HETATM   18  C   UNL     1     -45.104  56.734 -59.799  1.00  0.00     0.142 A 
HETATM   19  C   UNL     1     -44.182  55.908 -60.399  1.00  0.00     0.027 A 
HETATM   20  C   UNL     1     -43.164  55.690 -59.440  1.00  0.00     0.036 A 
ENDBRANCH  15  16
ENDBRANCH  12  15
ENDBRANCH  10  11
ENDBRANCH   9  10
ENDBRANCH   6   9
ENDBRANCH   2   5
BRANCH   1  21
HETATM   21  C   UNL     1     -41.208  55.939 -49.966  1.00  0.00     0.146 C 
BRANCH  21  22
HETATM   22  C   UNL     1     -40.779  54.557 -50.366  1.00  0.00    -0.015 A 
HETATM   23  C   UNL     1     -40.595  53.972 -51.670  1.00  0.00     0.000 A 
HETATM   24  C   UNL     1     -40.712  54.439 -52.998  1.00  0.00     0.021 A 
HETATM   25  C   UNL     1     -40.209  52.640 -51.484  1.00  0.00     0.049 A 
HETATM   26  C   UNL     1     -40.462  53.583 -54.082  1.00  0.00    -0.061 A 
HETATM   27  C   UNL     1     -40.552  54.093 -55.492  1.00  0.00     0.048 C 
HETATM   28  C   UNL     1     -40.074  52.264 -53.843  1.00  0.00     0.015 A 
HETATM   29  C   UNL     1     -39.942  51.749 -52.542  1.00  0.00    -0.034 A 
HETATM   30  C   UNL     1     -39.511  50.322 -52.363  1.00  0.00     0.050 C 
HETATM   31  N   UNL     1     -40.150  52.429 -50.127  1.00  0.00    -0.358 N 
HETATM   32  H   UNL     1     -39.886  51.551 -49.703  1.00  0.00     0.166 HD
HETATM   33  C   UNL     1     -40.493  53.560 -49.440  1.00  0.00     0.013 A 
HETATM   34  C   UNL     1     -40.509  53.584 -47.953  1.00  0.00     0.068 C 
ENDBRANCH  21  22
ENDBRANCH   1  21
TORSDOF 8
ENDMDL
MODEL 6
REMARK VINA RESULT:      -8.2      1.564      2.295
REMARK  8 active torsions:
REMARK  status: ('A' for Active; 'I' for Inactive)
REMARK    1  A    between atoms: C_10  and  C_11 
REMARK    2  A    between atoms: C_11  and  C_12 
REMARK       I    between atoms: C_12  and  N_13 
REMARK    3  A    between atoms: N_13  and  N_14 
REMARK       I    between atoms: N_14  and  C_15 
REMARK    4  A    between atoms: C_15  and  C_16 
REMARK    5  A    between atoms: C_16  and  C_17 
REMARK    6  A    between atoms: C_17  and  C_18 
REMARK       I    between atoms: C_18  and  N_19 
REMARK    7  A    between atoms: N_19  and  C_20 
REMARK    8  A    between atoms: C_20  and  C_21 
ROOT
HETATM    1  C   UNL     1     -42.531  55.023 -56.139  1.00  0.00     0.240 C 
HETATM    2  N   UNL     1     -42.757  55.706 -57.321  1.00  0.00    -0.267 N 
HETATM    3  O   UNL     1     -43.328  54.188 -55.710  1.00  0.00    -0.272 OA
HETATM    4  H   UNL     1     -42.038  56.266 -57.779  1.00  0.00     0.190 HD
ENDROOT
BRANCH   2   5
HETATM    5  N   UNL     1     -43.809  55.257 -58.135  1.00  0.00    -0.268 N 
HETATM    6  C   UNL     1     -43.631  55.307 -59.503  1.00  0.00     0.236 C 
HETATM    7  O   UNL     1     -42.679  55.874 -60.034  1.00  0.00    -0.272 OA
HETATM    8  H   UNL     1     -44.445  54.590 -57.695  1.00  0.00     0.190 HD
BRANCH   6   9
HETATM    9  C   UNL     1     -44.700  54.560 -60.272  1.00  0.00     0.114 C 
BRANCH   9  10
HETATM   10  C   UNL     1     -45.469  55.474 -61.215  1.00  0.00     0.112 C 
BRANCH  10  11
HETATM   11  C   UNL     1     -46.097  56.634 -60.475  1.00  0.00     0.218 C 
HETATM   12  N   UNL     1     -45.446  57.830 -60.642  1.00  0.00    -0.355 N 
HETATM   13  H   UNL     1     -44.829  57.923 -61.451  1.00  0.00     0.162 HD
HETATM   14  O   UNL     1     -47.109  56.499 -59.795  1.00  0.00    -0.274 OA
BRANCH  12  15
HETATM   15  C   UNL     1     -45.972  59.045 -60.069  1.00  0.00     0.187 C 
BRANCH  15  16
HETATM   16  C   UNL     1     -46.362  59.957 -61.169  1.00  0.00     0.070 A 
HETATM   17  O   UNL     1     -47.681  59.974 -61.519  1.00  0.00    -0.325 OA
HETATM   18  C   UNL     1     -47.810  60.862 -62.538  1.00  0.00     0.142 A 
HETATM   19  C   UNL     1     -46.591  61.416 -62.851  1.00  0.00     0.027 A 
HETATM   20  C   UNL     1     -45.653  60.832 -61.968  1.00  0.00     0.036 A 
ENDBRANCH  15  16
ENDBRANCH  12  15
ENDBRANCH  10  11
ENDBRANCH   9  10
ENDBRANCH   6   9
ENDBRANCH   2   5
BRANCH   1  21
HETATM   21  C   UNL     1     -41.225  55.361 -55.461  1.00  0.00     0.146 C 
BRANCH  21  22
HETATM   22  C   UNL     1     -41.019  54.822 -54.075  1.00  0.00    -0.015 A 
HETATM   23  C   UNL     1     -40.585  53.522 -53.628  1.00  0.00     0.000 A 
HETATM   24  C   UNL     1     -40.185  52.329 -54.270  1.00  0.00     0.021 A 
HETATM   25  C   UNL     1     -40.585  53.535 -52.229  1.00  0.00     0.049 A 
HETATM   26  C   UNL     1     -39.819  51.200 -53.520  1.00  0.00    -0.061 A 
HETATM   27  C   UNL     1     -39.360  49.946 -54.205  1.00  0.00     0.048 C 
HETATM   28  C   UNL     1     -39.830  51.267 -52.126  1.00  0.00     0.015 A 
HETATM   29  C   UNL     1     -40.219  52.429 -51.438  1.00  0.00    -0.034 A 
HETATM   30  C   UNL     1     -40.197  52.429 -49.936  1.00  0.00     0.050 C 
HETATM   31  N   UNL     1     -40.989  54.791 -51.843  1.00  0.00    -0.358 N 
HETATM   32  H   UNL     1     -41.072  55.087 -50.882  1.00  0.00     0.166 HD
HETATM   33  C   UNL     1     -41.260  55.574 -52.930  1.00  0.00     0.013 A 
HETATM   34  C   UNL     1     -41.720  56.980 -52.774  1.00  0.00     0.068 C 
ENDBRANCH  21  22
ENDBRANCH   1  21
TORSDOF 8
ENDMDL
MODEL 7
REMARK VINA RESULT:      -8.1      4.381      5.841
REMARK  8 active torsions:
REMARK  status: ('A' for Active; 'I' for Inactive)
REMARK    1  A    between atoms: C_10  and  C_11 
REMARK    2  A    between atoms: C_11  and  C_12 
REMARK       I    between atoms: C_12  and  N_13 
REMARK    3  A    between atoms: N_13  and  N_14 
REMARK       I    between atoms: N_14  and  C_15 
REMARK    4  A    between atoms: C_15  and  C_16 
REMARK    5  A    between atoms: C_16  and  C_17 
REMARK    6  A    between atoms: C_17  and  C_18 
REMARK       I    between atoms: C_18  and  N_19 
REMARK    7  A    between atoms: N_19  and  C_20 
REMARK    8  A    between atoms: C_20  and  C_21 
ROOT
HETATM    1  C   UNL     1     -42.731  56.571 -50.593  1.00  0.00     0.240 C 
HETATM    2  N   UNL     1     -43.006  57.908 -50.818  1.00  0.00    -0.267 N 
HETATM    3  O   UNL     1     -43.605  55.707 -50.670  1.00  0.00    -0.272 OA
HETATM    4  H   UNL     1     -42.274  58.610 -50.930  1.00  0.00     0.190 HD
ENDROOT
BRANCH   2   5
HETATM    5  N   UNL     1     -44.261  58.226 -51.361  1.00  0.00    -0.268 N 
HETATM    6  C   UNL     1     -44.808  59.452 -51.043  1.00  0.00     0.236 C 
HETATM    7  O   UNL     1     -44.334  60.196 -50.185  1.00  0.00    -0.272 OA
HETATM    8  H   UNL     1     -44.500  57.733 -52.223  1.00  0.00     0.190 HD
BRANCH   6   9
HETATM    9  C   UNL     1     -46.019  59.803 -51.882  1.00  0.00     0.114 C 
BRANCH   9  10
HETATM   10  C   UNL     1     -45.726  60.928 -52.865  1.00  0.00     0.112 C 
BRANCH  10  11
HETATM   11  C   UNL     1     -44.845  60.457 -54.001  1.00  0.00     0.218 C 
HETATM   12  N   UNL     1     -43.572  60.967 -53.977  1.00  0.00    -0.355 N 
HETATM   13  H   UNL     1     -43.226  61.336 -53.089  1.00  0.00     0.162 HD
HETATM   14  O   UNL     1     -45.250  59.676 -54.856  1.00  0.00    -0.274 OA
BRANCH  12  15
HETATM   15  C   UNL     1     -42.588  60.544 -54.945  1.00  0.00     0.187 C 
BRANCH  15  16
HETATM   16  C   UNL     1     -41.800  59.433 -54.364  1.00  0.00     0.070 A 
HETATM   17  O   UNL     1     -40.795  59.773 -53.505  1.00  0.00    -0.325 OA
HETATM   18  C   UNL     1     -40.208  58.617 -53.104  1.00  0.00     0.142 A 
HETATM   19  C   UNL     1     -40.819  57.535 -53.694  1.00  0.00     0.027 A 
HETATM   20  C   UNL     1     -41.849  58.061 -54.510  1.00  0.00     0.036 A 
ENDBRANCH  15  16
ENDBRANCH  12  15
ENDBRANCH  10  11
ENDBRANCH   9  10
ENDBRANCH   6   9
ENDBRANCH   2   5
BRANCH   1  21
HETATM   21  C   UNL     1     -41.282  56.273 -50.289  1.00  0.00     0.146 C 
BRANCH  21  22
HETATM   22  C   UNL     1     -40.826  54.855 -50.477  1.00  0.00    -0.015 A 
HETATM   23  C   UNL     1     -40.600  54.093 -51.680  1.00  0.00     0.000 A 
HETATM   24  C   UNL     1     -40.689  54.364 -53.063  1.00  0.00     0.021 A 
HETATM   25  C   UNL     1     -40.203  52.807 -51.296  1.00  0.00     0.049 A 
HETATM   26  C   UNL     1     -40.401  53.366 -54.008  1.00  0.00    -0.061 A 
HETATM   27  C   UNL     1     -40.461  53.668 -55.477  1.00  0.00     0.048 C 
HETATM   28  C   UNL     1     -40.003  52.101 -53.573  1.00  0.00     0.015 A 
HETATM   29  C   UNL     1     -39.898  51.779 -52.209  1.00  0.00    -0.034 A 
HETATM   30  C   UNL     1     -39.454  50.400 -51.817  1.00  0.00     0.050 C 
HETATM   31  N   UNL     1     -40.176  52.793 -49.922  1.00  0.00    -0.358 N 
HETATM   32  H   UNL     1     -39.912  51.989 -49.371  1.00  0.00     0.166 HD
HETATM   33  C   UNL     1     -40.551  54.005 -49.412  1.00  0.00     0.013 A 
HETATM   34  C   UNL     1     -40.606  54.240 -47.945  1.00  0.00     0.068 C 
ENDBRANCH  21  22
ENDBRANCH   1  21
TORSDOF 8
ENDMDL
MODEL 8
REMARK VINA RESULT:      -8.1      2.106      2.997
REMARK  8 active torsions:
REMARK  status: ('A' for Active; 'I' for Inactive)
REMARK    1  A    between atoms: C_10  and  C_11 
REMARK    2  A    between atoms: C_11  and  C_12 
REMARK       I    between atoms: C_12  and  N_13 
REMARK    3  A    between atoms: N_13  and  N_14 
REMARK       I    between atoms: N_14  and  C_15 
REMARK    4  A    between atoms: C_15  and  C_16 
REMARK    5  A    between atoms: C_16  and  C_17 
REMARK    6  A    between atoms: C_17  and  C_18 
REMARK       I    between atoms: C_18  and  N_19 
REMARK    7  A    between atoms: N_19  and  C_20 
REMARK    8  A    between atoms: C_20  and  C_21 
ROOT
HETATM    1  C   UNL     1     -43.296  56.153 -55.631  1.00  0.00     0.240 C 
HETATM    2  N   UNL     1     -42.308  55.842 -56.549  1.00  0.00    -0.267 N 
HETATM    3  O   UNL     1     -43.850  57.253 -55.622  1.00  0.00    -0.272 OA
HETATM    4  H   UNL     1     -41.963  54.892 -56.686  1.00  0.00     0.190 HD
ENDROOT
BRANCH   2   5
HETATM    5  N   UNL     1     -42.114  56.735 -57.615  1.00  0.00    -0.268 N 
HETATM    6  C   UNL     1     -42.821  56.512 -58.778  1.00  0.00     0.236 C 
HETATM    7  O   UNL     1     -43.473  55.489 -58.981  1.00  0.00    -0.272 OA
HETATM    8  H   UNL     1     -41.787  57.666 -57.349  1.00  0.00     0.190 HD
BRANCH   6   9
HETATM    9  C   UNL     1     -42.747  57.667 -59.755  1.00  0.00     0.114 C 
BRANCH   9  10
HETATM   10  C   UNL     1     -43.818  58.714 -59.484  1.00  0.00     0.112 C 
BRANCH  10  11
HETATM   11  C   UNL     1     -43.237  59.945 -58.823  1.00  0.00     0.218 C 
HETATM   12  N   UNL     1     -43.431  60.002 -57.467  1.00  0.00    -0.355 N 
HETATM   13  H   UNL     1     -43.642  59.128 -56.981  1.00  0.00     0.162 HD
HETATM   14  O   UNL     1     -42.638  60.804 -59.462  1.00  0.00    -0.274 OA
BRANCH  12  15
HETATM   15  C   UNL     1     -42.860  61.071 -56.683  1.00  0.00     0.187 C 
BRANCH  15  16
HETATM   16  C   UNL     1     -42.483  60.535 -55.355  1.00  0.00     0.070 A 
HETATM   17  O   UNL     1     -41.528  59.560 -55.332  1.00  0.00    -0.325 OA
HETATM   18  C   UNL     1     -41.345  59.215 -54.031  1.00  0.00     0.142 A 
HETATM   19  C   UNL     1     -42.171  59.952 -53.215  1.00  0.00     0.027 A 
HETATM   20  C   UNL     1     -42.909  60.806 -54.070  1.00  0.00     0.036 A 
ENDBRANCH  15  16
ENDBRANCH  12  15
ENDBRANCH  10  11
ENDBRANCH   9  10
ENDBRANCH   6   9
ENDBRANCH   2   5
BRANCH   1  21
HETATM   21  C   UNL     1     -43.651  55.028 -54.689  1.00  0.00     0.146 C 
BRANCH  21  22
HETATM   22  C   UNL     1     -42.815  54.891 -53.450  1.00  0.00    -0.015 A 
HETATM   23  C   UNL     1     -41.774  53.950 -53.118  1.00  0.00     0.000 A 
HETATM   24  C   UNL     1     -41.152  52.875 -53.789  1.00  0.00     0.021 A 
HETATM   25  C   UNL     1     -41.335  54.246 -51.823  1.00  0.00     0.049 A 
HETATM   26  C   UNL     1     -40.142  52.128 -53.162  1.00  0.00    -0.061 A 
HETATM   27  C   UNL     1     -39.457  51.008 -53.891  1.00  0.00     0.048 C 
HETATM   28  C   UNL     1     -39.736  52.467 -51.870  1.00  0.00     0.015 A 
HETATM   29  C   UNL     1     -40.321  53.529 -51.159  1.00  0.00    -0.034 A 
HETATM   30  C   UNL     1     -39.826  53.841 -49.776  1.00  0.00     0.050 C 
HETATM   31  N   UNL     1     -42.068  55.326 -51.391  1.00  0.00    -0.358 N 
HETATM   32  H   UNL     1     -41.954  55.762 -50.488  1.00  0.00     0.166 HD
HETATM   33  C   UNL     1     -42.963  55.723 -52.345  1.00  0.00     0.013 A 
HETATM   34  C   UNL     1     -43.878  56.873 -52.114  1.00  0.00     0.068 C 
ENDBRANCH  21  22
ENDBRANCH   1  21
TORSDOF 8
ENDMDL
MODEL 9
REMARK VINA RESULT:      -8.0      2.236      2.768
REMARK  8 active torsions:
REMARK  status: ('A' for Active; 'I' for Inactive)
REMARK    1  A    between atoms: C_10  and  C_11 
REMARK    2  A    between atoms: C_11  and  C_12 
REMARK       I    between atoms: C_12  and  N_13 
REMARK    3  A    between atoms: N_13  and  N_14 
REMARK       I    between atoms: N_14  and  C_15 
REMARK    4  A    between atoms: C_15  and  C_16 
REMARK    5  A    between atoms: C_16  and  C_17 
REMARK    6  A    between atoms: C_17  and  C_18 
REMARK       I    between atoms: C_18  and  N_19 
REMARK    7  A    between atoms: N_19  and  C_20 
REMARK    8  A    between atoms: C_20  and  C_21 
ROOT
HETATM    1  C   UNL     1     -42.841  55.685 -55.638  1.00  0.00     0.240 C 
HETATM    2  N   UNL     1     -43.258  55.151 -56.845  1.00  0.00    -0.267 N 
HETATM    3  O   UNL     1     -41.945  56.528 -55.576  1.00  0.00    -0.272 OA
HETATM    4  H   UNL     1     -44.104  54.589 -56.935  1.00  0.00     0.190 HD
ENDROOT
BRANCH   2   5
HETATM    5  N   UNL     1     -42.789  55.764 -58.017  1.00  0.00    -0.268 N 
HETATM    6  C   UNL     1     -43.467  55.511 -59.192  1.00  0.00     0.236 C 
HETATM    7  O   UNL     1     -44.345  54.655 -59.288  1.00  0.00    -0.272 OA
HETATM    8  H   UNL     1     -42.252  56.621 -57.876  1.00  0.00     0.190 HD
BRANCH   6   9
HETATM    9  C   UNL     1     -43.052  56.419 -60.330  1.00  0.00     0.114 C 
BRANCH   9  10
HETATM   10  C   UNL     1     -42.083  57.501 -59.874  1.00  0.00     0.112 C 
BRANCH  10  11
HETATM   11  C   UNL     1     -42.651  58.885 -60.097  1.00  0.00     0.218 C 
HETATM   12  N   UNL     1     -41.989  59.882 -59.427  1.00  0.00    -0.355 N 
HETATM   13  H   UNL     1     -41.036  59.690 -59.114  1.00  0.00     0.162 HD
HETATM   14  O   UNL     1     -43.617  59.081 -60.828  1.00  0.00    -0.274 OA
BRANCH  12  15
HETATM   15  C   UNL     1     -42.359  61.265 -59.608  1.00  0.00     0.187 C 
BRANCH  15  16
HETATM   16  C   UNL     1     -41.124  62.069 -59.759  1.00  0.00     0.070 A 
HETATM   17  O   UNL     1     -40.779  62.436 -61.028  1.00  0.00    -0.325 OA
HETATM   18  C   UNL     1     -39.628  63.150 -60.935  1.00  0.00     0.142 A 
HETATM   19  C   UNL     1     -39.224  63.247 -59.624  1.00  0.00     0.027 A 
HETATM   20  C   UNL     1     -40.191  62.547 -58.861  1.00  0.00     0.036 A 
ENDBRANCH  15  16
ENDBRANCH  12  15
ENDBRANCH  10  11
ENDBRANCH   9  10
ENDBRANCH   6   9
ENDBRANCH   2   5
BRANCH   1  21
HETATM   21  C   UNL     1     -43.598  55.176 -54.435  1.00  0.00     0.146 C 
BRANCH  21  22
HETATM   22  C   UNL     1     -42.815  54.990 -53.167  1.00  0.00    -0.015 A 
HETATM   23  C   UNL     1     -41.774  54.050 -52.836  1.00  0.00     0.000 A 
HETATM   24  C   UNL     1     -41.107  53.016 -53.530  1.00  0.00     0.021 A 
HETATM   25  C   UNL     1     -41.397  54.288 -51.510  1.00  0.00     0.049 A 
HETATM   26  C   UNL     1     -40.113  52.254 -52.895  1.00  0.00    -0.061 A 
HETATM   27  C   UNL     1     -39.380  51.181 -53.646  1.00  0.00     0.048 C 
HETATM   28  C   UNL     1     -39.769  52.536 -51.572  1.00  0.00     0.015 A 
HETATM   29  C   UNL     1     -40.401  53.553 -50.837  1.00  0.00    -0.034 A 
HETATM   30  C   UNL     1     -39.971  53.805 -49.421  1.00  0.00     0.050 C 
HETATM   31  N   UNL     1     -42.165  55.336 -51.060  1.00  0.00    -0.358 N 
HETATM   32  H   UNL     1     -42.097  55.728 -50.132  1.00  0.00     0.166 HD
HETATM   33  C   UNL     1     -43.024  55.766 -52.032  1.00  0.00     0.013 A 
HETATM   34  C   UNL     1     -43.966  56.891 -51.786  1.00  0.00     0.068 C 
ENDBRANCH  21  22
ENDBRANCH   1  21
TORSDOF 8
ENDMDL
MODEL 10
REMARK VINA RESULT:      -8.0      2.386      4.777
REMARK  8 active torsions:
REMARK  status: ('A' for Active; 'I' for Inactive)
REMARK    1  A    between atoms: C_10  and  C_11 
REMARK    2  A    between atoms: C_11  and  C_12 
REMARK       I    between atoms: C_12  and  N_13 
REMARK    3  A    between atoms: N_13  and  N_14 
REMARK       I    between atoms: N_14  and  C_15 
REMARK    4  A    between atoms: C_15  and  C_16 
REMARK    5  A    between atoms: C_16  and  C_17 
REMARK    6  A    between atoms: C_17  and  C_18 
REMARK       I    between atoms: C_18  and  N_19 
REMARK    7  A    between atoms: N_19  and  C_20 
REMARK    8  A    between atoms: C_20  and  C_21 
ROOT
HETATM    1  C   UNL     1     -42.173  56.607 -50.962  1.00  0.00     0.240 C 
HETATM    2  N   UNL     1     -41.593  57.519 -51.827  1.00  0.00    -0.267 N 
HETATM    3  O   UNL     1     -43.379  56.363 -50.991  1.00  0.00    -0.272 OA
HETATM    4  H   UNL     1     -40.583  57.607 -51.937  1.00  0.00     0.190 HD
ENDROOT
BRANCH   2   5
HETATM    5  N   UNL     1     -42.379  57.990 -52.890  1.00  0.00    -0.268 N 
HETATM    6  C   UNL     1     -41.837  58.955 -53.715  1.00  0.00     0.236 C 
HETATM    7  O   UNL     1     -40.781  59.534 -53.464  1.00  0.00    -0.272 OA
HETATM    8  H   UNL     1     -43.105  57.348 -53.213  1.00  0.00     0.190 HD
BRANCH   6   9
HETATM    9  C   UNL     1     -42.649  59.194 -54.970  1.00  0.00     0.114 C 
BRANCH   9  10
HETATM   10  C   UNL     1     -42.096  60.347 -55.796  1.00  0.00     0.112 C 
BRANCH  10  11
HETATM   11  C   UNL     1     -42.041  60.000 -57.268  1.00  0.00     0.218 C 
HETATM   12  N   UNL     1     -43.082  59.219 -57.703  1.00  0.00    -0.355 N 
HETATM   13  H   UNL     1     -43.930  59.201 -57.134  1.00  0.00     0.162 HD
HETATM   14  O   UNL     1     -41.139  60.400 -57.996  1.00  0.00    -0.274 OA
BRANCH  12  15
HETATM   15  C   UNL     1     -43.215  58.877 -59.098  1.00  0.00     0.187 C 
BRANCH  15  16
HETATM   16  C   UNL     1     -43.471  57.422 -59.206  1.00  0.00     0.070 A 
HETATM   17  O   UNL     1     -43.812  56.945 -60.439  1.00  0.00    -0.325 OA
HETATM   18  C   UNL     1     -44.005  55.608 -60.308  1.00  0.00     0.142 A 
HETATM   19  C   UNL     1     -43.795  55.215 -59.006  1.00  0.00     0.027 A 
HETATM   20  C   UNL     1     -43.450  56.388 -58.292  1.00  0.00     0.036 A 
ENDBRANCH  15  16
ENDBRANCH  12  15
ENDBRANCH  10  11
ENDBRANCH   9  10
ENDBRANCH   6   9
ENDBRANCH   2   5
BRANCH   1  21
HETATM   21  C   UNL     1     -41.201  55.927 -50.028  1.00  0.00     0.146 C 
BRANCH  21  22
HETATM   22  C   UNL     1     -40.784  54.529 -50.382  1.00  0.00    -0.015 A 
HETATM   23  C   UNL     1     -40.571  53.909 -51.666  1.00  0.00     0.000 A 
HETATM   24  C   UNL     1     -40.642  54.345 -53.008  1.00  0.00     0.021 A 
HETATM   25  C   UNL     1     -40.214  52.576 -51.437  1.00  0.00     0.049 A 
HETATM   26  C   UNL     1     -40.375  53.459 -54.064  1.00  0.00    -0.061 A 
HETATM   27  C   UNL     1     -40.415  53.936 -55.487  1.00  0.00     0.048 C 
HETATM   28  C   UNL     1     -40.016  52.140 -53.782  1.00  0.00     0.015 A 
HETATM   29  C   UNL     1     -39.931  51.656 -52.465  1.00  0.00    -0.034 A 
HETATM   30  C   UNL     1     -39.529  50.227 -52.239  1.00  0.00     0.050 C 
HETATM   31  N   UNL     1     -40.197  52.397 -50.074  1.00  0.00    -0.358 N 
HETATM   32  H   UNL     1     -39.961  51.526 -49.622  1.00  0.00     0.166 HD
HETATM   33  C   UNL     1     -40.542  53.550 -49.425  1.00  0.00     0.013 A 
HETATM   34  C   UNL     1     -40.601  53.610 -47.940  1.00  0.00     0.068 C 
ENDBRANCH  21  22
ENDBRANCH   1  21
TORSDOF 8
ENDMDL
