MODEL 1
REMARK VINA RESULT:      -8.8      0.000      0.000
REMARK  5 active torsions:
REMARK  status: ('A' for Active; 'I' for Inactive)
REMARK    1  A    between atoms: C_7  and  C_8 
REMARK    2  A    between atoms: N_9  and  N_10 
REMARK       I    between atoms: N_10  and  C_11 
REMARK    3  A    between atoms: C_11  and  C_12 
REMARK    4  A    between atoms: C_12  and  N_13 
REMARK       I    between atoms: N_13  and  C_14 
REMARK    5  A    between atoms: C_14  and  C_15 
ROOT
HETATM    1  N   UNL     1     -42.635  55.895 -54.639  1.00  0.00    -0.246 N 
HETATM    2  C   UNL     1     -43.543  56.844 -54.194  1.00  0.00     0.255 C 
HETATM    3  O   UNL     1     -44.093  56.851 -53.093  1.00  0.00    -0.270 OA
HETATM    4  H   UNL     1     -42.229  55.995 -55.573  1.00  0.00     0.192 HD
ENDROOT
BRANCH   1   5
HETATM    5  N   UNL     1     -42.298  54.839 -53.845  1.00  0.00    -0.184 NA
HETATM    6  C   UNL     1     -41.081  54.836 -53.407  1.00  0.00     0.153 C 
BRANCH   6   7
HETATM    7  C   UNL     1     -40.610  53.746 -52.569  1.00  0.00     0.018 A 
HETATM    8  C   UNL     1     -40.384  53.784 -51.198  1.00  0.00     0.018 A 
HETATM    9  C   UNL     1     -40.536  54.887 -50.210  1.00  0.00     0.069 C 
HETATM   10  N   UNL     1     -39.955  52.540 -50.810  1.00  0.00    -0.358 N 
HETATM   11  H   UNL     1     -39.719  52.278 -49.863  1.00  0.00     0.166 HD
HETATM   12  C   UNL     1     -39.896  51.688 -51.886  1.00  0.00     0.043 A 
HETATM   13  C   UNL     1     -40.298  52.415 -53.007  1.00  0.00     0.004 A 
HETATM   14  C   UNL     1     -39.524  50.340 -51.946  1.00  0.00     0.030 A 
HETATM   15  C   UNL     1     -40.327  51.754 -54.254  1.00  0.00     0.014 A 
HETATM   16  C   UNL     1     -39.958  50.404 -54.332  1.00  0.00     0.001 A 
HETATM   17  C   UNL     1     -39.562  49.711 -53.193  1.00  0.00     0.002 A 
ENDBRANCH   6   7
ENDBRANCH   1   5
BRANCH   2  18
HETATM   18  C   UNL     1     -43.890  57.879 -55.265  1.00  0.00     0.227 C 
BRANCH  18  19
HETATM   19  N   UNL     1     -44.538  57.312 -56.437  1.00  0.00    -0.348 N 
HETATM   20  C   UNL     1     -44.342  57.801 -57.703  1.00  0.00     0.253 C 
HETATM   21  O   UNL     1     -43.677  58.819 -57.893  1.00  0.00    -0.268 OA
HETATM   22  H   UNL     1     -45.181  56.542 -56.287  1.00  0.00     0.163 HD
BRANCH  20  23
HETATM   23  C   UNL     1     -44.940  57.063 -58.858  1.00  0.00     0.053 A 
HETATM   24  C   UNL     1     -44.247  56.247 -59.766  1.00  0.00     0.049 A 
HETATM   25 CL   UNL     1     -42.556  55.899 -59.664  1.00  0.00    -0.083 Cl
HETATM   26  C   UNL     1     -44.933  55.633 -60.825  1.00  0.00     0.025 A 
HETATM   27  C   UNL     1     -46.305  55.816 -60.985  1.00  0.00     0.002 A 
HETATM   28  C   UNL     1     -47.005  56.610 -60.084  1.00  0.00     0.001 A 
HETATM   29  C   UNL     1     -46.328  57.227 -59.030  1.00  0.00     0.019 A 
ENDBRANCH  20  23
ENDBRANCH  18  19
ENDBRANCH   2  18
TORSDOF 5
ENDMDL
MODEL 2
REMARK VINA RESULT:      -8.7      1.079      1.432
REMARK  5 active torsions:
REMARK  status: ('A' for Active; 'I' for Inactive)
REMARK    1  A    between atoms: C_7  and  C_8 
REMARK    2  A    between atoms: N_9  and  N_10 
REMARK       I    between atoms: N_10  and  C_11 
REMARK    3  A    between atoms: C_11  and  C_12 
REMARK    4  A    between atoms: C_12  and  N_13 
REMARK       I    between atoms: N_13  and  C_14 
REMARK    5  A    between atoms: C_14  and  C_15 
ROOT
HETATM    1  N   UNL     1     -42.669  55.988 -54.350  1.00  0.00    -0.246 N 
HETATM    2  C   UNL     1     -43.550  56.970 -53.923  1.00  0.00     0.255 C 
HETATM    3  O   UNL     1     -44.064  57.036 -52.806  1.00  0.00    -0.270 OA
HETATM    4  H   UNL     1     -42.292  56.039 -55.301  1.00  0.00     0.192 HD
ENDROOT
BRANCH   1   5
HETATM    5  N   UNL     1     -42.317  54.968 -53.518  1.00  0.00    -0.184 NA
HETATM    6  C   UNL     1     -41.048  54.735 -53.425  1.00  0.00     0.153 C 
BRANCH   6   7
HETATM    7  C   UNL     1     -40.565  53.656 -52.581  1.00  0.00     0.018 A 
HETATM    8  C   UNL     1     -40.308  53.714 -51.215  1.00  0.00     0.018 A 
HETATM    9  C   UNL     1     -40.432  54.833 -50.242  1.00  0.00     0.069 C 
HETATM   10  N   UNL     1     -39.878  52.473 -50.817  1.00  0.00    -0.358 N 
HETATM   11  H   UNL     1     -39.622  52.225 -49.871  1.00  0.00     0.166 HD
HETATM   12  C   UNL     1     -39.847  51.604 -51.880  1.00  0.00     0.043 A 
HETATM   13  C   UNL     1     -40.270  52.316 -53.003  1.00  0.00     0.004 A 
HETATM   14  C   UNL     1     -39.484  50.253 -51.927  1.00  0.00     0.030 A 
HETATM   15  C   UNL     1     -40.330  51.635 -54.239  1.00  0.00     0.014 A 
HETATM   16  C   UNL     1     -39.971  50.282 -54.304  1.00  0.00     0.001 A 
HETATM   17  C   UNL     1     -39.554  49.605 -53.163  1.00  0.00     0.002 A 
ENDBRANCH   6   7
ENDBRANCH   1   5
BRANCH   2  18
HETATM   18  C   UNL     1     -43.922  57.956 -55.031  1.00  0.00     0.227 C 
BRANCH  18  19
HETATM   19  N   UNL     1     -44.448  57.319 -56.228  1.00  0.00    -0.348 N 
HETATM   20  C   UNL     1     -43.995  57.619 -57.488  1.00  0.00     0.253 C 
HETATM   21  O   UNL     1     -43.183  58.525 -57.670  1.00  0.00    -0.268 OA
HETATM   22  H   UNL     1     -45.200  56.650 -56.108  1.00  0.00     0.163 HD
BRANCH  20  23
HETATM   23  C   UNL     1     -44.497  56.810 -58.641  1.00  0.00     0.053 A 
HETATM   24  C   UNL     1     -45.705  57.009 -59.327  1.00  0.00     0.049 A 
HETATM   25 CL   UNL     1     -46.814  58.292 -58.988  1.00  0.00    -0.083 Cl
HETATM   26  C   UNL     1     -46.066  56.154 -60.379  1.00  0.00     0.025 A 
HETATM   27  C   UNL     1     -45.231  55.105 -60.762  1.00  0.00     0.002 A 
HETATM   28  C   UNL     1     -44.025  54.906 -60.100  1.00  0.00     0.001 A 
HETATM   29  C   UNL     1     -43.661  55.752 -59.050  1.00  0.00     0.019 A 
ENDBRANCH  20  23
ENDBRANCH  18  19
ENDBRANCH   2  18
TORSDOF 5
ENDMDL
MODEL 3
REMARK VINA RESULT:      -8.3      1.954      2.231
REMARK  5 active torsions:
REMARK  status: ('A' for Active; 'I' for Inactive)
REMARK    1  A    between atoms: C_7  and  C_8 
REMARK    2  A    between atoms: N_9  and  N_10 
REMARK       I    between atoms: N_10  and  C_11 
REMARK    3  A    between atoms: C_11  and  C_12 
REMARK    4  A    between atoms: C_12  and  N_13 
REMARK       I    between atoms: N_13  and  C_14 
REMARK    5  A    between atoms: C_14  and  C_15 
ROOT
HETATM    1  N   UNL     1     -41.828  57.574 -53.718  1.00  0.00    -0.246 N 
HETATM    2  C   UNL     1     -41.351  58.874 -53.798  1.00  0.00     0.255 C 
HETATM    3  O   UNL     1     -40.280  59.275 -53.344  1.00  0.00    -0.270 OA
HETATM    4  H   UNL     1     -42.732  57.350 -54.144  1.00  0.00     0.192 HD
ENDROOT
BRANCH   1   5
HETATM    5  N   UNL     1     -41.106  56.614 -53.075  1.00  0.00    -0.184 NA
HETATM    6  C   UNL     1     -41.715  55.488 -52.888  1.00  0.00     0.153 C 
BRANCH   6   7
HETATM    7  C   UNL     1     -41.044  54.403 -52.194  1.00  0.00     0.018 A 
HETATM    8  C   UNL     1     -40.699  54.358 -50.848  1.00  0.00     0.018 A 
HETATM    9  C   UNL     1     -40.889  55.350 -49.755  1.00  0.00     0.069 C 
HETATM   10  N   UNL     1     -40.092  53.150 -50.611  1.00  0.00    -0.358 N 
HETATM   11  H   UNL     1     -39.741  52.845 -49.714  1.00  0.00     0.166 HD
HETATM   12  C   UNL     1     -40.032  52.402 -51.761  1.00  0.00     0.043 A 
HETATM   13  C   UNL     1     -40.618  53.161 -52.775  1.00  0.00     0.004 A 
HETATM   14  C   UNL     1     -39.510  51.121 -51.974  1.00  0.00     0.030 A 
HETATM   15  C   UNL     1     -40.682  52.603 -54.071  1.00  0.00     0.014 A 
HETATM   16  C   UNL     1     -40.165  51.322 -54.301  1.00  0.00     0.001 A 
HETATM   17  C   UNL     1     -39.588  50.594 -53.266  1.00  0.00     0.002 A 
ENDBRANCH   6   7
ENDBRANCH   1   5
BRANCH   2  18
HETATM   18  C   UNL     1     -42.352  59.834 -54.444  1.00  0.00     0.227 C 
BRANCH  18  19
HETATM   19  N   UNL     1     -43.008  59.288 -55.622  1.00  0.00    -0.348 N 
HETATM   20  C   UNL     1     -42.451  59.342 -56.873  1.00  0.00     0.253 C 
HETATM   21  O   UNL     1     -41.401  59.952 -57.073  1.00  0.00    -0.268 OA
HETATM   22  H   UNL     1     -43.929  58.882 -55.495  1.00  0.00     0.163 HD
BRANCH  20  23
HETATM   23  C   UNL     1     -43.137  58.629 -57.995  1.00  0.00     0.053 A 
HETATM   24  C   UNL     1     -43.297  57.240 -58.116  1.00  0.00     0.049 A 
HETATM   25 CL   UNL     1     -42.771  56.095 -56.932  1.00  0.00    -0.083 Cl
HETATM   26  C   UNL     1     -43.941  56.702 -59.241  1.00  0.00     0.025 A 
HETATM   27  C   UNL     1     -44.435  57.535 -60.244  1.00  0.00     0.002 A 
HETATM   28  C   UNL     1     -44.295  58.913 -60.128  1.00  0.00     0.001 A 
HETATM   29  C   UNL     1     -43.653  59.455 -59.013  1.00  0.00     0.019 A 
ENDBRANCH  20  23
ENDBRANCH  18  19
ENDBRANCH   2  18
TORSDOF 5
ENDMDL
MODEL 4
REMARK VINA RESULT:      -8.0      2.511      2.811
REMARK  5 active torsions:
REMARK  status: ('A' for Active; 'I' for Inactive)
REMARK    1  A    between atoms: C_7  and  C_8 
REMARK    2  A    between atoms: N_9  and  N_10 
REMARK       I    between atoms: N_10  and  C_11 
REMARK    3  A    between atoms: C_11  and  C_12 
REMARK    4  A    between atoms: C_12  and  N_13 
REMARK       I    between atoms: N_13  and  C_14 
REMARK    5  A    between atoms: C_14  and  C_15 
ROOT
HETATM    1  N   UNL     1     -43.042  56.560 -52.839  1.00  0.00    -0.246 N 
HETATM    2  C   UNL     1     -43.689  56.625 -54.064  1.00  0.00     0.255 C 
HETATM    3  O   UNL     1     -43.949  55.666 -54.790  1.00  0.00    -0.270 OA
HETATM    4  H   UNL     1     -42.889  57.424 -52.312  1.00  0.00     0.192 HD
ENDROOT
BRANCH   1   5
HETATM    5  N   UNL     1     -42.610  55.363 -52.351  1.00  0.00    -0.184 NA
HETATM    6  C   UNL     1     -41.327  55.222 -52.271  1.00  0.00     0.153 C 
BRANCH   6   7
HETATM    7  C   UNL     1     -40.759  53.978 -51.783  1.00  0.00     0.018 A 
HETATM    8  C   UNL     1     -40.420  53.672 -50.470  1.00  0.00     0.018 A 
HETATM    9  C   UNL     1     -40.518  54.475 -49.220  1.00  0.00     0.069 C 
HETATM   10  N   UNL     1     -39.926  52.392 -50.452  1.00  0.00    -0.358 N 
HETATM   11  H   UNL     1     -39.605  51.907 -49.625  1.00  0.00     0.166 HD
HETATM   12  C   UNL     1     -39.935  51.849 -51.713  1.00  0.00     0.043 A 
HETATM   13  C   UNL     1     -40.448  52.820 -52.574  1.00  0.00     0.004 A 
HETATM   14  C   UNL     1     -39.532  50.582 -52.149  1.00  0.00     0.030 A 
HETATM   15  C   UNL     1     -40.563  52.501 -53.944  1.00  0.00     0.014 A 
HETATM   16  C   UNL     1     -40.166  51.237 -54.398  1.00  0.00     0.001 A 
HETATM   17  C   UNL     1     -39.658  50.293 -53.511  1.00  0.00     0.002 A 
ENDBRANCH   6   7
ENDBRANCH   1   5
BRANCH   2  18
HETATM   18  C   UNL     1     -43.985  58.060 -54.502  1.00  0.00     0.227 C 
BRANCH  18  19
HETATM   19  N   UNL     1     -43.717  58.309 -55.910  1.00  0.00    -0.348 N 
HETATM   20  C   UNL     1     -42.542  58.858 -56.356  1.00  0.00     0.253 C 
HETATM   21  O   UNL     1     -41.692  59.262 -55.564  1.00  0.00    -0.268 OA
HETATM   22  H   UNL     1     -44.454  58.087 -56.570  1.00  0.00     0.163 HD
BRANCH  20  23
HETATM   23  C   UNL     1     -42.304  58.943 -57.830  1.00  0.00     0.053 A 
HETATM   24  C   UNL     1     -42.136  60.121 -58.573  1.00  0.00     0.049 A 
HETATM   25 CL   UNL     1     -42.112  61.708 -57.886  1.00  0.00    -0.083 Cl
HETATM   26  C   UNL     1     -41.947  60.056 -59.962  1.00  0.00     0.025 A 
HETATM   27  C   UNL     1     -41.916  58.826 -60.619  1.00  0.00     0.002 A 
HETATM   28  C   UNL     1     -42.066  57.651 -59.891  1.00  0.00     0.001 A 
HETATM   29  C   UNL     1     -42.258  57.710 -58.509  1.00  0.00     0.019 A 
ENDBRANCH  20  23
ENDBRANCH  18  19
ENDBRANCH   2  18
TORSDOF 5
ENDMDL
MODEL 5
REMARK VINA RESULT:      -8.0      3.192      8.764
REMARK  5 active torsions:
REMARK  status: ('A' for Active; 'I' for Inactive)
REMARK    1  A    between atoms: C_7  and  C_8 
REMARK    2  A    between atoms: N_9  and  N_10 
REMARK       I    between atoms: N_10  and  C_11 
REMARK    3  A    between atoms: C_11  and  C_12 
REMARK    4  A    between atoms: C_12  and  N_13 
REMARK       I    between atoms: N_13  and  C_14 
REMARK    5  A    between atoms: C_14  and  C_15 
ROOT
HETATM    1  N   UNL     1     -43.204  56.667 -54.743  1.00  0.00    -0.246 N 
HETATM    2  C   UNL     1     -43.875  57.189 -53.648  1.00  0.00     0.255 C 
HETATM    3  O   UNL     1     -44.673  58.126 -53.675  1.00  0.00    -0.270 OA
HETATM    4  H   UNL     1     -42.569  55.875 -54.606  1.00  0.00     0.192 HD
ENDROOT
BRANCH   1   5
HETATM    5  N   UNL     1     -43.381  57.207 -55.982  1.00  0.00    -0.184 NA
HETATM    6  C   UNL     1     -42.422  57.001 -56.825  1.00  0.00     0.153 C 
BRANCH   6   7
HETATM    7  C   UNL     1     -42.500  57.550 -58.167  1.00  0.00     0.018 A 
HETATM    8  C   UNL     1     -42.951  56.900 -59.311  1.00  0.00     0.018 A 
HETATM    9  C   UNL     1     -43.460  55.517 -59.515  1.00  0.00     0.069 C 
HETATM   10  N   UNL     1     -42.864  57.785 -60.356  1.00  0.00    -0.358 N 
HETATM   11  H   UNL     1     -43.130  57.582 -61.310  1.00  0.00     0.166 HD
HETATM   12  C   UNL     1     -42.373  58.995 -59.931  1.00  0.00     0.043 A 
HETATM   13  C   UNL     1     -42.130  58.880 -58.562  1.00  0.00     0.004 A 
HETATM   14  C   UNL     1     -42.132  60.171 -60.651  1.00  0.00     0.030 A 
HETATM   15  C   UNL     1     -41.618  60.006 -57.880  1.00  0.00     0.014 A 
HETATM   16  C   UNL     1     -41.372  61.191 -58.585  1.00  0.00     0.001 A 
HETATM   17  C   UNL     1     -41.625  61.269 -59.951  1.00  0.00     0.002 A 
ENDBRANCH   6   7
ENDBRANCH   1   5
BRANCH   2  18
HETATM   18  C   UNL     1     -43.454  56.538 -52.330  1.00  0.00     0.227 C 
BRANCH  18  19
HETATM   19  N   UNL     1     -42.380  55.568 -52.473  1.00  0.00    -0.348 N 
HETATM   20  C   UNL     1     -42.538  54.237 -52.182  1.00  0.00     0.253 C 
HETATM   21  O   UNL     1     -43.582  53.818 -51.684  1.00  0.00    -0.268 OA
HETATM   22  H   UNL     1     -41.476  55.916 -52.774  1.00  0.00     0.163 HD
BRANCH  20  23
HETATM   23  C   UNL     1     -41.418  53.297 -52.497  1.00  0.00     0.053 A 
HETATM   24  C   UNL     1     -40.472  52.804 -51.585  1.00  0.00     0.049 A 
HETATM   25 CL   UNL     1     -40.477  53.159 -49.892  1.00  0.00    -0.083 Cl
HETATM   26  C   UNL     1     -39.453  51.945 -52.024  1.00  0.00     0.025 A 
HETATM   27  C   UNL     1     -39.371  51.564 -53.363  1.00  0.00     0.002 A 
HETATM   28  C   UNL     1     -40.311  52.034 -54.272  1.00  0.00     0.001 A 
HETATM   29  C   UNL     1     -41.326  52.892 -53.842  1.00  0.00     0.019 A 
ENDBRANCH  20  23
ENDBRANCH  18  19
ENDBRANCH   2  18
TORSDOF 5
ENDMDL
MODEL 6
REMARK VINA RESULT:      -7.8      1.445      2.807
REMARK  5 active torsions:
REMARK  status: ('A' for Active; 'I' for Inactive)
REMARK    1  A    between atoms: C_7  and  C_8 
REMARK    2  A    between atoms: N_9  and  N_10 
REMARK       I    between atoms: N_10  and  C_11 
REMARK    3  A    between atoms: C_11  and  C_12 
REMARK    4  A    between atoms: C_12  and  N_13 
REMARK       I    between atoms: N_13  and  C_14 
REMARK    5  A    between atoms: C_14  and  C_15 
ROOT
HETATM    1  N   UNL     1     -43.442  56.653 -54.720  1.00  0.00    -0.246 N 
HETATM    2  C   UNL     1     -43.948  57.894 -54.359  1.00  0.00     0.255 C 
HETATM    3  O   UNL     1     -43.557  58.582 -53.417  1.00  0.00    -0.270 OA
HETATM    4  H   UNL     1     -43.837  56.173 -55.533  1.00  0.00     0.192 HD
ENDROOT
BRANCH   1   5
HETATM    5  N   UNL     1     -42.440  56.081 -53.994  1.00  0.00    -0.184 NA
HETATM    6  C   UNL     1     -42.683  54.891 -53.548  1.00  0.00     0.153 C 
BRANCH   6   7
HETATM    7  C   UNL     1     -41.691  54.197 -52.746  1.00  0.00     0.018 A 
HETATM    8  C   UNL     1     -40.829  53.191 -53.168  1.00  0.00     0.018 A 
HETATM    9  C   UNL     1     -40.662  52.538 -54.496  1.00  0.00     0.069 C 
HETATM   10  N   UNL     1     -40.055  52.824 -52.096  1.00  0.00    -0.358 N 
HETATM   11  H   UNL     1     -39.337  52.113 -52.117  1.00  0.00     0.166 HD
HETATM   12  C   UNL     1     -40.383  53.562 -50.985  1.00  0.00     0.043 A 
HETATM   13  C   UNL     1     -41.409  54.431 -51.357  1.00  0.00     0.004 A 
HETATM   14  C   UNL     1     -39.848  53.525 -49.692  1.00  0.00     0.030 A 
HETATM   15  C   UNL     1     -41.925  55.309 -50.380  1.00  0.00     0.014 A 
HETATM   16  C   UNL     1     -41.401  55.286 -49.081  1.00  0.00     0.001 A 
HETATM   17  C   UNL     1     -40.378  54.405 -48.745  1.00  0.00     0.002 A 
ENDBRANCH   6   7
ENDBRANCH   1   5
BRANCH   2  18
HETATM   18  C   UNL     1     -45.147  58.314 -55.211  1.00  0.00     0.227 C 
BRANCH  18  19
HETATM   19  N   UNL     1     -45.332  57.501 -56.402  1.00  0.00    -0.348 N 
HETATM   20  C   UNL     1     -45.170  57.997 -57.671  1.00  0.00     0.253 C 
HETATM   21  O   UNL     1     -44.956  59.194 -57.860  1.00  0.00    -0.268 OA
HETATM   22  H   UNL     1     -45.621  56.539 -56.269  1.00  0.00     0.163 HD
BRANCH  20  23
HETATM   23  C   UNL     1     -45.243  57.050 -58.825  1.00  0.00     0.053 A 
HETATM   24  C   UNL     1     -44.246  56.142 -59.214  1.00  0.00     0.049 A 
HETATM   25 CL   UNL     1     -42.755  55.914 -58.366  1.00  0.00    -0.083 Cl
HETATM   26  C   UNL     1     -44.436  55.326 -60.340  1.00  0.00     0.025 A 
HETATM   27  C   UNL     1     -45.616  55.401 -61.080  1.00  0.00     0.002 A 
HETATM   28  C   UNL     1     -46.616  56.286 -60.697  1.00  0.00     0.001 A 
HETATM   29  C   UNL     1     -46.432  57.102 -59.579  1.00  0.00     0.019 A 
ENDBRANCH  20  23
ENDBRANCH  18  19
ENDBRANCH   2  18
TORSDOF 5
ENDMDL
MODEL 7
REMARK VINA RESULT:      -7.6     15.572     18.121
REMARK  5 active torsions:
REMARK  status: ('A' for Active; 'I' for Inactive)
REMARK    1  A    between atoms: C_7  and  C_8 
REMARK    2  A    between atoms: N_9  and  N_10 
REMARK       I    between atoms: N_10  and  C_11 
REMARK    3  A    between atoms: C_11  and  C_12 
REMARK    4  A    between atoms: C_12  and  N_13 
REMARK       I    between atoms: N_13  and  C_14 
REMARK    5  A    between atoms: C_14  and  C_15 
ROOT
HETATM    1  N   UNL     1     -38.720  39.650 -51.043  1.00  0.00    -0.246 N 
HETATM    2  C   UNL     1     -38.810  38.340 -50.596  1.00  0.00     0.255 C 
HETATM    3  O   UNL     1     -38.006  37.441 -50.840  1.00  0.00    -0.270 OA
HETATM    4  H   UNL     1     -39.442  40.320 -50.767  1.00  0.00     0.192 HD
ENDROOT
BRANCH   1   5
HETATM    5  N   UNL     1     -37.688  40.034 -51.846  1.00  0.00    -0.184 NA
HETATM    6  C   UNL     1     -37.914  41.065 -52.593  1.00  0.00     0.153 C 
BRANCH   6   7
HETATM    7  C   UNL     1     -36.889  41.547 -53.501  1.00  0.00     0.018 A 
HETATM    8  C   UNL     1     -35.637  42.046 -53.160  1.00  0.00     0.018 A 
HETATM    9  C   UNL     1     -34.988  42.241 -51.834  1.00  0.00     0.069 C 
HETATM   10  N   UNL     1     -34.986  42.378 -54.322  1.00  0.00    -0.358 N 
HETATM   11  H   UNL     1     -34.053  42.762 -54.373  1.00  0.00     0.166 HD
HETATM   12  C   UNL     1     -35.774  42.108 -55.414  1.00  0.00     0.043 A 
HETATM   13  C   UNL     1     -36.977  41.589 -54.934  1.00  0.00     0.004 A 
HETATM   14  C   UNL     1     -35.510  42.281 -56.777  1.00  0.00     0.030 A 
HETATM   15  C   UNL     1     -37.967  41.225 -55.873  1.00  0.00     0.014 A 
HETATM   16  C   UNL     1     -37.718  41.390 -57.242  1.00  0.00     0.001 A 
HETATM   17  C   UNL     1     -36.507  41.912 -57.684  1.00  0.00     0.002 A 
ENDBRANCH   6   7
ENDBRANCH   1   5
BRANCH   2  18
HETATM   18  C   UNL     1     -40.097  38.068 -49.815  1.00  0.00     0.227 C 
BRANCH  18  19
HETATM   19  N   UNL     1     -40.003  38.396 -48.401  1.00  0.00    -0.348 N 
HETATM   20  C   UNL     1     -41.058  38.902 -47.685  1.00  0.00     0.253 C 
HETATM   21  O   UNL     1     -42.115  39.200 -48.240  1.00  0.00    -0.268 OA
HETATM   22  H   UNL     1     -39.104  38.265 -47.951  1.00  0.00     0.163 HD
BRANCH  20  23
HETATM   23  C   UNL     1     -40.905  39.073 -46.208  1.00  0.00     0.053 A 
HETATM   24  C   UNL     1     -40.319  38.153 -45.325  1.00  0.00     0.049 A 
HETATM   25 CL   UNL     1     -39.601  36.658 -45.817  1.00  0.00    -0.083 Cl
HETATM   26  C   UNL     1     -40.266  38.431 -43.951  1.00  0.00     0.025 A 
HETATM   27  C   UNL     1     -40.785  39.623 -43.446  1.00  0.00     0.002 A 
HETATM   28  C   UNL     1     -41.354  40.549 -44.312  1.00  0.00     0.001 A 
HETATM   29  C   UNL     1     -41.413  40.277 -45.680  1.00  0.00     0.019 A 
ENDBRANCH  20  23
ENDBRANCH  18  19
ENDBRANCH   2  18
TORSDOF 5
ENDMDL
MODEL 8
REMARK VINA RESULT:      -7.6      5.370      7.492
REMARK  5 active torsions:
REMARK  status: ('A' for Active; 'I' for Inactive)
REMARK    1  A    between atoms: C_7  and  C_8 
REMARK    2  A    between atoms: N_9  and  N_10 
REMARK       I    between atoms: N_10  and  C_11 
REMARK    3  A    between atoms: C_11  and  C_12 
REMARK    4  A    between atoms: C_12  and  N_13 
REMARK       I    between atoms: N_13  and  C_14 
REMARK    5  A    between atoms: C_14  and  C_15 
ROOT
HETATM    1  N   UNL     1     -44.500  56.211 -50.718  1.00  0.00    -0.246 N 
HETATM    2  C   UNL     1     -44.442  57.436 -51.365  1.00  0.00     0.255 C 
HETATM    3  O   UNL     1     -43.665  57.732 -52.273  1.00  0.00    -0.270 OA
HETATM    4  H   UNL     1     -45.197  56.071 -49.982  1.00  0.00     0.192 HD
ENDROOT
BRANCH   1   5
HETATM    5  N   UNL     1     -43.635  55.213 -51.054  1.00  0.00    -0.184 NA
HETATM    6  C   UNL     1     -42.510  55.210 -50.416  1.00  0.00     0.153 C 
BRANCH   6   7
HETATM    7  C   UNL     1     -41.507  54.201 -50.711  1.00  0.00     0.018 A 
HETATM    8  C   UNL     1     -40.612  53.626 -49.816  1.00  0.00     0.018 A 
HETATM    9  C   UNL     1     -40.402  53.851 -48.359  1.00  0.00     0.069 C 
HETATM   10  N   UNL     1     -39.852  52.718 -50.509  1.00  0.00    -0.358 N 
HETATM   11  H   UNL     1     -39.121  52.148 -50.107  1.00  0.00     0.166 HD
HETATM   12  C   UNL     1     -40.225  52.679 -51.830  1.00  0.00     0.043 A 
HETATM   13  C   UNL     1     -41.259  53.601 -51.991  1.00  0.00     0.004 A 
HETATM   14  C   UNL     1     -39.729  51.900 -52.882  1.00  0.00     0.030 A 
HETATM   15  C   UNL     1     -41.825  53.749 -53.277  1.00  0.00     0.014 A 
HETATM   16  C   UNL     1     -41.341  52.976 -54.340  1.00  0.00     0.001 A 
HETATM   17  C   UNL     1     -40.308  52.066 -54.143  1.00  0.00     0.002 A 
ENDBRANCH   6   7
ENDBRANCH   1   5
BRANCH   2  18
HETATM   18  C   UNL     1     -45.402  58.467 -50.769  1.00  0.00     0.227 C 
BRANCH  18  19
HETATM   19  N   UNL     1     -44.750  59.694 -50.341  1.00  0.00    -0.348 N 
HETATM   20  C   UNL     1     -45.272  60.938 -50.592  1.00  0.00     0.253 C 
HETATM   21  O   UNL     1     -46.277  61.074 -51.287  1.00  0.00    -0.268 OA
HETATM   22  H   UNL     1     -43.859  59.607 -49.865  1.00  0.00     0.163 HD
BRANCH  20  23
HETATM   23  C   UNL     1     -44.602  62.131 -49.989  1.00  0.00     0.053 A 
HETATM   24  C   UNL     1     -45.002  62.803 -48.824  1.00  0.00     0.049 A 
HETATM   25 CL   UNL     1     -46.331  62.316 -47.830  1.00  0.00    -0.083 Cl
HETATM   26  C   UNL     1     -44.294  63.932 -48.384  1.00  0.00     0.025 A 
HETATM   27  C   UNL     1     -43.184  64.395 -49.089  1.00  0.00     0.002 A 
HETATM   28  C   UNL     1     -42.769  63.729 -50.236  1.00  0.00     0.001 A 
HETATM   29  C   UNL     1     -43.471  62.607 -50.681  1.00  0.00     0.019 A 
ENDBRANCH  20  23
ENDBRANCH  18  19
ENDBRANCH   2  18
TORSDOF 5
ENDMDL
MODEL 9
REMARK VINA RESULT:      -7.5      3.984      5.960
REMARK  5 active torsions:
REMARK  status: ('A' for Active; 'I' for Inactive)
REMARK    1  A    between atoms: C_7  and  C_8 
REMARK    2  A    between atoms: N_9  and  N_10 
REMARK       I    between atoms: N_10  and  C_11 
REMARK    3  A    between atoms: C_11  and  C_12 
REMARK    4  A    between atoms: C_12  and  N_13 
REMARK       I    between atoms: N_13  and  C_14 
REMARK    5  A    between atoms: C_14  and  C_15 
ROOT
HETATM    1  N   UNL     1     -43.946  56.358 -52.542  1.00  0.00    -0.246 N 
HETATM    2  C   UNL     1     -44.212  56.632 -53.875  1.00  0.00     0.255 C 
HETATM    3  O   UNL     1     -43.921  55.910 -54.828  1.00  0.00    -0.270 OA
HETATM    4  H   UNL     1     -44.245  57.028 -51.828  1.00  0.00     0.192 HD
ENDROOT
BRANCH   1   5
HETATM    5  N   UNL     1     -43.288  55.217 -52.191  1.00  0.00    -0.184 NA
HETATM    6  C   UNL     1     -42.034  55.359 -51.907  1.00  0.00     0.153 C 
BRANCH   6   7
HETATM    7  C   UNL     1     -41.234  54.204 -51.540  1.00  0.00     0.018 A 
HETATM    8  C   UNL     1     -40.788  53.867 -50.268  1.00  0.00     0.018 A 
HETATM    9  C   UNL     1     -40.970  54.543 -48.954  1.00  0.00     0.069 C 
HETATM   10  N   UNL     1     -40.076  52.698 -50.370  1.00  0.00    -0.358 N 
HETATM   11  H   UNL     1     -39.637  52.218 -49.596  1.00  0.00     0.166 HD
HETATM   12  C   UNL     1     -40.045  52.259 -51.671  1.00  0.00     0.043 A 
HETATM   13  C   UNL     1     -40.760  53.184 -52.432  1.00  0.00     0.004 A 
HETATM   14  C   UNL     1     -39.446  51.120 -52.221  1.00  0.00     0.030 A 
HETATM   15  C   UNL     1     -40.879  52.953 -53.820  1.00  0.00     0.014 A 
HETATM   16  C   UNL     1     -40.286  51.818 -54.388  1.00  0.00     0.001 A 
HETATM   17  C   UNL     1     -39.580  50.917 -53.597  1.00  0.00     0.002 A 
ENDBRANCH   6   7
ENDBRANCH   1   5
BRANCH   2  18
HETATM   18  C   UNL     1     -44.841  58.011 -54.082  1.00  0.00     0.227 C 
BRANCH  18  19
HETATM   19  N   UNL     1     -44.691  58.900 -52.941  1.00  0.00    -0.348 N 
HETATM   20  C   UNL     1     -45.228  60.161 -52.907  1.00  0.00     0.253 C 
HETATM   21  O   UNL     1     -45.784  60.640 -53.896  1.00  0.00    -0.268 OA
HETATM   22  H   UNL     1     -44.137  58.565 -52.160  1.00  0.00     0.163 HD
BRANCH  20  23
HETATM   23  C   UNL     1     -45.141  60.944 -51.636  1.00  0.00     0.053 A 
HETATM   24  C   UNL     1     -43.983  61.147 -50.868  1.00  0.00     0.049 A 
HETATM   25 CL   UNL     1     -42.414  60.565 -51.305  1.00  0.00    -0.083 Cl
HETATM   26  C   UNL     1     -44.050  61.883 -49.676  1.00  0.00     0.025 A 
HETATM   27  C   UNL     1     -45.258  62.429 -49.243  1.00  0.00     0.002 A 
HETATM   28  C   UNL     1     -46.408  62.247 -50.003  1.00  0.00     0.001 A 
HETATM   29  C   UNL     1     -46.349  61.512 -51.189  1.00  0.00     0.019 A 
ENDBRANCH  20  23
ENDBRANCH  18  19
ENDBRANCH   2  18
TORSDOF 5
ENDMDL
MODEL 10
REMARK VINA RESULT:      -7.5      3.541      9.299
REMARK  5 active torsions:
REMARK  status: ('A' for Active; 'I' for Inactive)
REMARK    1  A    between atoms: C_7  and  C_8 
REMARK    2  A    between atoms: N_9  and  N_10 
REMARK       I    between atoms: N_10  and  C_11 
REMARK    3  A    between atoms: C_11  and  C_12 
REMARK    4  A    between atoms: C_12  and  N_13 
REMARK       I    between atoms: N_13  and  C_14 
REMARK    5  A    between atoms: C_14  and  C_15 
ROOT
HETATM    1  N   UNL     1     -42.699  57.884 -55.592  1.00  0.00    -0.246 N 
HETATM    2  C   UNL     1     -42.082  58.419 -54.472  1.00  0.00     0.255 C 
HETATM    3  O   UNL     1     -41.178  59.253 -54.480  1.00  0.00    -0.270 OA
HETATM    4  H   UNL     1     -43.452  57.202 -55.467  1.00  0.00     0.192 HD
ENDROOT
BRANCH   1   5
HETATM    5  N   UNL     1     -42.302  58.256 -56.842  1.00  0.00    -0.184 NA
HETATM    6  C   UNL     1     -42.980  59.217 -57.381  1.00  0.00     0.153 C 
BRANCH   6   7
HETATM    7  C   UNL     1     -42.654  59.679 -58.718  1.00  0.00     0.018 A 
HETATM    8  C   UNL     1     -43.141  59.175 -59.919  1.00  0.00     0.018 A 
HETATM    9  C   UNL     1     -44.091  58.064 -60.201  1.00  0.00     0.069 C 
HETATM   10  N   UNL     1     -42.583  59.905 -60.938  1.00  0.00    -0.358 N 
HETATM   11  H   UNL     1     -42.763  59.759 -61.921  1.00  0.00     0.166 HD
HETATM   12  C   UNL     1     -41.747  60.875 -60.440  1.00  0.00     0.043 A 
HETATM   13  C   UNL     1     -41.766  60.757 -59.050  1.00  0.00     0.004 A 
HETATM   14  C   UNL     1     -40.986  61.838 -61.113  1.00  0.00     0.030 A 
HETATM   15  C   UNL     1     -40.979  61.655 -58.295  1.00  0.00     0.014 A 
HETATM   16  C   UNL     1     -40.212  62.626 -58.953  1.00  0.00     0.001 A 
HETATM   17  C   UNL     1     -40.218  62.713 -60.341  1.00  0.00     0.002 A 
ENDBRANCH   6   7
ENDBRANCH   1   5
BRANCH   2  18
HETATM   18  C   UNL     1     -42.574  57.789 -53.167  1.00  0.00     0.227 C 
BRANCH  18  19
HETATM   19  N   UNL     1     -41.845  56.590 -52.785  1.00  0.00    -0.348 N 
HETATM   20  C   UNL     1     -42.217  55.335 -53.193  1.00  0.00     0.253 C 
HETATM   21  O   UNL     1     -43.257  55.157 -53.826  1.00  0.00    -0.268 OA
HETATM   22  H   UNL     1     -41.050  56.706 -52.167  1.00  0.00     0.163 HD
BRANCH  20  23
HETATM   23  C   UNL     1     -41.324  54.181 -52.865  1.00  0.00     0.053 A 
HETATM   24  C   UNL     1     -40.516  53.478 -53.772  1.00  0.00     0.049 A 
HETATM   25 CL   UNL     1     -40.363  53.876 -55.448  1.00  0.00    -0.083 Cl
HETATM   26  C   UNL     1     -39.744  52.392 -53.331  1.00  0.00     0.025 A 
HETATM   27  C   UNL     1     -39.763  52.003 -51.992  1.00  0.00     0.002 A 
HETATM   28  C   UNL     1     -40.549  52.700 -51.082  1.00  0.00     0.001 A 
HETATM   29  C   UNL     1     -41.321  53.780 -51.515  1.00  0.00     0.019 A 
ENDBRANCH  20  23
ENDBRANCH  18  19
ENDBRANCH   2  18
TORSDOF 5
ENDMDL
