MODEL 1
REMARK VINA RESULT:      -8.4      0.000      0.000
REMARK  4 active torsions:
REMARK  status: ('A' for Active; 'I' for Inactive)
REMARK    1  A    between atoms: C_5  and  C_6 
REMARK    2  A    between atoms: C_14  and  C_15 
REMARK       I    between atoms: C_15  and  N_16 
REMARK    3  A    between atoms: N_16  and  C_17 
REMARK    4  A    between atoms: C_23  and  N_24 
ROOT
HETATM    1  C   UNL     1     -43.060  56.915 -55.946  1.00  0.00     0.262 C 
HETATM    2  N   UNL     1     -41.744  56.533 -55.829  1.00  0.00    -0.301 N 
HETATM    3  O   UNL     1     -44.028  56.293 -55.528  1.00  0.00    -0.267 OA
HETATM    4  H   UNL     1     -41.017  57.003 -56.340  1.00  0.00     0.171 HD
ENDROOT
BRANCH   1   5
HETATM    5  C   UNL     1     -43.244  58.154 -56.687  1.00  0.00     0.095 A 
HETATM    6  C   UNL     1     -42.748  59.382 -56.300  1.00  0.00     0.093 A 
HETATM    7  C   UNL     1     -41.962  59.853 -55.142  1.00  0.00     0.080 C 
HETATM    8  O   UNL     1     -43.093  60.323 -57.214  1.00  0.00    -0.217 OA
HETATM    9  N   UNL     1     -43.809  59.735 -58.235  1.00  0.00    -0.127 NA
HETATM   10  C   UNL     1     -43.884  58.431 -57.934  1.00  0.00     0.116 A 
BRANCH  10  11
HETATM   11  C   UNL     1     -44.534  57.512 -58.862  1.00  0.00     0.039 A 
HETATM   12  C   UNL     1     -45.930  57.352 -58.856  1.00  0.00     0.048 A 
HETATM   13 CL   UNL     1     -46.957  58.228 -57.776  1.00  0.00    -0.083 Cl
HETATM   14  C   UNL     1     -46.548  56.475 -59.756  1.00  0.00     0.025 A 
HETATM   15  C   UNL     1     -45.786  55.748 -60.667  1.00  0.00     0.003 A 
HETATM   16  C   UNL     1     -44.401  55.901 -60.686  1.00  0.00     0.025 A 
HETATM   17  C   UNL     1     -43.778  56.778 -59.792  1.00  0.00     0.048 A 
HETATM   18 CL   UNL     1     -42.065  56.974 -59.945  1.00  0.00    -0.083 Cl
ENDBRANCH  10  11
ENDBRANCH   1   5
BRANCH   2  19
HETATM   19  C   UNL     1     -41.358  55.440 -55.107  1.00  0.00     0.174 A 
HETATM   20  S   UNL     1     -41.508  55.649 -53.422  1.00  0.00    -0.050 SA
HETATM   21  C   UNL     1     -40.905  54.052 -53.181  1.00  0.00     0.039 A 
HETATM   22  C   UNL     1     -40.646  53.477 -54.430  1.00  0.00     0.077 A 
HETATM   23  C   UNL     1     -40.680  53.363 -51.976  1.00  0.00     0.057 A 
HETATM   24  N   UNL     1     -40.919  54.283 -55.518  1.00  0.00    -0.223 NA
HETATM   25  C   UNL     1     -40.140  52.162 -54.481  1.00  0.00     0.035 A 
HETATM   26  C   UNL     1     -39.902  51.455 -53.296  1.00  0.00     0.038 A 
HETATM   27  C   UNL     1     -40.171  52.055 -52.062  1.00  0.00     0.104 A 
BRANCH  27  28
HETATM   28  N   UNL     1     -39.916  51.307 -50.822  1.00  0.00    -0.116 N 
HETATM   29  O   UNL     1     -40.302  51.810 -49.757  1.00  0.00    -0.532 OA
HETATM   30  O   UNL     1     -39.329  50.219 -50.916  1.00  0.00    -0.532 OA
ENDBRANCH  27  28
ENDBRANCH   2  19
TORSDOF 4
ENDMDL
MODEL 2
REMARK VINA RESULT:      -8.3      0.652      1.823
REMARK  4 active torsions:
REMARK  status: ('A' for Active; 'I' for Inactive)
REMARK    1  A    between atoms: C_5  and  C_6 
REMARK    2  A    between atoms: C_14  and  C_15 
REMARK       I    between atoms: C_15  and  N_16 
REMARK    3  A    between atoms: N_16  and  C_17 
REMARK    4  A    between atoms: C_23  and  N_24 
ROOT
HETATM    1  C   UNL     1     -43.311  57.389 -56.186  1.00  0.00     0.262 C 
HETATM    2  N   UNL     1     -42.038  56.871 -56.188  1.00  0.00    -0.301 N 
HETATM    3  O   UNL     1     -44.259  56.962 -55.538  1.00  0.00    -0.267 OA
HETATM    4  H   UNL     1     -41.357  57.165 -56.867  1.00  0.00     0.171 HD
ENDROOT
BRANCH   1   5
HETATM    5  C   UNL     1     -43.487  58.513 -57.093  1.00  0.00     0.095 A 
HETATM    6  C   UNL     1     -43.012  59.789 -56.864  1.00  0.00     0.093 A 
HETATM    7  C   UNL     1     -42.264  60.424 -55.762  1.00  0.00     0.080 C 
HETATM    8  O   UNL     1     -43.341  60.592 -57.907  1.00  0.00    -0.217 OA
HETATM    9  N   UNL     1     -44.022  59.861 -58.858  1.00  0.00    -0.127 NA
HETATM   10  C   UNL     1     -44.094  58.610 -58.383  1.00  0.00     0.116 A 
BRANCH  10  11
HETATM   11  C   UNL     1     -44.709  57.565 -59.193  1.00  0.00     0.039 A 
HETATM   12  C   UNL     1     -43.927  56.734 -60.012  1.00  0.00     0.048 A 
HETATM   13 CL   UNL     1     -42.206  56.881 -60.105  1.00  0.00    -0.083 Cl
HETATM   14  C   UNL     1     -44.524  55.726 -60.780  1.00  0.00     0.025 A 
HETATM   15  C   UNL     1     -45.903  55.538 -60.744  1.00  0.00     0.003 A 
HETATM   16  C   UNL     1     -46.691  56.352 -59.933  1.00  0.00     0.025 A 
HETATM   17  C   UNL     1     -46.100  57.358 -59.161  1.00  0.00     0.048 A 
HETATM   18 CL   UNL     1     -47.141  58.263 -58.115  1.00  0.00    -0.083 Cl
ENDBRANCH  10  11
ENDBRANCH   1   5
BRANCH   2  19
HETATM   19  C   UNL     1     -41.653  55.863 -55.352  1.00  0.00     0.174 A 
HETATM   20  S   UNL     1     -41.765  56.268 -53.700  1.00  0.00    -0.050 SA
HETATM   21  C   UNL     1     -41.181  54.699 -53.287  1.00  0.00     0.039 A 
HETATM   22  C   UNL     1     -40.956  53.980 -54.465  1.00  0.00     0.077 A 
HETATM   23  C   UNL     1     -40.941  54.150 -52.015  1.00  0.00     0.057 A 
HETATM   24  N   UNL     1     -41.240  54.659 -55.634  1.00  0.00    -0.223 NA
HETATM   25  C   UNL     1     -40.471  52.658 -54.372  1.00  0.00     0.035 A 
HETATM   26  C   UNL     1     -40.220  52.090 -53.118  1.00  0.00     0.038 A 
HETATM   27  C   UNL     1     -40.453  52.833 -51.958  1.00  0.00     0.104 A 
BRANCH  27  28
HETATM   28  N   UNL     1     -40.184  52.229 -50.644  1.00  0.00    -0.116 N 
HETATM   29  O   UNL     1     -40.179  52.978 -49.657  1.00  0.00    -0.532 OA
HETATM   30  O   UNL     1     -39.978  51.008 -50.603  1.00  0.00    -0.532 OA
ENDBRANCH  27  28
ENDBRANCH   2  19
TORSDOF 4
ENDMDL
MODEL 3
REMARK VINA RESULT:      -8.3      1.498      1.886
REMARK  4 active torsions:
REMARK  status: ('A' for Active; 'I' for Inactive)
REMARK    1  A    between atoms: C_5  and  C_6 
REMARK    2  A    between atoms: C_14  and  C_15 
REMARK       I    between atoms: C_15  and  N_16 
REMARK    3  A    between atoms: N_16  and  C_17 
REMARK    4  A    between atoms: C_23  and  N_24 
ROOT
HETATM    1  C   UNL     1     -43.479  57.135 -54.926  1.00  0.00     0.262 C 
HETATM    2  N   UNL     1     -42.132  56.870 -54.863  1.00  0.00    -0.301 N 
HETATM    3  O   UNL     1     -44.378  56.359 -54.628  1.00  0.00    -0.267 OA
HETATM    4  H   UNL     1     -41.458  57.489 -55.280  1.00  0.00     0.171 HD
ENDROOT
BRANCH   1   5
HETATM    5  C   UNL     1     -43.791  58.457 -55.448  1.00  0.00     0.095 A 
HETATM    6  C   UNL     1     -43.686  59.630 -54.728  1.00  0.00     0.093 A 
HETATM    7  C   UNL     1     -43.290  59.954 -53.343  1.00  0.00     0.080 C 
HETATM    8  O   UNL     1     -44.045  60.679 -55.510  1.00  0.00    -0.217 OA
HETATM    9  N   UNL     1     -44.376  60.226 -56.769  1.00  0.00    -0.127 NA
HETATM   10  C   UNL     1     -44.205  58.896 -56.743  1.00  0.00     0.116 A 
BRANCH  10  11
HETATM   11  C   UNL     1     -44.416  58.117 -57.957  1.00  0.00     0.039 A 
HETATM   12  C   UNL     1     -45.705  57.704 -58.333  1.00  0.00     0.048 A 
HETATM   13 CL   UNL     1     -47.109  58.097 -57.403  1.00  0.00    -0.083 Cl
HETATM   14  C   UNL     1     -45.902  56.964 -59.506  1.00  0.00     0.025 A 
HETATM   15  C   UNL     1     -44.819  56.625 -60.313  1.00  0.00     0.003 A 
HETATM   16  C   UNL     1     -43.535  57.032 -59.955  1.00  0.00     0.025 A 
HETATM   17  C   UNL     1     -43.333  57.774 -58.786  1.00  0.00     0.048 A 
HETATM   18 CL   UNL     1     -41.720  58.314 -58.464  1.00  0.00    -0.083 Cl
ENDBRANCH  10  11
ENDBRANCH   1   5
BRANCH   2  19
HETATM   19  C   UNL     1     -41.634  55.714 -54.333  1.00  0.00     0.174 A 
HETATM   20  S   UNL     1     -41.551  54.432 -55.453  1.00  0.00    -0.050 SA
HETATM   21  C   UNL     1     -40.905  53.413 -54.221  1.00  0.00     0.039 A 
HETATM   22  C   UNL     1     -40.793  54.152 -53.040  1.00  0.00     0.077 A 
HETATM   23  C   UNL     1     -40.527  52.060 -54.299  1.00  0.00     0.057 A 
HETATM   24  N   UNL     1     -41.206  55.468 -53.126  1.00  0.00    -0.223 NA
HETATM   25  C   UNL     1     -40.285  53.519 -51.887  1.00  0.00     0.035 A 
HETATM   26  C   UNL     1     -39.905  52.173 -51.935  1.00  0.00     0.038 A 
HETATM   27  C   UNL     1     -40.028  51.458 -53.130  1.00  0.00     0.104 A 
BRANCH  27  28
HETATM   28  N   UNL     1     -39.630  50.042 -53.173  1.00  0.00    -0.116 N 
HETATM   29  O   UNL     1     -39.503  49.448 -52.093  1.00  0.00    -0.532 OA
HETATM   30  O   UNL     1     -39.445  49.530 -54.286  1.00  0.00    -0.532 OA
ENDBRANCH  27  28
ENDBRANCH   2  19
TORSDOF 4
ENDMDL
MODEL 4
REMARK VINA RESULT:      -8.2      1.530      2.551
REMARK  4 active torsions:
REMARK  status: ('A' for Active; 'I' for Inactive)
REMARK    1  A    between atoms: C_5  and  C_6 
REMARK    2  A    between atoms: C_14  and  C_15 
REMARK       I    between atoms: C_15  and  N_16 
REMARK    3  A    between atoms: N_16  and  C_17 
REMARK    4  A    between atoms: C_23  and  N_24 
ROOT
HETATM    1  C   UNL     1     -43.573  57.202 -54.912  1.00  0.00     0.262 C 
HETATM    2  N   UNL     1     -42.226  56.927 -54.896  1.00  0.00    -0.301 N 
HETATM    3  O   UNL     1     -44.465  56.438 -54.566  1.00  0.00    -0.267 OA
HETATM    4  H   UNL     1     -41.564  57.534 -55.349  1.00  0.00     0.171 HD
ENDROOT
BRANCH   1   5
HETATM    5  C   UNL     1     -43.894  58.518 -55.443  1.00  0.00     0.095 A 
HETATM    6  C   UNL     1     -43.830  59.693 -54.723  1.00  0.00     0.093 A 
HETATM    7  C   UNL     1     -43.476  60.025 -53.328  1.00  0.00     0.080 C 
HETATM    8  O   UNL     1     -44.187  60.735 -55.515  1.00  0.00    -0.217 OA
HETATM    9  N   UNL     1     -44.477  60.274 -56.782  1.00  0.00    -0.127 NA
HETATM   10  C   UNL     1     -44.283  58.948 -56.749  1.00  0.00     0.116 A 
BRANCH  10  11
HETATM   11  C   UNL     1     -44.448  58.164 -57.968  1.00  0.00     0.039 A 
HETATM   12  C   UNL     1     -43.340  57.830 -58.765  1.00  0.00     0.048 A 
HETATM   13 CL   UNL     1     -41.729  58.308 -58.356  1.00  0.00    -0.083 Cl
HETATM   14  C   UNL     1     -43.504  57.069 -59.929  1.00  0.00     0.025 A 
HETATM   15  C   UNL     1     -44.771  56.635 -60.312  1.00  0.00     0.003 A 
HETATM   16  C   UNL     1     -45.878  56.955 -59.528  1.00  0.00     0.025 A 
HETATM   17  C   UNL     1     -45.719  57.712 -58.363  1.00  0.00     0.048 A 
HETATM   18 CL   UNL     1     -47.133  57.987 -57.403  1.00  0.00    -0.083 Cl
ENDBRANCH  10  11
ENDBRANCH   1   5
BRANCH   2  19
HETATM   19  C   UNL     1     -41.717  55.777 -54.366  1.00  0.00     0.174 A 
HETATM   20  S   UNL     1     -41.624  54.494 -55.485  1.00  0.00    -0.050 SA
HETATM   21  C   UNL     1     -40.966  53.482 -54.254  1.00  0.00     0.039 A 
HETATM   22  C   UNL     1     -40.859  54.223 -53.073  1.00  0.00     0.077 A 
HETATM   23  C   UNL     1     -40.577  52.133 -54.331  1.00  0.00     0.057 A 
HETATM   24  N   UNL     1     -41.284  55.535 -53.160  1.00  0.00    -0.223 NA
HETATM   25  C   UNL     1     -40.343  53.596 -51.921  1.00  0.00     0.035 A 
HETATM   26  C   UNL     1     -39.951  52.253 -51.969  1.00  0.00     0.038 A 
HETATM   27  C   UNL     1     -40.070  51.536 -53.163  1.00  0.00     0.104 A 
BRANCH  27  28
HETATM   28  N   UNL     1     -39.660  50.124 -53.206  1.00  0.00    -0.116 N 
HETATM   29  O   UNL     1     -39.548  49.591 -54.318  1.00  0.00    -0.532 OA
HETATM   30  O   UNL     1     -39.451  49.553 -52.126  1.00  0.00    -0.532 OA
ENDBRANCH  27  28
ENDBRANCH   2  19
TORSDOF 4
ENDMDL
MODEL 5
REMARK VINA RESULT:      -8.2      2.659      3.392
REMARK  4 active torsions:
REMARK  status: ('A' for Active; 'I' for Inactive)
REMARK    1  A    between atoms: C_5  and  C_6 
REMARK    2  A    between atoms: C_14  and  C_15 
REMARK       I    between atoms: C_15  and  N_16 
REMARK    3  A    between atoms: N_16  and  C_17 
REMARK    4  A    between atoms: C_23  and  N_24 
ROOT
HETATM    1  C   UNL     1     -41.590  57.931 -53.386  1.00  0.00     0.262 C 
HETATM    2  N   UNL     1     -42.311  56.791 -53.118  1.00  0.00    -0.301 N 
HETATM    3  O   UNL     1     -40.370  58.009 -53.454  1.00  0.00    -0.267 OA
HETATM    4  H   UNL     1     -43.294  56.832 -52.910  1.00  0.00     0.171 HD
ENDROOT
BRANCH   1   5
HETATM    5  C   UNL     1     -42.415  59.120 -53.543  1.00  0.00     0.095 A 
HETATM    6  C   UNL     1     -42.561  60.106 -52.588  1.00  0.00     0.093 A 
HETATM    7  C   UNL     1     -42.028  60.303 -51.226  1.00  0.00     0.080 C 
HETATM    8  O   UNL     1     -43.391  61.073 -53.054  1.00  0.00    -0.217 OA
HETATM    9  N   UNL     1     -43.796  60.758 -54.334  1.00  0.00    -0.127 NA
HETATM   10  C   UNL     1     -43.196  59.598 -54.639  1.00  0.00     0.116 A 
BRANCH  10  11
HETATM   11  C   UNL     1     -43.375  59.021 -55.966  1.00  0.00     0.039 A 
HETATM   12  C   UNL     1     -44.270  57.958 -56.174  1.00  0.00     0.048 A 
HETATM   13 CL   UNL     1     -45.215  57.280 -54.894  1.00  0.00    -0.083 Cl
HETATM   14  C   UNL     1     -44.444  57.414 -57.453  1.00  0.00     0.025 A 
HETATM   15  C   UNL     1     -43.728  57.920 -58.536  1.00  0.00     0.003 A 
HETATM   16  C   UNL     1     -42.841  58.977 -58.344  1.00  0.00     0.025 A 
HETATM   17  C   UNL     1     -42.665  59.526 -57.070  1.00  0.00     0.048 A 
HETATM   18 CL   UNL     1     -41.612  60.894 -56.938  1.00  0.00    -0.083 Cl
ENDBRANCH  10  11
ENDBRANCH   1   5
BRANCH   2  19
HETATM   19  C   UNL     1     -41.729  55.561 -53.010  1.00  0.00     0.174 A 
HETATM   20  S   UNL     1     -41.929  54.589 -54.397  1.00  0.00    -0.050 SA
HETATM   21  C   UNL     1     -41.039  53.328 -53.628  1.00  0.00     0.039 A 
HETATM   22  C   UNL     1     -40.646  53.766 -52.359  1.00  0.00     0.077 A 
HETATM   23  C   UNL     1     -40.716  52.049 -54.114  1.00  0.00     0.057 A 
HETATM   24  N   UNL     1     -41.041  55.047 -52.029  1.00  0.00    -0.223 NA
HETATM   25  C   UNL     1     -39.900  52.893 -51.539  1.00  0.00     0.035 A 
HETATM   26  C   UNL     1     -39.569  51.612 -51.998  1.00  0.00     0.038 A 
HETATM   27  C   UNL     1     -39.976  51.202 -53.270  1.00  0.00     0.104 A 
BRANCH  27  28
HETATM   28  N   UNL     1     -39.627  49.853 -53.744  1.00  0.00    -0.116 N 
HETATM   29  O   UNL     1     -39.358  48.997 -52.890  1.00  0.00    -0.532 OA
HETATM   30  O   UNL     1     -39.621  49.656 -54.967  1.00  0.00    -0.532 OA
ENDBRANCH  27  28
ENDBRANCH   2  19
TORSDOF 4
ENDMDL
MODEL 6
REMARK VINA RESULT:      -7.8      3.527      8.635
REMARK  4 active torsions:
REMARK  status: ('A' for Active; 'I' for Inactive)
REMARK    1  A    between atoms: C_5  and  C_6 
REMARK    2  A    between atoms: C_14  and  C_15 
REMARK       I    between atoms: C_15  and  N_16 
REMARK    3  A    between atoms: N_16  and  C_17 
REMARK    4  A    between atoms: C_23  and  N_24 
ROOT
HETATM    1  C   UNL     1     -41.950  56.517 -53.874  1.00  0.00     0.262 C 
HETATM    2  N   UNL     1     -42.910  56.746 -54.831  1.00  0.00    -0.301 N 
HETATM    3  O   UNL     1     -40.759  56.785 -53.974  1.00  0.00    -0.267 OA
HETATM    4  H   UNL     1     -43.831  56.350 -54.751  1.00  0.00     0.171 HD
ENDROOT
BRANCH   1   5
HETATM    5  C   UNL     1     -42.458  55.850 -52.685  1.00  0.00     0.095 A 
HETATM    6  C   UNL     1     -43.425  56.368 -51.847  1.00  0.00     0.093 A 
HETATM    7  C   UNL     1     -44.199  57.626 -51.824  1.00  0.00     0.080 C 
HETATM    8  O   UNL     1     -43.673  55.493 -50.840  1.00  0.00    -0.217 OA
HETATM    9  N   UNL     1     -42.890  54.370 -51.000  1.00  0.00    -0.127 NA
HETATM   10  C   UNL     1     -42.176  54.571 -52.116  1.00  0.00     0.116 A 
BRANCH  10  11
HETATM   11  C   UNL     1     -41.283  53.523 -52.600  1.00  0.00     0.039 A 
HETATM   12  C   UNL     1     -40.234  53.044 -51.798  1.00  0.00     0.048 A 
HETATM   13 CL   UNL     1     -39.941  53.645 -50.203  1.00  0.00    -0.083 Cl
HETATM   14  C   UNL     1     -39.386  52.032 -52.265  1.00  0.00     0.025 A 
HETATM   15  C   UNL     1     -39.573  51.489 -53.534  1.00  0.00     0.003 A 
HETATM   16  C   UNL     1     -40.612  51.951 -54.338  1.00  0.00     0.025 A 
HETATM   17  C   UNL     1     -41.463  52.960 -53.875  1.00  0.00     0.048 A 
HETATM   18 CL   UNL     1     -42.782  53.412 -54.903  1.00  0.00    -0.083 Cl
ENDBRANCH  10  11
ENDBRANCH   1   5
BRANCH   2  19
HETATM   19  C   UNL     1     -42.649  57.425 -55.986  1.00  0.00     0.174 A 
HETATM   20  S   UNL     1     -42.414  59.098 -55.754  1.00  0.00    -0.050 SA
HETATM   21  C   UNL     1     -42.163  59.286 -57.450  1.00  0.00     0.039 A 
HETATM   22  C   UNL     1     -42.270  58.033 -58.061  1.00  0.00     0.077 A 
HETATM   23  C   UNL     1     -41.893  60.457 -58.180  1.00  0.00     0.057 A 
HETATM   24  N   UNL     1     -42.539  56.981 -57.207  1.00  0.00    -0.223 NA
HETATM   25  C   UNL     1     -42.102  57.941 -59.459  1.00  0.00     0.035 A 
HETATM   26  C   UNL     1     -41.836  59.092 -60.210  1.00  0.00     0.038 A 
HETATM   27  C   UNL     1     -41.735  60.332 -59.572  1.00  0.00     0.104 A 
BRANCH  27  28
HETATM   28  N   UNL     1     -41.458  61.537 -60.369  1.00  0.00    -0.116 N 
HETATM   29  O   UNL     1     -41.413  61.414 -61.601  1.00  0.00    -0.532 OA
HETATM   30  O   UNL     1     -41.287  62.603 -59.760  1.00  0.00    -0.532 OA
ENDBRANCH  27  28
ENDBRANCH   2  19
TORSDOF 4
ENDMDL
MODEL 7
REMARK VINA RESULT:      -7.8      3.540      8.638
REMARK  4 active torsions:
REMARK  status: ('A' for Active; 'I' for Inactive)
REMARK    1  A    between atoms: C_5  and  C_6 
REMARK    2  A    between atoms: C_14  and  C_15 
REMARK       I    between atoms: C_15  and  N_16 
REMARK    3  A    between atoms: N_16  and  C_17 
REMARK    4  A    between atoms: C_23  and  N_24 
ROOT
HETATM    1  C   UNL     1     -41.909  56.576 -53.796  1.00  0.00     0.262 C 
HETATM    2  N   UNL     1     -42.888  56.904 -54.704  1.00  0.00    -0.301 N 
HETATM    3  O   UNL     1     -40.708  56.764 -53.937  1.00  0.00    -0.267 OA
HETATM    4  H   UNL     1     -43.831  56.571 -54.598  1.00  0.00     0.171 HD
ENDROOT
BRANCH   1   5
HETATM    5  C   UNL     1     -42.416  55.906 -52.608  1.00  0.00     0.095 A 
HETATM    6  C   UNL     1     -43.367  56.431 -51.756  1.00  0.00     0.093 A 
HETATM    7  C   UNL     1     -44.121  57.699 -51.714  1.00  0.00     0.080 C 
HETATM    8  O   UNL     1     -43.617  55.550 -50.754  1.00  0.00    -0.217 OA
HETATM    9  N   UNL     1     -42.853  54.417 -50.932  1.00  0.00    -0.127 NA
HETATM   10  C   UNL     1     -42.146  54.617 -52.054  1.00  0.00     0.116 A 
BRANCH  10  11
HETATM   11  C   UNL     1     -41.274  53.561 -52.556  1.00  0.00     0.039 A 
HETATM   12  C   UNL     1     -41.490  52.990 -53.821  1.00  0.00     0.048 A 
HETATM   13 CL   UNL     1     -42.777  53.500 -54.858  1.00  0.00    -0.083 Cl
HETATM   14  C   UNL     1     -40.644  51.983 -54.301  1.00  0.00     0.025 A 
HETATM   15  C   UNL     1     -39.576  51.534 -53.527  1.00  0.00     0.003 A 
HETATM   16  C   UNL     1     -39.348  52.095 -52.273  1.00  0.00     0.025 A 
HETATM   17  C   UNL     1     -40.189  53.103 -51.789  1.00  0.00     0.048 A 
HETATM   18 CL   UNL     1     -39.779  53.806 -50.261  1.00  0.00    -0.083 Cl
ENDBRANCH  10  11
ENDBRANCH   1   5
BRANCH   2  19
HETATM   19  C   UNL     1     -42.626  57.603 -55.847  1.00  0.00     0.174 A 
HETATM   20  S   UNL     1     -42.349  59.264 -55.582  1.00  0.00    -0.050 SA
HETATM   21  C   UNL     1     -42.115  59.485 -57.276  1.00  0.00     0.039 A 
HETATM   22  C   UNL     1     -42.259  58.248 -57.913  1.00  0.00     0.077 A 
HETATM   23  C   UNL     1     -41.827  60.665 -57.984  1.00  0.00     0.057 A 
HETATM   24  N   UNL     1     -42.542  57.184 -57.079  1.00  0.00    -0.223 NA
HETATM   25  C   UNL     1     -42.111  58.184 -59.314  1.00  0.00     0.035 A 
HETATM   26  C   UNL     1     -41.828  59.345 -60.044  1.00  0.00     0.038 A 
HETATM   27  C   UNL     1     -41.690  60.567 -59.380  1.00  0.00     0.104 A 
BRANCH  27  28
HETATM   28  N   UNL     1     -41.396  61.783 -60.153  1.00  0.00    -0.116 N 
HETATM   29  O   UNL     1     -41.381  61.689 -61.389  1.00  0.00    -0.532 OA
HETATM   30  O   UNL     1     -41.179  62.828 -59.523  1.00  0.00    -0.532 OA
ENDBRANCH  27  28
ENDBRANCH   2  19
TORSDOF 4
ENDMDL
MODEL 8
REMARK VINA RESULT:      -7.7      1.628      2.021
REMARK  4 active torsions:
REMARK  status: ('A' for Active; 'I' for Inactive)
REMARK    1  A    between atoms: C_5  and  C_6 
REMARK    2  A    between atoms: C_14  and  C_15 
REMARK       I    between atoms: C_15  and  N_16 
REMARK    3  A    between atoms: N_16  and  C_17 
REMARK    4  A    between atoms: C_23  and  N_24 
ROOT
HETATM    1  C   UNL     1     -43.589  57.948 -56.152  1.00  0.00     0.262 C 
HETATM    2  N   UNL     1     -42.317  57.575 -55.788  1.00  0.00    -0.301 N 
HETATM    3  O   UNL     1     -44.628  57.540 -55.650  1.00  0.00    -0.267 OA
HETATM    4  H   UNL     1     -41.520  57.819 -56.351  1.00  0.00     0.171 HD
ENDROOT
BRANCH   1   5
HETATM    5  C   UNL     1     -43.627  58.875 -57.273  1.00  0.00     0.095 A 
HETATM    6  C   UNL     1     -43.134  60.164 -57.244  1.00  0.00     0.093 A 
HETATM    7  C   UNL     1     -42.482  60.991 -56.208  1.00  0.00     0.080 C 
HETATM    8  O   UNL     1     -43.322  60.753 -58.451  1.00  0.00    -0.217 OA
HETATM    9  N   UNL     1     -43.926  59.861 -59.312  1.00  0.00    -0.127 NA
HETATM   10  C   UNL     1     -44.092  58.727 -58.616  1.00  0.00     0.116 A 
BRANCH  10  11
HETATM   11  C   UNL     1     -44.656  57.553 -59.273  1.00  0.00     0.039 A 
HETATM   12  C   UNL     1     -46.046  57.355 -59.323  1.00  0.00     0.048 A 
HETATM   13 CL   UNL     1     -47.166  58.478 -58.632  1.00  0.00    -0.083 Cl
HETATM   14  C   UNL     1     -46.582  56.231 -59.963  1.00  0.00     0.025 A 
HETATM   15  C   UNL     1     -45.741  55.292 -60.557  1.00  0.00     0.003 A 
HETATM   16  C   UNL     1     -44.361  55.479 -60.518  1.00  0.00     0.025 A 
HETATM   17  C   UNL     1     -43.820  56.601 -59.883  1.00  0.00     0.048 A 
HETATM   18 CL   UNL     1     -42.102  56.800 -59.960  1.00  0.00    -0.083 Cl
ENDBRANCH  10  11
ENDBRANCH   1   5
BRANCH   2  19
HETATM   19  C   UNL     1     -42.066  56.771 -54.713  1.00  0.00     0.174 A 
HETATM   20  S   UNL     1     -41.913  57.625 -53.245  1.00  0.00    -0.050 SA
HETATM   21  C   UNL     1     -41.633  56.136 -52.422  1.00  0.00     0.039 A 
HETATM   22  C   UNL     1     -41.693  55.091 -53.350  1.00  0.00     0.077 A 
HETATM   23  C   UNL     1     -41.380  55.913 -51.057  1.00  0.00     0.057 A 
HETATM   24  N   UNL     1     -41.950  55.474 -54.652  1.00  0.00    -0.223 NA
HETATM   25  C   UNL     1     -41.491  53.770 -52.901  1.00  0.00     0.035 A 
HETATM   26  C   UNL     1     -41.232  53.521 -51.548  1.00  0.00     0.038 A 
HETATM   27  C   UNL     1     -41.178  54.585 -50.642  1.00  0.00     0.104 A 
BRANCH  27  28
HETATM   28  N   UNL     1     -40.903  54.315 -49.223  1.00  0.00    -0.116 N 
HETATM   29  O   UNL     1     -40.607  53.155 -48.905  1.00  0.00    -0.532 OA
HETATM   30  O   UNL     1     -40.985  55.264 -48.430  1.00  0.00    -0.532 OA
ENDBRANCH  27  28
ENDBRANCH   2  19
TORSDOF 4
ENDMDL
MODEL 9
REMARK VINA RESULT:      -7.6      3.197      4.214
REMARK  4 active torsions:
REMARK  status: ('A' for Active; 'I' for Inactive)
REMARK    1  A    between atoms: C_5  and  C_6 
REMARK    2  A    between atoms: C_14  and  C_15 
REMARK       I    between atoms: C_15  and  N_16 
REMARK    3  A    between atoms: N_16  and  C_17 
REMARK    4  A    between atoms: C_23  and  N_24 
ROOT
HETATM    1  C   UNL     1     -41.313  57.889 -52.765  1.00  0.00     0.262 C 
HETATM    2  N   UNL     1     -41.948  56.776 -52.266  1.00  0.00    -0.301 N 
HETATM    3  O   UNL     1     -40.238  57.900 -53.350  1.00  0.00    -0.267 OA
HETATM    4  H   UNL     1     -42.740  56.859 -51.652  1.00  0.00     0.171 HD
ENDROOT
BRANCH   1   5
HETATM    5  C   UNL     1     -42.016  59.134 -52.494  1.00  0.00     0.095 A 
HETATM    6  C   UNL     1     -41.702  60.007 -51.472  1.00  0.00     0.093 A 
HETATM    7  C   UNL     1     -40.686  60.012 -50.401  1.00  0.00     0.080 C 
HETATM    8  O   UNL     1     -42.546  61.069 -51.503  1.00  0.00    -0.217 OA
HETATM    9  N   UNL     1     -43.425  60.931 -52.556  1.00  0.00    -0.127 NA
HETATM   10  C   UNL     1     -43.098  59.783 -53.166  1.00  0.00     0.116 A 
BRANCH  10  11
HETATM   11  C   UNL     1     -43.811  59.377 -54.372  1.00  0.00     0.039 A 
HETATM   12  C   UNL     1     -43.542  59.989 -55.607  1.00  0.00     0.048 A 
HETATM   13 CL   UNL     1     -42.357  61.237 -55.783  1.00  0.00    -0.083 Cl
HETATM   14  C   UNL     1     -44.223  59.588 -56.763  1.00  0.00     0.025 A 
HETATM   15  C   UNL     1     -45.179  58.577 -56.701  1.00  0.00     0.003 A 
HETATM   16  C   UNL     1     -45.453  57.959 -55.483  1.00  0.00     0.025 A 
HETATM   17  C   UNL     1     -44.773  58.353 -54.325  1.00  0.00     0.048 A 
HETATM   18 CL   UNL     1     -45.110  57.471 -52.874  1.00  0.00    -0.083 Cl
ENDBRANCH  10  11
ENDBRANCH   1   5
BRANCH   2  19
HETATM   19  C   UNL     1     -41.487  55.509 -52.480  1.00  0.00     0.174 A 
HETATM   20  S   UNL     1     -41.135  54.661 -51.044  1.00  0.00    -0.050 SA
HETATM   21  C   UNL     1     -40.655  53.296 -51.981  1.00  0.00     0.039 A 
HETATM   22  C   UNL     1     -40.816  53.602 -53.336  1.00  0.00     0.077 A 
HETATM   23  C   UNL     1     -40.171  52.049 -51.546  1.00  0.00     0.057 A 
HETATM   24  N   UNL     1     -41.301  54.868 -53.600  1.00  0.00    -0.223 NA
HETATM   25  C   UNL     1     -40.481  52.627 -54.298  1.00  0.00     0.035 A 
HETATM   26  C   UNL     1     -39.993  51.380 -53.892  1.00  0.00     0.038 A 
HETATM   27  C   UNL     1     -39.842  51.101 -52.531  1.00  0.00     0.104 A 
BRANCH  27  28
HETATM   28  N   UNL     1     -39.325  49.789 -52.112  1.00  0.00    -0.116 N 
HETATM   29  O   UNL     1     -39.254  48.899 -52.971  1.00  0.00    -0.532 OA
HETATM   30  O   UNL     1     -38.994  49.652 -50.926  1.00  0.00    -0.532 OA
ENDBRANCH  27  28
ENDBRANCH   2  19
TORSDOF 4
ENDMDL
MODEL 10
REMARK VINA RESULT:      -7.5      2.032      2.593
REMARK  4 active torsions:
REMARK  status: ('A' for Active; 'I' for Inactive)
REMARK    1  A    between atoms: C_5  and  C_6 
REMARK    2  A    between atoms: C_14  and  C_15 
REMARK       I    between atoms: C_15  and  N_16 
REMARK    3  A    between atoms: N_16  and  C_17 
REMARK    4  A    between atoms: C_23  and  N_24 
ROOT
HETATM    1  C   UNL     1     -42.092  59.105 -54.609  1.00  0.00     0.262 C 
HETATM    2  N   UNL     1     -42.791  57.921 -54.578  1.00  0.00    -0.301 N 
HETATM    3  O   UNL     1     -40.939  59.267 -54.232  1.00  0.00    -0.267 OA
HETATM    4  H   UNL     1     -43.783  57.896 -54.744  1.00  0.00     0.171 HD
ENDROOT
BRANCH   1   5
HETATM    5  C   UNL     1     -42.872  60.231 -55.100  1.00  0.00     0.095 A 
HETATM    6  C   UNL     1     -43.238  61.324 -54.339  1.00  0.00     0.093 A 
HETATM    7  C   UNL     1     -43.026  61.713 -52.931  1.00  0.00     0.080 C 
HETATM    8  O   UNL     1     -43.953  62.191 -55.100  1.00  0.00    -0.217 OA
HETATM    9  N   UNL     1     -44.058  61.701 -56.385  1.00  0.00    -0.127 NA
HETATM   10  C   UNL     1     -43.394  60.536 -56.394  1.00  0.00     0.116 A 
BRANCH  10  11
HETATM   11  C   UNL     1     -43.266  59.789 -57.640  1.00  0.00     0.039 A 
HETATM   12  C   UNL     1     -44.196  58.793 -57.982  1.00  0.00     0.048 A 
HETATM   13 CL   UNL     1     -45.544  58.402 -56.971  1.00  0.00    -0.083 Cl
HETATM   14  C   UNL     1     -44.072  58.086 -59.184  1.00  0.00     0.025 A 
HETATM   15  C   UNL     1     -43.021  58.360 -60.056  1.00  0.00     0.003 A 
HETATM   16  C   UNL     1     -42.093  59.347 -59.731  1.00  0.00     0.025 A 
HETATM   17  C   UNL     1     -42.214  60.059 -58.533  1.00  0.00     0.048 A 
HETATM   18 CL   UNL     1     -41.071  61.328 -58.252  1.00  0.00    -0.083 Cl
ENDBRANCH  10  11
ENDBRANCH   1   5
BRANCH   2  19
HETATM   19  C   UNL     1     -42.214  56.737 -54.220  1.00  0.00     0.174 A 
HETATM   20  S   UNL     1     -42.283  56.424 -52.546  1.00  0.00    -0.050 SA
HETATM   21  C   UNL     1     -41.456  54.933 -52.802  1.00  0.00     0.039 A 
HETATM   22  C   UNL     1     -41.201  54.790 -54.170  1.00  0.00     0.077 A 
HETATM   23  C   UNL     1     -41.062  53.966 -51.860  1.00  0.00     0.057 A 
HETATM   24  N   UNL     1     -41.651  55.826 -54.964  1.00  0.00    -0.223 NA
HETATM   25  C   UNL     1     -40.526  53.636 -54.619  1.00  0.00     0.035 A 
HETATM   26  C   UNL     1     -40.120  52.659 -53.702  1.00  0.00     0.038 A 
HETATM   27  C   UNL     1     -40.387  52.829 -52.340  1.00  0.00     0.104 A 
BRANCH  27  28
HETATM   28  N   UNL     1     -39.954  51.800 -51.382  1.00  0.00    -0.116 N 
HETATM   29  O   UNL     1     -40.298  51.935 -50.199  1.00  0.00    -0.532 OA
HETATM   30  O   UNL     1     -39.271  50.862 -51.815  1.00  0.00    -0.532 OA
ENDBRANCH  27  28
ENDBRANCH   2  19
TORSDOF 4
ENDMDL
