MODEL 1
REMARK VINA RESULT:      -8.6      0.000      0.000
REMARK  4 active torsions:
REMARK  status: ('A' for Active; 'I' for Inactive)
REMARK    1  A    between atoms: C_7  and  C_8 
REMARK    2  A    between atoms: N_9  and  N_10 
REMARK       I    between atoms: N_10  and  C_11 
REMARK    3  A    between atoms: C_11  and  C_12 
REMARK    4  A    between atoms: C_12  and  C_13 
ROOT
HETATM    1  N   UNL     1     -41.441  55.977 -55.528  1.00  0.00    -0.247 N 
HETATM    2  C   UNL     1     -41.745  54.621 -55.434  1.00  0.00     0.241 C 
HETATM    3  O   UNL     1     -42.884  54.162 -55.363  1.00  0.00    -0.271 OA
HETATM    4  H   UNL     1     -40.522  56.301 -55.795  1.00  0.00     0.192 HD
ENDROOT
BRANCH   1   5
HETATM    5  N   UNL     1     -42.431  56.879 -55.387  1.00  0.00    -0.184 NA
HETATM    6  C   UNL     1     -42.650  57.516 -54.278  1.00  0.00     0.153 C 
BRANCH   6   7
HETATM    7  C   UNL     1     -42.057  57.420 -52.945  1.00  0.00     0.018 A 
HETATM    8  C   UNL     1     -41.006  58.096 -52.325  1.00  0.00     0.018 A 
HETATM    9  C   UNL     1     -40.053  59.161 -52.732  1.00  0.00     0.069 C 
HETATM   10  N   UNL     1     -40.840  57.545 -51.071  1.00  0.00    -0.358 N 
HETATM   11  H   UNL     1     -40.141  57.836 -50.402  1.00  0.00     0.166 HD
HETATM   12  C   UNL     1     -41.667  56.471 -50.884  1.00  0.00     0.043 A 
HETATM   13  C   UNL     1     -42.463  56.377 -52.019  1.00  0.00     0.004 A 
HETATM   14  C   UNL     1     -41.754  55.579 -49.809  1.00  0.00     0.030 A 
HETATM   15  C   UNL     1     -43.421  55.337 -52.069  1.00  0.00     0.014 A 
HETATM   16  C   UNL     1     -43.521  54.430 -51.006  1.00  0.00     0.001 A 
HETATM   17  C   UNL     1     -42.694  54.549 -49.895  1.00  0.00     0.002 A 
ENDBRANCH   6   7
ENDBRANCH   1   5
BRANCH   2  18
HETATM   18  C   UNL     1     -40.512  53.736 -55.385  1.00  0.00     0.145 C 
BRANCH  18  19
HETATM   19  C   UNL     1     -40.243  53.161 -54.023  1.00  0.00    -0.021 A 
HETATM   20  C   UNL     1     -39.971  51.795 -53.668  1.00  0.00    -0.001 A 
HETATM   21  C   UNL     1     -39.846  51.739 -52.278  1.00  0.00     0.042 A 
HETATM   22  C   UNL     1     -39.813  50.592 -54.390  1.00  0.00     0.014 A 
HETATM   23  C   UNL     1     -39.601  50.549 -51.581  1.00  0.00     0.030 A 
HETATM   24  N   UNL     1     -39.993  53.022 -51.807  1.00  0.00    -0.365 N 
HETATM   25  C   UNL     1     -39.476  49.372 -52.323  1.00  0.00     0.002 A 
HETATM   26  C   UNL     1     -39.574  49.392 -53.709  1.00  0.00     0.001 A 
HETATM   27  H   UNL     1     -39.922  53.284 -50.834  1.00  0.00     0.165 HD
HETATM   28  C   UNL     1     -40.247  53.880 -52.841  1.00  0.00     0.097 A 
ENDBRANCH  18  19
ENDBRANCH   2  18
TORSDOF 4
ENDMDL
MODEL 2
REMARK VINA RESULT:      -8.4      3.085      5.263
REMARK  4 active torsions:
REMARK  status: ('A' for Active; 'I' for Inactive)
REMARK    1  A    between atoms: C_7  and  C_8 
REMARK    2  A    between atoms: N_9  and  N_10 
REMARK       I    between atoms: N_10  and  C_11 
REMARK    3  A    between atoms: C_11  and  C_12 
REMARK    4  A    between atoms: C_12  and  C_13 
ROOT
HETATM    1  N   UNL     1     -42.002  59.962 -53.787  1.00  0.00    -0.247 N 
HETATM    2  C   UNL     1     -41.104  59.483 -52.835  1.00  0.00     0.241 C 
HETATM    3  O   UNL     1     -39.949  59.134 -53.076  1.00  0.00    -0.271 OA
HETATM    4  H   UNL     1     -42.856  60.432 -53.526  1.00  0.00     0.192 HD
ENDROOT
BRANCH   1   5
HETATM    5  N   UNL     1     -41.661  59.913 -55.089  1.00  0.00    -0.184 NA
HETATM    6  C   UNL     1     -42.066  58.974 -55.887  1.00  0.00     0.153 C 
BRANCH   6   7
HETATM    7  C   UNL     1     -42.837  57.751 -55.671  1.00  0.00     0.018 A 
HETATM    8  C   UNL     1     -44.193  57.451 -55.802  1.00  0.00     0.018 A 
HETATM    9  C   UNL     1     -45.407  58.213 -56.192  1.00  0.00     0.069 C 
HETATM   10  N   UNL     1     -44.370  56.144 -55.398  1.00  0.00    -0.358 N 
HETATM   11  H   UNL     1     -45.258  55.661 -55.380  1.00  0.00     0.166 HD
HETATM   12  C   UNL     1     -43.208  55.610 -54.910  1.00  0.00     0.043 A 
HETATM   13  C   UNL     1     -42.221  56.572 -55.090  1.00  0.00     0.004 A 
HETATM   14  C   UNL     1     -42.969  54.364 -54.318  1.00  0.00     0.030 A 
HETATM   15  C   UNL     1     -40.908  56.255 -54.668  1.00  0.00     0.014 A 
HETATM   16  C   UNL     1     -40.647  55.016 -54.068  1.00  0.00     0.001 A 
HETATM   17  C   UNL     1     -41.668  54.088 -53.892  1.00  0.00     0.002 A 
ENDBRANCH   6   7
ENDBRANCH   1   5
BRANCH   2  18
HETATM   18  C   UNL     1     -41.703  59.390 -51.443  1.00  0.00     0.145 C 
BRANCH  18  19
HETATM   19  C   UNL     1     -42.568  58.178 -51.246  1.00  0.00    -0.021 A 
HETATM   20  C   UNL     1     -42.168  56.846 -50.880  1.00  0.00    -0.001 A 
HETATM   21  C   UNL     1     -43.315  56.048 -50.876  1.00  0.00     0.042 A 
HETATM   22  C   UNL     1     -40.941  56.232 -50.545  1.00  0.00     0.014 A 
HETATM   23  C   UNL     1     -43.291  54.679 -50.585  1.00  0.00     0.030 A 
HETATM   24  N   UNL     1     -44.375  56.866 -51.185  1.00  0.00    -0.365 N 
HETATM   25  C   UNL     1     -42.058  54.097 -50.283  1.00  0.00     0.002 A 
HETATM   26  C   UNL     1     -40.898  54.863 -50.257  1.00  0.00     0.001 A 
HETATM   27  H   UNL     1     -45.338  56.560 -51.227  1.00  0.00     0.165 HD
HETATM   28  C   UNL     1     -43.939  58.140 -51.424  1.00  0.00     0.097 A 
ENDBRANCH  18  19
ENDBRANCH   2  18
TORSDOF 4
ENDMDL
MODEL 3
REMARK VINA RESULT:      -8.2      2.621      3.954
REMARK  4 active torsions:
REMARK  status: ('A' for Active; 'I' for Inactive)
REMARK    1  A    between atoms: C_7  and  C_8 
REMARK    2  A    between atoms: N_9  and  N_10 
REMARK       I    between atoms: N_10  and  C_11 
REMARK    3  A    between atoms: C_11  and  C_12 
REMARK    4  A    between atoms: C_12  and  C_13 
ROOT
HETATM    1  N   UNL     1     -41.239  58.857 -53.842  1.00  0.00    -0.247 N 
HETATM    2  C   UNL     1     -42.138  59.016 -54.894  1.00  0.00     0.241 C 
HETATM    3  O   UNL     1     -42.967  59.921 -54.977  1.00  0.00    -0.271 OA
HETATM    4  H   UNL     1     -40.444  58.238 -53.908  1.00  0.00     0.192 HD
ENDROOT
BRANCH   1   5
HETATM    5  N   UNL     1     -41.357  59.647 -52.758  1.00  0.00    -0.184 NA
HETATM    6  C   UNL     1     -42.111  59.345 -51.746  1.00  0.00     0.153 C 
BRANCH   6   7
HETATM    7  C   UNL     1     -43.049  58.252 -51.499  1.00  0.00     0.018 A 
HETATM    8  C   UNL     1     -44.414  58.220 -51.215  1.00  0.00     0.018 A 
HETATM    9  C   UNL     1     -45.475  59.245 -51.030  1.00  0.00     0.069 C 
HETATM   10  N   UNL     1     -44.766  56.902 -51.011  1.00  0.00    -0.358 N 
HETATM   11  H   UNL     1     -45.697  56.584 -50.779  1.00  0.00     0.166 HD
HETATM   12  C   UNL     1     -43.672  56.082 -51.047  1.00  0.00     0.043 A 
HETATM   13  C   UNL     1     -42.584  56.881 -51.378  1.00  0.00     0.004 A 
HETATM   14  C   UNL     1     -43.569  54.708 -50.799  1.00  0.00     0.030 A 
HETATM   15  C   UNL     1     -41.318  56.259 -51.488  1.00  0.00     0.014 A 
HETATM   16  C   UNL     1     -41.192  54.886 -51.239  1.00  0.00     0.001 A 
HETATM   17  C   UNL     1     -42.303  54.125 -50.894  1.00  0.00     0.002 A 
ENDBRANCH   6   7
ENDBRANCH   1   5
BRANCH   2  18
HETATM   18  C   UNL     1     -42.032  57.919 -55.940  1.00  0.00     0.145 C 
BRANCH  18  19
HETATM   19  C   UNL     1     -42.523  56.584 -55.457  1.00  0.00    -0.021 A 
HETATM   20  C   UNL     1     -41.751  55.424 -55.102  1.00  0.00    -0.001 A 
HETATM   21  C   UNL     1     -42.649  54.408 -54.769  1.00  0.00     0.042 A 
HETATM   22  C   UNL     1     -40.372  55.133 -55.024  1.00  0.00     0.014 A 
HETATM   23  C   UNL     1     -42.241  53.121 -54.394  1.00  0.00     0.030 A 
HETATM   24  N   UNL     1     -43.913  54.935 -54.875  1.00  0.00    -0.365 N 
HETATM   25  C   UNL     1     -40.870  52.858 -54.352  1.00  0.00     0.002 A 
HETATM   26  C   UNL     1     -39.946  53.851 -54.657  1.00  0.00     0.001 A 
HETATM   27  H   UNL     1     -44.762  54.428 -54.665  1.00  0.00     0.165 HD
HETATM   28  C   UNL     1     -43.852  56.233 -55.302  1.00  0.00     0.097 A 
ENDBRANCH  18  19
ENDBRANCH   2  18
TORSDOF 4
ENDMDL
MODEL 4
REMARK VINA RESULT:      -8.2      1.918      3.975
REMARK  4 active torsions:
REMARK  status: ('A' for Active; 'I' for Inactive)
REMARK    1  A    between atoms: C_7  and  C_8 
REMARK    2  A    between atoms: N_9  and  N_10 
REMARK       I    between atoms: N_10  and  C_11 
REMARK    3  A    between atoms: C_11  and  C_12 
REMARK    4  A    between atoms: C_12  and  C_13 
ROOT
HETATM    1  N   UNL     1     -42.300  57.152 -50.886  1.00  0.00    -0.247 N 
HETATM    2  C   UNL     1     -42.282  55.801 -50.550  1.00  0.00     0.241 C 
HETATM    3  O   UNL     1     -43.265  55.062 -50.566  1.00  0.00    -0.271 OA
HETATM    4  H   UNL     1     -41.452  57.670 -51.065  1.00  0.00     0.192 HD
ENDROOT
BRANCH   1   5
HETATM    5  N   UNL     1     -43.485  57.754 -51.108  1.00  0.00    -0.184 NA
HETATM    6  C   UNL     1     -43.898  58.078 -52.295  1.00  0.00     0.153 C 
BRANCH   6   7
HETATM    7  C   UNL     1     -43.272  58.014 -53.615  1.00  0.00     0.018 A 
HETATM    8  C   UNL     1     -42.727  58.987 -54.453  1.00  0.00     0.018 A 
HETATM    9  C   UNL     1     -42.559  60.462 -54.384  1.00  0.00     0.069 C 
HETATM   10  N   UNL     1     -42.333  58.359 -55.617  1.00  0.00    -0.358 N 
HETATM   11  H   UNL     1     -41.911  58.825 -56.408  1.00  0.00     0.166 HD
HETATM   12  C   UNL     1     -42.692  57.039 -55.618  1.00  0.00     0.043 A 
HETATM   13  C   UNL     1     -43.255  56.777 -54.375  1.00  0.00     0.004 A 
HETATM   14  C   UNL     1     -42.571  56.075 -56.626  1.00  0.00     0.030 A 
HETATM   15  C   UNL     1     -43.705  55.460 -54.119  1.00  0.00     0.014 A 
HETATM   16  C   UNL     1     -43.598  54.481 -55.115  1.00  0.00     0.001 A 
HETATM   17  C   UNL     1     -43.044  54.789 -56.353  1.00  0.00     0.002 A 
ENDBRANCH   6   7
ENDBRANCH   1   5
BRANCH   2  18
HETATM   18  C   UNL     1     -40.912  55.314 -50.109  1.00  0.00     0.145 C 
BRANCH  18  19
HETATM   19  C   UNL     1     -40.558  53.959 -50.653  1.00  0.00    -0.021 A 
HETATM   20  C   UNL     1     -40.399  53.562 -52.026  1.00  0.00    -0.001 A 
HETATM   21  C   UNL     1     -40.126  52.192 -52.038  1.00  0.00     0.042 A 
HETATM   22  C   UNL     1     -40.456  54.230 -53.268  1.00  0.00     0.014 A 
HETATM   23  C   UNL     1     -39.937  51.461 -53.217  1.00  0.00     0.030 A 
HETATM   24  N   UNL     1     -40.078  51.778 -50.728  1.00  0.00    -0.365 N 
HETATM   25  C   UNL     1     -40.026  52.148 -54.431  1.00  0.00     0.002 A 
HETATM   26  C   UNL     1     -40.276  53.515 -54.458  1.00  0.00     0.001 A 
HETATM   27  H   UNL     1     -39.869  50.834 -50.435  1.00  0.00     0.165 HD
HETATM   28  C   UNL     1     -40.350  52.824 -49.890  1.00  0.00     0.097 A 
ENDBRANCH  18  19
ENDBRANCH   2  18
TORSDOF 4
ENDMDL
MODEL 5
REMARK VINA RESULT:      -8.2      2.239      3.983
REMARK  4 active torsions:
REMARK  status: ('A' for Active; 'I' for Inactive)
REMARK    1  A    between atoms: C_7  and  C_8 
REMARK    2  A    between atoms: N_9  and  N_10 
REMARK       I    between atoms: N_10  and  C_11 
REMARK    3  A    between atoms: C_11  and  C_12 
REMARK    4  A    between atoms: C_12  and  C_13 
ROOT
HETATM    1  N   UNL     1     -44.717  56.353 -54.346  1.00  0.00    -0.247 N 
HETATM    2  C   UNL     1     -43.616  55.717 -54.913  1.00  0.00     0.241 C 
HETATM    3  O   UNL     1     -42.805  56.258 -55.664  1.00  0.00    -0.271 OA
HETATM    4  H   UNL     1     -45.233  55.945 -53.579  1.00  0.00     0.192 HD
ENDROOT
BRANCH   1   5
HETATM    5  N   UNL     1     -45.025  57.602 -54.741  1.00  0.00    -0.184 NA
HETATM    6  C   UNL     1     -44.726  58.655 -54.043  1.00  0.00     0.153 C 
BRANCH   6   7
HETATM    7  C   UNL     1     -44.130  58.831 -52.720  1.00  0.00     0.018 A 
HETATM    8  C   UNL     1     -44.661  59.200 -51.484  1.00  0.00     0.018 A 
HETATM    9  C   UNL     1     -46.010  59.575 -50.987  1.00  0.00     0.069 C 
HETATM   10  N   UNL     1     -43.615  59.268 -50.586  1.00  0.00    -0.358 N 
HETATM   11  H   UNL     1     -43.708  59.522 -49.612  1.00  0.00     0.166 HD
HETATM   12  C   UNL     1     -42.413  59.062 -51.205  1.00  0.00     0.043 A 
HETATM   13  C   UNL     1     -42.692  58.757 -52.531  1.00  0.00     0.004 A 
HETATM   14  C   UNL     1     -41.112  59.137 -50.691  1.00  0.00     0.030 A 
HETATM   15  C   UNL     1     -41.601  58.490 -53.391  1.00  0.00     0.014 A 
HETATM   16  C   UNL     1     -40.291  58.564 -52.899  1.00  0.00     0.001 A 
HETATM   17  C   UNL     1     -40.053  58.889 -51.567  1.00  0.00     0.002 A 
ENDBRANCH   6   7
ENDBRANCH   1   5
BRANCH   2  18
HETATM   18  C   UNL     1     -43.522  54.246 -54.547  1.00  0.00     0.145 C 
BRANCH  18  19
HETATM   19  C   UNL     1     -42.345  53.924 -53.670  1.00  0.00    -0.021 A 
HETATM   20  C   UNL     1     -42.053  54.415 -52.351  1.00  0.00    -0.001 A 
HETATM   21  C   UNL     1     -40.821  53.880 -51.966  1.00  0.00     0.042 A 
HETATM   22  C   UNL     1     -42.715  55.263 -51.436  1.00  0.00     0.014 A 
HETATM   23  C   UNL     1     -40.214  54.170 -50.738  1.00  0.00     0.030 A 
HETATM   24  N   UNL     1     -40.399  53.064 -52.987  1.00  0.00    -0.365 N 
HETATM   25  C   UNL     1     -40.883  55.032 -49.866  1.00  0.00     0.002 A 
HETATM   26  C   UNL     1     -42.120  55.568 -50.207  1.00  0.00     0.001 A 
HETATM   27  H   UNL     1     -39.546  52.522 -52.968  1.00  0.00     0.165 HD
HETATM   28  C   UNL     1     -41.295  53.093 -54.020  1.00  0.00     0.097 A 
ENDBRANCH  18  19
ENDBRANCH   2  18
TORSDOF 4
ENDMDL
MODEL 6
REMARK VINA RESULT:      -8.1      2.076      3.168
REMARK  4 active torsions:
REMARK  status: ('A' for Active; 'I' for Inactive)
REMARK    1  A    between atoms: C_7  and  C_8 
REMARK    2  A    between atoms: N_9  and  N_10 
REMARK       I    between atoms: N_10  and  C_11 
REMARK    3  A    between atoms: C_11  and  C_12 
REMARK    4  A    between atoms: C_12  and  C_13 
ROOT
HETATM    1  N   UNL     1     -44.517  56.256 -54.474  1.00  0.00    -0.247 N 
HETATM    2  C   UNL     1     -43.410  55.785 -55.178  1.00  0.00     0.241 C 
HETATM    3  O   UNL     1     -42.755  56.451 -55.978  1.00  0.00    -0.271 OA
HETATM    4  H   UNL     1     -44.896  55.759 -53.680  1.00  0.00     0.192 HD
ENDROOT
BRANCH   1   5
HETATM    5  N   UNL     1     -45.015  57.469 -54.777  1.00  0.00    -0.184 NA
HETATM    6  C   UNL     1     -44.821  58.515 -54.034  1.00  0.00     0.153 C 
BRANCH   6   7
HETATM    7  C   UNL     1     -44.177  58.704 -52.736  1.00  0.00     0.018 A 
HETATM    8  C   UNL     1     -44.672  59.008 -51.467  1.00  0.00     0.018 A 
HETATM    9  C   UNL     1     -46.019  59.278 -50.900  1.00  0.00     0.069 C 
HETATM   10  N   UNL     1     -43.592  59.129 -50.618  1.00  0.00    -0.358 N 
HETATM   11  H   UNL     1     -43.655  59.354 -49.634  1.00  0.00     0.166 HD
HETATM   12  C   UNL     1     -42.409  59.020 -51.295  1.00  0.00     0.043 A 
HETATM   13  C   UNL     1     -42.730  58.725 -52.615  1.00  0.00     0.004 A 
HETATM   14  C   UNL     1     -41.094  59.174 -50.840  1.00  0.00     0.030 A 
HETATM   15  C   UNL     1     -41.664  58.553 -53.530  1.00  0.00     0.014 A 
HETATM   16  C   UNL     1     -40.341  58.707 -53.097  1.00  0.00     0.001 A 
HETATM   17  C   UNL     1     -40.063  59.019 -51.770  1.00  0.00     0.002 A 
ENDBRANCH   6   7
ENDBRANCH   1   5
BRANCH   2  18
HETATM   18  C   UNL     1     -43.099  54.326 -54.893  1.00  0.00     0.145 C 
BRANCH  18  19
HETATM   19  C   UNL     1     -42.195  54.129 -53.709  1.00  0.00    -0.021 A 
HETATM   20  C   UNL     1     -41.229  53.088 -53.486  1.00  0.00    -0.001 A 
HETATM   21  C   UNL     1     -40.676  53.292 -52.220  1.00  0.00     0.042 A 
HETATM   22  C   UNL     1     -40.761  51.988 -54.237  1.00  0.00     0.014 A 
HETATM   23  C   UNL     1     -39.710  52.444 -51.663  1.00  0.00     0.030 A 
HETATM   24  N   UNL     1     -41.248  54.431 -51.708  1.00  0.00    -0.365 N 
HETATM   25  C   UNL     1     -39.287  51.350 -52.422  1.00  0.00     0.002 A 
HETATM   26  C   UNL     1     -39.800  51.127 -53.695  1.00  0.00     0.001 A 
HETATM   27  H   UNL     1     -41.013  54.834 -50.811  1.00  0.00     0.165 HD
HETATM   28  C   UNL     1     -42.171  54.934 -52.583  1.00  0.00     0.097 A 
ENDBRANCH  18  19
ENDBRANCH   2  18
TORSDOF 4
ENDMDL
MODEL 7
REMARK VINA RESULT:      -7.9      2.193      5.950
REMARK  4 active torsions:
REMARK  status: ('A' for Active; 'I' for Inactive)
REMARK    1  A    between atoms: C_7  and  C_8 
REMARK    2  A    between atoms: N_9  and  N_10 
REMARK       I    between atoms: N_10  and  C_11 
REMARK    3  A    between atoms: C_11  and  C_12 
REMARK    4  A    between atoms: C_12  and  C_13 
ROOT
HETATM    1  N   UNL     1     -42.104  56.563 -56.495  1.00  0.00    -0.247 N 
HETATM    2  C   UNL     1     -42.893  57.704 -56.619  1.00  0.00     0.241 C 
HETATM    3  O   UNL     1     -44.109  57.697 -56.802  1.00  0.00    -0.271 OA
HETATM    4  H   UNL     1     -41.160  56.602 -56.139  1.00  0.00     0.192 HD
ENDROOT
BRANCH   1   5
HETATM    5  N   UNL     1     -42.657  55.358 -56.732  1.00  0.00    -0.184 NA
HETATM    6  C   UNL     1     -42.949  54.519 -55.786  1.00  0.00     0.153 C 
BRANCH   6   7
HETATM    7  C   UNL     1     -42.719  54.533 -54.342  1.00  0.00     0.018 A 
HETATM    8  C   UNL     1     -43.187  55.355 -53.316  1.00  0.00     0.018 A 
HETATM    9  C   UNL     1     -44.079  56.541 -53.241  1.00  0.00     0.069 C 
HETATM   10  N   UNL     1     -42.585  54.941 -52.146  1.00  0.00    -0.358 N 
HETATM   11  H   UNL     1     -42.734  55.365 -51.241  1.00  0.00     0.166 HD
HETATM   12  C   UNL     1     -41.667  53.954 -52.378  1.00  0.00     0.043 A 
HETATM   13  C   UNL     1     -41.741  53.651 -53.732  1.00  0.00     0.004 A 
HETATM   14  C   UNL     1     -40.778  53.327 -51.497  1.00  0.00     0.030 A 
HETATM   15  C   UNL     1     -40.885  52.640 -54.229  1.00  0.00     0.014 A 
HETATM   16  C   UNL     1     -39.984  52.003 -53.366  1.00  0.00     0.001 A 
HETATM   17  C   UNL     1     -39.930  52.348 -52.020  1.00  0.00     0.002 A 
ENDBRANCH   6   7
ENDBRANCH   1   5
BRANCH   2  18
HETATM   18  C   UNL     1     -42.093  58.993 -56.547  1.00  0.00     0.145 C 
BRANCH  18  19
HETATM   19  C   UNL     1     -42.225  59.704 -55.230  1.00  0.00    -0.021 A 
HETATM   20  C   UNL     1     -41.712  59.307 -53.946  1.00  0.00    -0.001 A 
HETATM   21  C   UNL     1     -42.138  60.255 -53.013  1.00  0.00     0.042 A 
HETATM   22  C   UNL     1     -40.921  58.236 -53.479  1.00  0.00     0.014 A 
HETATM   23  C   UNL     1     -41.838  60.170 -51.647  1.00  0.00     0.030 A 
HETATM   24  N   UNL     1     -42.844  61.212 -53.702  1.00  0.00    -0.365 N 
HETATM   25  C   UNL     1     -41.075  59.083 -51.214  1.00  0.00     0.002 A 
HETATM   26  C   UNL     1     -40.617  58.131 -52.116  1.00  0.00     0.001 A 
HETATM   27  H   UNL     1     -43.248  62.037 -53.280  1.00  0.00     0.165 HD
HETATM   28  C   UNL     1     -42.917  60.885 -55.028  1.00  0.00     0.097 A 
ENDBRANCH  18  19
ENDBRANCH   2  18
TORSDOF 4
ENDMDL
MODEL 8
REMARK VINA RESULT:      -7.8      2.624      4.877
REMARK  4 active torsions:
REMARK  status: ('A' for Active; 'I' for Inactive)
REMARK    1  A    between atoms: C_7  and  C_8 
REMARK    2  A    between atoms: N_9  and  N_10 
REMARK       I    between atoms: N_10  and  C_11 
REMARK    3  A    between atoms: C_11  and  C_12 
REMARK    4  A    between atoms: C_12  and  C_13 
ROOT
HETATM    1  N   UNL     1     -44.192  56.565 -52.790  1.00  0.00    -0.247 N 
HETATM    2  C   UNL     1     -43.216  56.104 -51.910  1.00  0.00     0.241 C 
HETATM    3  O   UNL     1     -42.292  56.786 -51.470  1.00  0.00    -0.271 OA
HETATM    4  H   UNL     1     -45.043  56.049 -52.961  1.00  0.00     0.192 HD
ENDROOT
BRANCH   1   5
HETATM    5  N   UNL     1     -44.061  57.793 -53.325  1.00  0.00    -0.184 NA
HETATM    6  C   UNL     1     -43.654  57.991 -54.541  1.00  0.00     0.153 C 
BRANCH   6   7
HETATM    7  C   UNL     1     -43.162  57.090 -55.581  1.00  0.00     0.018 A 
HETATM    8  C   UNL     1     -42.065  56.230 -55.649  1.00  0.00     0.018 A 
HETATM    9  C   UNL     1     -40.948  55.874 -54.735  1.00  0.00     0.069 C 
HETATM   10  N   UNL     1     -42.054  55.668 -56.909  1.00  0.00    -0.358 N 
HETATM   11  H   UNL     1     -41.363  55.010 -57.240  1.00  0.00     0.166 HD
HETATM   12  C   UNL     1     -43.034  56.201 -57.701  1.00  0.00     0.043 A 
HETATM   13  C   UNL     1     -43.765  57.071 -56.902  1.00  0.00     0.004 A 
HETATM   14  C   UNL     1     -43.310  55.987 -59.057  1.00  0.00     0.030 A 
HETATM   15  C   UNL     1     -44.856  57.751 -57.494  1.00  0.00     0.014 A 
HETATM   16  C   UNL     1     -45.147  57.555 -58.850  1.00  0.00     0.001 A 
HETATM   17  C   UNL     1     -44.379  56.688 -59.620  1.00  0.00     0.002 A 
ENDBRANCH   6   7
ENDBRANCH   1   5
BRANCH   2  18
HETATM   18  C   UNL     1     -43.371  54.632 -51.565  1.00  0.00     0.145 C 
BRANCH  18  19
HETATM   19  C   UNL     1     -42.062  53.932 -51.337  1.00  0.00    -0.021 A 
HETATM   20  C   UNL     1     -41.295  53.149 -52.268  1.00  0.00    -0.001 A 
HETATM   21  C   UNL     1     -40.183  52.653 -51.583  1.00  0.00     0.042 A 
HETATM   22  C   UNL     1     -41.429  52.811 -53.632  1.00  0.00     0.014 A 
HETATM   23  C   UNL     1     -39.225  51.823 -52.181  1.00  0.00     0.030 A 
HETATM   24  N   UNL     1     -40.245  53.146 -50.302  1.00  0.00    -0.365 N 
HETATM   25  C   UNL     1     -39.402  51.487 -53.525  1.00  0.00     0.002 A 
HETATM   26  C   UNL     1     -40.486  51.978 -54.244  1.00  0.00     0.001 A 
HETATM   27  H   UNL     1     -39.550  52.970 -49.589  1.00  0.00     0.165 HD
HETATM   28  C   UNL     1     -41.373  53.900 -50.137  1.00  0.00     0.097 A 
ENDBRANCH  18  19
ENDBRANCH   2  18
TORSDOF 4
ENDMDL
MODEL 9
REMARK VINA RESULT:      -7.8      1.753      3.663
REMARK  4 active torsions:
REMARK  status: ('A' for Active; 'I' for Inactive)
REMARK    1  A    between atoms: C_7  and  C_8 
REMARK    2  A    between atoms: N_9  and  N_10 
REMARK       I    between atoms: N_10  and  C_11 
REMARK    3  A    between atoms: C_11  and  C_12 
REMARK    4  A    between atoms: C_12  and  C_13 
ROOT
HETATM    1  N   UNL     1     -42.244  54.799 -55.636  1.00  0.00    -0.247 N 
HETATM    2  C   UNL     1     -41.117  54.232 -55.047  1.00  0.00     0.241 C 
HETATM    3  O   UNL     1     -39.988  54.721 -55.079  1.00  0.00    -0.271 OA
HETATM    4  H   UNL     1     -43.178  54.486 -55.414  1.00  0.00     0.192 HD
ENDROOT
BRANCH   1   5
HETATM    5  N   UNL     1     -42.093  55.881 -56.424  1.00  0.00    -0.184 NA
HETATM    6  C   UNL     1     -42.436  57.076 -56.052  1.00  0.00     0.153 C 
BRANCH   6   7
HETATM    7  C   UNL     1     -43.108  57.589 -54.860  1.00  0.00     0.018 A 
HETATM    8  C   UNL     1     -44.400  58.060 -54.630  1.00  0.00     0.018 A 
HETATM    9  C   UNL     1     -45.615  58.254 -55.464  1.00  0.00     0.069 C 
HETATM   10  N   UNL     1     -44.462  58.480 -53.317  1.00  0.00    -0.358 N 
HETATM   11  H   UNL     1     -45.281  58.876 -52.877  1.00  0.00     0.166 HD
HETATM   12  C   UNL     1     -43.239  58.400 -52.709  1.00  0.00     0.043 A 
HETATM   13  C   UNL     1     -42.373  57.822 -53.629  1.00  0.00     0.004 A 
HETATM   14  C   UNL     1     -42.842  58.808 -51.430  1.00  0.00     0.030 A 
HETATM   15  C   UNL     1     -41.030  57.621 -53.233  1.00  0.00     0.014 A 
HETATM   16  C   UNL     1     -40.609  58.026 -51.960  1.00  0.00     0.001 A 
HETATM   17  C   UNL     1     -41.505  58.617 -51.075  1.00  0.00     0.002 A 
ENDBRANCH   6   7
ENDBRANCH   1   5
BRANCH   2  18
HETATM   18  C   UNL     1     -41.401  52.899 -54.377  1.00  0.00     0.145 C 
BRANCH  18  19
HETATM   19  C   UNL     1     -40.799  52.780 -53.005  1.00  0.00    -0.021 A 
HETATM   20  C   UNL     1     -41.118  53.533 -51.822  1.00  0.00    -0.001 A 
HETATM   21  C   UNL     1     -40.256  53.107 -50.809  1.00  0.00     0.042 A 
HETATM   22  C   UNL     1     -42.058  54.536 -51.505  1.00  0.00     0.014 A 
HETATM   23  C   UNL     1     -40.269  53.648 -49.517  1.00  0.00     0.030 A 
HETATM   24  N   UNL     1     -39.473  52.108 -51.337  1.00  0.00    -0.365 N 
HETATM   25  C   UNL     1     -41.196  54.658 -49.243  1.00  0.00     0.002 A 
HETATM   26  C   UNL     1     -42.083  55.093 -50.221  1.00  0.00     0.001 A 
HETATM   27  H   UNL     1     -38.775  51.596 -50.817  1.00  0.00     0.165 HD
HETATM   28  C   UNL     1     -39.779  51.914 -52.656  1.00  0.00     0.097 A 
ENDBRANCH  18  19
ENDBRANCH   2  18
TORSDOF 4
ENDMDL
MODEL 10
REMARK VINA RESULT:      -7.8      3.286      6.608
REMARK  4 active torsions:
REMARK  status: ('A' for Active; 'I' for Inactive)
REMARK    1  A    between atoms: C_7  and  C_8 
REMARK    2  A    between atoms: N_9  and  N_10 
REMARK       I    between atoms: N_10  and  C_11 
REMARK    3  A    between atoms: C_11  and  C_12 
REMARK    4  A    between atoms: C_12  and  C_13 
ROOT
HETATM    1  N   UNL     1     -44.193  56.220 -54.856  1.00  0.00    -0.247 N 
HETATM    2  C   UNL     1     -43.689  57.194 -55.714  1.00  0.00     0.241 C 
HETATM    3  O   UNL     1     -42.727  57.037 -56.464  1.00  0.00    -0.271 OA
HETATM    4  H   UNL     1     -45.098  56.310 -54.418  1.00  0.00     0.192 HD
ENDROOT
BRANCH   1   5
HETATM    5  N   UNL     1     -43.514  55.066 -54.708  1.00  0.00    -0.184 NA
HETATM    6  C   UNL     1     -42.859  54.769 -53.628  1.00  0.00     0.153 C 
BRANCH   6   7
HETATM    7  C   UNL     1     -42.575  55.514 -52.403  1.00  0.00     0.018 A 
HETATM    8  C   UNL     1     -43.091  55.443 -51.109  1.00  0.00     0.018 A 
HETATM    9  C   UNL     1     -44.128  54.620 -50.433  1.00  0.00     0.069 C 
HETATM   10  N   UNL     1     -42.494  56.441 -50.368  1.00  0.00    -0.358 N 
HETATM   11  H   UNL     1     -42.686  56.629 -49.393  1.00  0.00     0.166 HD
HETATM   12  C   UNL     1     -41.687  57.226 -51.146  1.00  0.00     0.043 A 
HETATM   13  C   UNL     1     -41.688  56.664 -52.416  1.00  0.00     0.004 A 
HETATM   14  C   UNL     1     -40.978  58.389 -50.820  1.00  0.00     0.030 A 
HETATM   15  C   UNL     1     -40.911  57.295 -53.417  1.00  0.00     0.014 A 
HETATM   16  C   UNL     1     -40.198  58.462 -53.114  1.00  0.00     0.001 A 
HETATM   17  C   UNL     1     -40.238  59.002 -51.832  1.00  0.00     0.002 A 
ENDBRANCH   6   7
ENDBRANCH   1   5
BRANCH   2  18
HETATM   18  C   UNL     1     -44.426  58.519 -55.611  1.00  0.00     0.145 C 
BRANCH  18  19
HETATM   19  C   UNL     1     -43.761  59.502 -54.691  1.00  0.00    -0.021 A 
HETATM   20  C   UNL     1     -43.949  59.669 -53.276  1.00  0.00    -0.001 A 
HETATM   21  C   UNL     1     -43.157  60.747 -52.871  1.00  0.00     0.042 A 
HETATM   22  C   UNL     1     -44.712  59.009 -52.289  1.00  0.00     0.014 A 
HETATM   23  C   UNL     1     -43.113  61.208 -51.549  1.00  0.00     0.030 A 
HETATM   24  N   UNL     1     -42.482  61.192 -53.982  1.00  0.00    -0.365 N 
HETATM   25  C   UNL     1     -43.901  60.549 -50.602  1.00  0.00     0.002 A 
HETATM   26  C   UNL     1     -44.686  59.460 -50.964  1.00  0.00     0.001 A 
HETATM   27  H   UNL     1     -41.812  61.949 -53.977  1.00  0.00     0.165 HD
HETATM   28  C   UNL     1     -42.846  60.465 -55.081  1.00  0.00     0.097 A 
ENDBRANCH  18  19
ENDBRANCH   2  18
TORSDOF 4
ENDMDL
