MODEL 1
REMARK VINA RESULT:      -7.7      0.000      0.000
REMARK  4 active torsions:
REMARK  status: ('A' for Active; 'I' for Inactive)
REMARK    1  A    between atoms: C_8  and  N_9 
REMARK    2  A    between atoms: C_11  and  C_12 
REMARK    3  A    between atoms: C_13  and  O_14 
REMARK    4  A    between atoms: O_14  and  C_15 
ROOT
HETATM    1  C   UNL     1     -40.757  53.242 -55.242  1.00  0.00     0.002 A 
HETATM    2  C   UNL     1     -40.015  52.713 -54.179  1.00  0.00     0.034 A 
HETATM    3  C   UNL     1     -40.238  53.214 -52.889  1.00  0.00     0.103 A 
HETATM    4  C   UNL     1     -41.183  54.218 -52.699  1.00  0.00     0.083 A 
HETATM    5  N   UNL     1     -41.109  54.464 -51.355  1.00  0.00    -0.151 N 
HETATM    6  C   UNL     1     -40.206  53.610 -50.773  1.00  0.00     0.734 A 
HETATM    7  N   UNL     1     -39.974  53.584 -49.442  1.00  0.00    -0.033 NA
HETATM    8  C   UNL     1     -40.690  54.322 -48.673  1.00  0.00     0.193 C 
HETATM    9  N   UNL     1     -41.676  55.208 -49.117  1.00  0.00    -0.338 N 
HETATM   10  C   UNL     1     -41.862  55.405 -50.553  1.00  0.00     0.246 C 
HETATM   11  N   UNL     1     -39.650  52.861 -51.700  1.00  0.00    -0.060 NA
HETATM   12  C   UNL     1     -41.939  54.760 -53.743  1.00  0.00     0.033 A 
HETATM   13  C   UNL     1     -41.702  54.247 -55.024  1.00  0.00     0.002 A 
HETATM   14  H   UNL     1     -42.178  55.799 -48.474  1.00  0.00     0.164 HD
ENDROOT
BRANCH  10  15
HETATM   15  C   UNL     1     -41.547  56.868 -50.855  1.00  0.00     0.020 A 
HETATM   16  C   UNL     1     -42.524  57.672 -51.487  1.00  0.00     0.085 A 
HETATM   17  C   UNL     1     -42.237  59.003 -51.811  1.00  0.00     0.039 A 
HETATM   18  C   UNL     1     -41.000  59.558 -51.479  1.00  0.00     0.022 A 
HETATM   19  C   UNL     1     -40.051  58.791 -50.815  1.00  0.00     0.011 A 
HETATM   20 BR   UNL     1     -38.385  59.552 -50.353  1.00  0.00    -0.051 Br
HETATM   21  C   UNL     1     -40.318  57.462 -50.494  1.00  0.00     0.033 A 
BRANCH  16  22
HETATM   22  O   UNL     1     -43.728  57.059 -51.716  1.00  0.00    -0.289 OA
BRANCH  22  23
HETATM   23  C   UNL     1     -44.792  57.851 -52.234  1.00  0.00     0.505 C 
HETATM   24  F   UNL     1     -45.187  57.330 -53.418  1.00  0.00    -0.184 F 
HETATM   25  F   UNL     1     -45.828  57.711 -51.371  1.00  0.00    -0.184 F 
ENDBRANCH  22  23
ENDBRANCH  16  22
ENDBRANCH  10  15
BRANCH   8  26
HETATM   26  N   UNL     1     -40.558  54.328 -47.331  1.00  0.00    -0.272 NA
HETATM   27  H   UNL     1     -39.884  53.624 -47.034  1.00  0.00     0.127 HD
HETATM   28  H   UNL     1     -41.413  54.249 -46.797  1.00  0.00     0.127 HD
ENDBRANCH   8  26
TORSDOF 4
ENDMDL
MODEL 2
REMARK VINA RESULT:      -7.4      3.272      4.400
REMARK  4 active torsions:
REMARK  status: ('A' for Active; 'I' for Inactive)
REMARK    1  A    between atoms: C_8  and  N_9 
REMARK    2  A    between atoms: C_11  and  C_12 
REMARK    3  A    between atoms: C_13  and  O_14 
REMARK    4  A    between atoms: O_14  and  C_15 
ROOT
HETATM    1  C   UNL     1     -39.524  51.664 -53.217  1.00  0.00     0.002 A 
HETATM    2  C   UNL     1     -39.634  52.428 -52.050  1.00  0.00     0.034 A 
HETATM    3  C   UNL     1     -40.648  53.393 -51.971  1.00  0.00     0.103 A 
HETATM    4  C   UNL     1     -41.513  53.566 -53.048  1.00  0.00     0.083 A 
HETATM    5  N   UNL     1     -42.330  54.581 -52.630  1.00  0.00    -0.151 N 
HETATM    6  C   UNL     1     -42.000  54.950 -51.351  1.00  0.00     0.734 A 
HETATM    7  N   UNL     1     -42.683  55.889 -50.660  1.00  0.00    -0.033 NA
HETATM    8  C   UNL     1     -43.741  56.395 -51.181  1.00  0.00     0.193 C 
HETATM    9  N   UNL     1     -44.225  56.085 -52.455  1.00  0.00    -0.338 N 
HETATM   10  C   UNL     1     -43.442  55.202 -53.317  1.00  0.00     0.246 C 
HETATM   11  N   UNL     1     -40.961  54.252 -50.948  1.00  0.00    -0.060 NA
HETATM   12  C   UNL     1     -41.426  52.812 -54.223  1.00  0.00     0.033 A 
HETATM   13  C   UNL     1     -40.407  51.854 -54.282  1.00  0.00     0.002 A 
HETATM   14  H   UNL     1     -45.035  56.547 -52.835  1.00  0.00     0.164 HD
ENDROOT
BRANCH  10  15
HETATM   15  C   UNL     1     -43.037  56.012 -54.547  1.00  0.00     0.020 A 
HETATM   16  C   UNL     1     -42.354  57.240 -54.376  1.00  0.00     0.085 A 
HETATM   17  C   UNL     1     -42.014  58.016 -55.489  1.00  0.00     0.039 A 
HETATM   18  C   UNL     1     -42.313  57.569 -56.778  1.00  0.00     0.022 A 
HETATM   19  C   UNL     1     -42.939  56.343 -56.959  1.00  0.00     0.011 A 
HETATM   20 BR   UNL     1     -43.326  55.734 -58.705  1.00  0.00    -0.051 Br
HETATM   21  C   UNL     1     -43.293  55.562 -55.860  1.00  0.00     0.033 A 
BRANCH  16  22
HETATM   22  O   UNL     1     -42.049  57.564 -53.080  1.00  0.00    -0.289 OA
BRANCH  22  23
HETATM   23  C   UNL     1     -40.892  58.360 -52.846  1.00  0.00     0.505 C 
HETATM   24  F   UNL     1     -41.267  59.656 -52.745  1.00  0.00    -0.184 F 
HETATM   25  F   UNL     1     -40.411  57.989 -51.635  1.00  0.00    -0.184 F 
ENDBRANCH  22  23
ENDBRANCH  16  22
ENDBRANCH  10  15
BRANCH   8  26
HETATM   26  N   UNL     1     -44.507  57.306 -50.546  1.00  0.00    -0.272 NA
HETATM   27  H   UNL     1     -45.129  56.850 -49.881  1.00  0.00     0.127 HD
HETATM   28  H   UNL     1     -45.025  57.943 -51.137  1.00  0.00     0.127 HD
ENDBRANCH   8  26
TORSDOF 4
ENDMDL
MODEL 3
REMARK VINA RESULT:      -7.2      3.430      5.995
REMARK  4 active torsions:
REMARK  status: ('A' for Active; 'I' for Inactive)
REMARK    1  A    between atoms: C_8  and  N_9 
REMARK    2  A    between atoms: C_11  and  C_12 
REMARK    3  A    between atoms: C_13  and  O_14 
REMARK    4  A    between atoms: O_14  and  C_15 
ROOT
HETATM    1  C   UNL     1     -45.832  59.820 -50.197  1.00  0.00     0.002 A 
HETATM    2  C   UNL     1     -44.628  60.486 -49.939  1.00  0.00     0.034 A 
HETATM    3  C   UNL     1     -43.460  60.032 -50.567  1.00  0.00     0.103 A 
HETATM    4  C   UNL     1     -43.525  58.936 -51.423  1.00  0.00     0.083 A 
HETATM    5  N   UNL     1     -42.225  58.772 -51.817  1.00  0.00    -0.151 N 
HETATM    6  C   UNL     1     -41.443  59.754 -51.265  1.00  0.00     0.734 A 
HETATM    7  N   UNL     1     -40.123  59.877 -51.533  1.00  0.00    -0.033 NA
HETATM    8  C   UNL     1     -39.594  59.103 -52.409  1.00  0.00     0.193 C 
HETATM    9  N   UNL     1     -40.274  58.086 -53.085  1.00  0.00    -0.338 N 
HETATM   10  C   UNL     1     -41.659  57.794 -52.721  1.00  0.00     0.246 C 
HETATM   11  N   UNL     1     -42.178  60.513 -50.482  1.00  0.00    -0.060 NA
HETATM   12  C   UNL     1     -44.716  58.256 -51.700  1.00  0.00     0.033 A 
HETATM   13  C   UNL     1     -45.871  58.725 -51.064  1.00  0.00     0.002 A 
HETATM   14  H   UNL     1     -39.799  57.475 -53.730  1.00  0.00     0.164 HD
ENDROOT
BRANCH  10  15
HETATM   15  C   UNL     1     -41.696  56.363 -52.189  1.00  0.00     0.020 A 
HETATM   16  C   UNL     1     -42.187  55.327 -53.019  1.00  0.00     0.085 A 
HETATM   17  C   UNL     1     -42.269  54.017 -52.533  1.00  0.00     0.039 A 
HETATM   18  C   UNL     1     -41.833  53.716 -51.241  1.00  0.00     0.022 A 
HETATM   19  C   UNL     1     -41.304  54.717 -50.436  1.00  0.00     0.011 A 
HETATM   20 BR   UNL     1     -40.700  54.302 -48.695  1.00  0.00    -0.051 Br
HETATM   21  C   UNL     1     -41.225  56.028 -50.902  1.00  0.00     0.033 A 
BRANCH  16  22
HETATM   22  O   UNL     1     -42.532  55.707 -54.289  1.00  0.00    -0.289 OA
BRANCH  22  23
HETATM   23  C   UNL     1     -41.811  55.134 -55.375  1.00  0.00     0.505 C 
HETATM   24  F   UNL     1     -42.077  55.842 -56.497  1.00  0.00    -0.184 F 
HETATM   25  F   UNL     1     -40.496  55.309 -55.096  1.00  0.00    -0.184 F 
ENDBRANCH  22  23
ENDBRANCH  16  22
ENDBRANCH  10  15
BRANCH   8  26
HETATM   26  N   UNL     1     -38.296  59.182 -52.769  1.00  0.00    -0.272 NA
HETATM   27  H   UNL     1     -38.201  59.659 -53.664  1.00  0.00     0.127 HD
HETATM   28  H   UNL     1     -37.780  58.313 -52.773  1.00  0.00     0.127 HD
ENDBRANCH   8  26
TORSDOF 4
ENDMDL
MODEL 4
REMARK VINA RESULT:      -7.0      3.592      5.091
REMARK  4 active torsions:
REMARK  status: ('A' for Active; 'I' for Inactive)
REMARK    1  A    between atoms: C_8  and  N_9 
REMARK    2  A    between atoms: C_11  and  C_12 
REMARK    3  A    between atoms: C_13  and  O_14 
REMARK    4  A    between atoms: O_14  and  C_15 
ROOT
HETATM    1  C   UNL     1     -40.696  53.450 -49.719  1.00  0.00     0.002 A 
HETATM    2  C   UNL     1     -41.365  53.143 -50.910  1.00  0.00     0.034 A 
HETATM    3  C   UNL     1     -41.538  54.155 -51.864  1.00  0.00     0.103 A 
HETATM    4  C   UNL     1     -41.045  55.430 -51.605  1.00  0.00     0.083 A 
HETATM    5  N   UNL     1     -41.412  56.137 -52.718  1.00  0.00    -0.151 N 
HETATM    6  C   UNL     1     -42.040  55.307 -53.612  1.00  0.00     0.734 A 
HETATM    7  N   UNL     1     -42.456  55.721 -54.829  1.00  0.00    -0.033 NA
HETATM    8  C   UNL     1     -42.173  56.915 -55.208  1.00  0.00     0.193 C 
HETATM    9  N   UNL     1     -41.501  57.858 -54.426  1.00  0.00    -0.338 N 
HETATM   10  C   UNL     1     -41.171  57.527 -53.041  1.00  0.00     0.246 C 
HETATM   11  N   UNL     1     -42.146  54.103 -53.093  1.00  0.00    -0.060 NA
HETATM   12  C   UNL     1     -40.370  55.761 -50.426  1.00  0.00     0.033 A 
HETATM   13  C   UNL     1     -40.207  54.737 -49.486  1.00  0.00     0.002 A 
HETATM   14  H   UNL     1     -41.345  58.797 -54.754  1.00  0.00     0.164 HD
ENDROOT
BRANCH  10  15
HETATM   15  C   UNL     1     -41.924  58.511 -52.148  1.00  0.00     0.020 A 
HETATM   16  C   UNL     1     -41.201  59.503 -51.444  1.00  0.00     0.085 A 
HETATM   17  C   UNL     1     -41.870  60.385 -50.588  1.00  0.00     0.039 A 
HETATM   18  C   UNL     1     -43.258  60.317 -50.449  1.00  0.00     0.022 A 
HETATM   19  C   UNL     1     -43.981  59.378 -51.173  1.00  0.00     0.011 A 
HETATM   20 BR   UNL     1     -45.861  59.301 -50.995  1.00  0.00    -0.051 Br
HETATM   21  C   UNL     1     -43.330  58.486 -52.023  1.00  0.00     0.033 A 
BRANCH  16  22
HETATM   22  O   UNL     1     -39.854  59.532 -51.693  1.00  0.00    -0.289 OA
BRANCH  22  23
HETATM   23  C   UNL     1     -38.969  59.402 -50.585  1.00  0.00     0.505 C 
HETATM   24  F   UNL     1     -37.788  58.911 -51.025  1.00  0.00    -0.184 F 
HETATM   25  F   UNL     1     -38.735  60.658 -50.133  1.00  0.00    -0.184 F 
ENDBRANCH  22  23
ENDBRANCH  16  22
ENDBRANCH  10  15
BRANCH   8  26
HETATM   26  N   UNL     1     -42.511  57.398 -56.421  1.00  0.00    -0.272 NA
HETATM   27  H   UNL     1     -42.421  58.412 -56.441  1.00  0.00     0.127 HD
HETATM   28  H   UNL     1     -43.413  57.114 -56.780  1.00  0.00     0.127 HD
ENDBRANCH   8  26
TORSDOF 4
ENDMDL
MODEL 5
REMARK VINA RESULT:      -6.9      5.443      7.289
REMARK  4 active torsions:
REMARK  status: ('A' for Active; 'I' for Inactive)
REMARK    1  A    between atoms: C_8  and  N_9 
REMARK    2  A    between atoms: C_11  and  C_12 
REMARK    3  A    between atoms: C_13  and  O_14 
REMARK    4  A    between atoms: O_14  and  C_15 
ROOT
HETATM    1  C   UNL     1     -40.588  54.632 -53.922  1.00  0.00     0.002 A 
HETATM    2  C   UNL     1     -41.092  55.766 -53.273  1.00  0.00     0.034 A 
HETATM    3  C   UNL     1     -42.067  56.535 -53.924  1.00  0.00     0.103 A 
HETATM    4  C   UNL     1     -42.504  56.157 -55.190  1.00  0.00     0.083 A 
HETATM    5  N   UNL     1     -43.411  57.130 -55.509  1.00  0.00    -0.151 N 
HETATM    6  C   UNL     1     -43.543  58.007 -54.462  1.00  0.00     0.734 A 
HETATM    7  N   UNL     1     -44.419  59.036 -54.473  1.00  0.00    -0.033 NA
HETATM    8  C   UNL     1     -45.229  59.150 -55.463  1.00  0.00     0.193 C 
HETATM    9  N   UNL     1     -45.243  58.307 -56.579  1.00  0.00    -0.338 N 
HETATM   10  C   UNL     1     -44.214  57.278 -56.705  1.00  0.00     0.246 C 
HETATM   11  N   UNL     1     -42.711  57.670 -53.501  1.00  0.00    -0.060 NA
HETATM   12  C   UNL     1     -42.019  55.027 -55.857  1.00  0.00     0.033 A 
HETATM   13  C   UNL     1     -41.047  54.272 -55.191  1.00  0.00     0.002 A 
HETATM   14  H   UNL     1     -45.869  58.469 -57.350  1.00  0.00     0.164 HD
ENDROOT
BRANCH  10  15
HETATM   15  C   UNL     1     -43.404  57.597 -57.960  1.00  0.00     0.020 A 
HETATM   16  C   UNL     1     -43.091  56.556 -58.867  1.00  0.00     0.085 A 
HETATM   17  C   UNL     1     -42.314  56.822 -59.999  1.00  0.00     0.039 A 
HETATM   18  C   UNL     1     -41.873  58.120 -60.263  1.00  0.00     0.022 A 
HETATM   19  C   UNL     1     -42.216  59.157 -59.404  1.00  0.00     0.011 A 
HETATM   20 BR   UNL     1     -41.631  60.915 -59.774  1.00  0.00    -0.051 Br
HETATM   21  C   UNL     1     -42.981  58.907 -58.267  1.00  0.00     0.033 A 
BRANCH  16  22
HETATM   22  O   UNL     1     -43.621  55.331 -58.557  1.00  0.00    -0.289 OA
BRANCH  22  23
HETATM   23  C   UNL     1     -44.350  54.645 -59.569  1.00  0.00     0.505 C 
HETATM   24  F   UNL     1     -44.662  53.408 -59.119  1.00  0.00    -0.184 F 
HETATM   25  F   UNL     1     -45.516  55.318 -59.724  1.00  0.00    -0.184 F 
ENDBRANCH  22  23
ENDBRANCH  16  22
ENDBRANCH  10  15
BRANCH   8  26
HETATM   26  N   UNL     1     -46.164  60.119 -55.537  1.00  0.00    -0.272 NA
HETATM   27  H   UNL     1     -46.962  59.894 -54.945  1.00  0.00     0.127 HD
HETATM   28  H   UNL     1     -46.472  60.372 -56.467  1.00  0.00     0.127 HD
ENDBRANCH   8  26
TORSDOF 4
ENDMDL
MODEL 6
REMARK VINA RESULT:      -6.8      4.493      6.005
REMARK  4 active torsions:
REMARK  status: ('A' for Active; 'I' for Inactive)
REMARK    1  A    between atoms: C_8  and  N_9 
REMARK    2  A    between atoms: C_11  and  C_12 
REMARK    3  A    between atoms: C_13  and  O_14 
REMARK    4  A    between atoms: O_14  and  C_15 
ROOT
HETATM    1  C   UNL     1     -41.837  53.973 -53.974  1.00  0.00     0.002 A 
HETATM    2  C   UNL     1     -42.414  54.456 -55.155  1.00  0.00     0.034 A 
HETATM    3  C   UNL     1     -42.426  55.839 -55.380  1.00  0.00     0.103 A 
HETATM    4  C   UNL     1     -41.869  56.692 -54.431  1.00  0.00     0.083 A 
HETATM    5  N   UNL     1     -42.081  57.933 -54.966  1.00  0.00    -0.151 N 
HETATM    6  C   UNL     1     -42.682  57.816 -56.194  1.00  0.00     0.734 A 
HETATM    7  N   UNL     1     -42.954  58.880 -56.982  1.00  0.00    -0.033 NA
HETATM    8  C   UNL     1     -42.554  60.043 -56.613  1.00  0.00     0.193 C 
HETATM    9  N   UNL     1     -41.890  60.310 -55.412  1.00  0.00    -0.338 N 
HETATM   10  C   UNL     1     -41.713  59.231 -54.442  1.00  0.00     0.246 C 
HETATM   11  N   UNL     1     -42.921  56.547 -56.446  1.00  0.00    -0.060 NA
HETATM   12  C   UNL     1     -41.284  56.234 -53.246  1.00  0.00     0.033 A 
HETATM   13  C   UNL     1     -41.281  54.850 -53.040  1.00  0.00     0.002 A 
HETATM   14  H   UNL     1     -41.639  61.249 -55.150  1.00  0.00     0.164 HD
ENDROOT
BRANCH  10  15
HETATM   15  C   UNL     1     -42.473  59.629 -53.179  1.00  0.00     0.020 A 
HETATM   16  C   UNL     1     -41.769  59.761 -51.959  1.00  0.00     0.085 A 
HETATM   17  C   UNL     1     -42.456  60.082 -50.782  1.00  0.00     0.039 A 
HETATM   18  C   UNL     1     -43.834  60.309 -50.810  1.00  0.00     0.022 A 
HETATM   19  C   UNL     1     -44.526  60.228 -52.011  1.00  0.00     0.011 A 
HETATM   20 BR   UNL     1     -46.387  60.553 -52.046  1.00  0.00    -0.051 Br
HETATM   21  C   UNL     1     -43.858  59.901 -53.190  1.00  0.00     0.033 A 
BRANCH  16  22
HETATM   22  O   UNL     1     -40.413  59.582 -52.043  1.00  0.00    -0.289 OA
BRANCH  22  23
HETATM   23  C   UNL     1     -39.718  59.193 -50.862  1.00  0.00     0.505 C 
HETATM   24  F   UNL     1     -39.988  57.892 -50.607  1.00  0.00    -0.184 F 
HETATM   25  F   UNL     1     -38.397  59.276 -51.152  1.00  0.00    -0.184 F 
ENDBRANCH  22  23
ENDBRANCH  16  22
ENDBRANCH  10  15
BRANCH   8  26
HETATM   26  N   UNL     1     -42.743  61.152 -57.356  1.00  0.00    -0.272 NA
HETATM   27  H   UNL     1     -43.624  61.099 -57.864  1.00  0.00     0.127 HD
HETATM   28  H   UNL     1     -41.988  61.406 -57.980  1.00  0.00     0.127 HD
ENDBRANCH   8  26
TORSDOF 4
ENDMDL
MODEL 7
REMARK VINA RESULT:      -6.7     16.456     17.808
REMARK  4 active torsions:
REMARK  status: ('A' for Active; 'I' for Inactive)
REMARK    1  A    between atoms: C_8  and  N_9 
REMARK    2  A    between atoms: C_11  and  C_12 
REMARK    3  A    between atoms: C_13  and  O_14 
REMARK    4  A    between atoms: O_14  and  C_15 
ROOT
HETATM    1  C   UNL     1     -36.287  42.253 -57.288  1.00  0.00     0.002 A 
HETATM    2  C   UNL     1     -37.374  41.817 -56.521  1.00  0.00     0.034 A 
HETATM    3  C   UNL     1     -37.143  41.409 -55.200  1.00  0.00     0.103 A 
HETATM    4  C   UNL     1     -35.849  41.444 -54.689  1.00  0.00     0.083 A 
HETATM    5  N   UNL     1     -36.003  40.963 -53.417  1.00  0.00    -0.151 N 
HETATM    6  C   UNL     1     -37.329  40.709 -53.173  1.00  0.00     0.734 A 
HETATM    7  N   UNL     1     -37.784  40.284 -51.973  1.00  0.00    -0.033 NA
HETATM    8  C   UNL     1     -36.961  40.200 -50.992  1.00  0.00     0.193 C 
HETATM    9  N   UNL     1     -35.592  40.468 -51.078  1.00  0.00    -0.338 N 
HETATM   10  C   UNL     1     -35.009  40.771 -52.384  1.00  0.00     0.246 C 
HETATM   11  N   UNL     1     -38.030  40.952 -54.258  1.00  0.00    -0.060 NA
HETATM   12  C   UNL     1     -34.747  41.878 -55.434  1.00  0.00     0.033 A 
HETATM   13  C   UNL     1     -34.998  42.282 -56.751  1.00  0.00     0.002 A 
HETATM   14  H   UNL     1     -34.981  40.341 -50.288  1.00  0.00     0.164 HD
ENDROOT
BRANCH  10  15
HETATM   15  C   UNL     1     -33.995  39.672 -52.694  1.00  0.00     0.020 A 
HETATM   16  C   UNL     1     -32.867  39.512 -51.855  1.00  0.00     0.085 A 
HETATM   17  C   UNL     1     -31.906  38.538 -52.149  1.00  0.00     0.039 A 
HETATM   18  C   UNL     1     -32.070  37.695 -53.249  1.00  0.00     0.022 A 
HETATM   19  C   UNL     1     -33.198  37.812 -54.051  1.00  0.00     0.011 A 
HETATM   20 BR   UNL     1     -33.424  36.658 -55.529  1.00  0.00    -0.051 Br
HETATM   21  C   UNL     1     -34.160  38.783 -53.777  1.00  0.00     0.033 A 
BRANCH  16  22
HETATM   22  O   UNL     1     -32.824  40.342 -50.766  1.00  0.00    -0.289 OA
BRANCH  22  23
HETATM   23  C   UNL     1     -32.420  39.786 -49.518  1.00  0.00     0.505 C 
HETATM   24  F   UNL     1     -32.069  40.793 -48.686  1.00  0.00    -0.184 F 
HETATM   25  F   UNL     1     -33.519  39.196 -48.989  1.00  0.00    -0.184 F 
ENDBRANCH  22  23
ENDBRANCH  16  22
ENDBRANCH  10  15
BRANCH   8  26
HETATM   26  N   UNL     1     -37.335  39.826 -49.751  1.00  0.00    -0.272 NA
HETATM   27  H   UNL     1     -37.426  38.813 -49.693  1.00  0.00     0.127 HD
HETATM   28  H   UNL     1     -38.160  40.278 -49.378  1.00  0.00     0.127 HD
ENDBRANCH   8  26
TORSDOF 4
ENDMDL
MODEL 8
REMARK VINA RESULT:      -6.5      3.507      5.921
REMARK  4 active torsions:
REMARK  status: ('A' for Active; 'I' for Inactive)
REMARK    1  A    between atoms: C_8  and  N_9 
REMARK    2  A    between atoms: C_11  and  C_12 
REMARK    3  A    between atoms: C_13  and  O_14 
REMARK    4  A    between atoms: O_14  and  C_15 
ROOT
HETATM    1  C   UNL     1     -41.759  60.248 -51.603  1.00  0.00     0.002 A 
HETATM    2  C   UNL     1     -41.864  59.944 -52.965  1.00  0.00     0.034 A 
HETATM    3  C   UNL     1     -42.219  58.640 -53.338  1.00  0.00     0.103 A 
HETATM    4  C   UNL     1     -42.455  57.687 -52.351  1.00  0.00     0.083 A 
HETATM    5  N   UNL     1     -42.744  56.560 -53.071  1.00  0.00    -0.151 N 
HETATM    6  C   UNL     1     -42.732  56.847 -54.412  1.00  0.00     0.734 A 
HETATM    7  N   UNL     1     -43.044  55.935 -55.360  1.00  0.00    -0.033 NA
HETATM    8  C   UNL     1     -43.458  54.776 -54.993  1.00  0.00     0.193 C 
HETATM    9  N   UNL     1     -43.564  54.355 -53.664  1.00  0.00    -0.338 N 
HETATM   10  C   UNL     1     -43.087  55.235 -52.599  1.00  0.00     0.246 C 
HETATM   11  N   UNL     1     -42.388  58.104 -54.589  1.00  0.00    -0.060 NA
HETATM   12  C   UNL     1     -42.361  57.967 -50.984  1.00  0.00     0.033 A 
HETATM   13  C   UNL     1     -42.006  59.274 -50.632  1.00  0.00     0.002 A 
HETATM   14  H   UNL     1     -43.851  53.419 -53.432  1.00  0.00     0.164 HD
ENDROOT
BRANCH  10  15
HETATM   15  C   UNL     1     -41.942  54.512 -51.893  1.00  0.00     0.020 A 
HETATM   16  C   UNL     1     -40.997  53.792 -52.663  1.00  0.00     0.085 A 
HETATM   17  C   UNL     1     -39.966  53.088 -52.030  1.00  0.00     0.039 A 
HETATM   18  C   UNL     1     -39.841  53.119 -50.640  1.00  0.00     0.022 A 
HETATM   19  C   UNL     1     -40.735  53.862 -49.880  1.00  0.00     0.011 A 
HETATM   20 BR   UNL     1     -40.551  53.915 -48.000  1.00  0.00    -0.051 Br
HETATM   21  C   UNL     1     -41.772  54.562 -50.493  1.00  0.00     0.033 A 
BRANCH  16  22
HETATM   22  O   UNL     1     -41.165  53.872 -54.020  1.00  0.00    -0.289 OA
BRANCH  22  23
HETATM   23  C   UNL     1     -40.010  54.101 -54.822  1.00  0.00     0.505 C 
HETATM   24  F   UNL     1     -40.312  53.820 -56.111  1.00  0.00    -0.184 F 
HETATM   25  F   UNL     1     -39.754  55.429 -54.754  1.00  0.00    -0.184 F 
ENDBRANCH  22  23
ENDBRANCH  16  22
ENDBRANCH  10  15
BRANCH   8  26
HETATM   26  N   UNL     1     -43.831  53.821 -55.868  1.00  0.00    -0.272 NA
HETATM   27  H   UNL     1     -43.451  54.012 -56.793  1.00  0.00     0.127 HD
HETATM   28  H   UNL     1     -44.824  53.630 -55.924  1.00  0.00     0.127 HD
ENDBRANCH   8  26
TORSDOF 4
ENDMDL
MODEL 9
REMARK VINA RESULT:      -6.5      1.839      2.492
REMARK  4 active torsions:
REMARK  status: ('A' for Active; 'I' for Inactive)
REMARK    1  A    between atoms: C_8  and  N_9 
REMARK    2  A    between atoms: C_11  and  C_12 
REMARK    3  A    between atoms: C_13  and  O_14 
REMARK    4  A    between atoms: O_14  and  C_15 
ROOT
HETATM    1  C   UNL     1     -43.135  56.318 -56.640  1.00  0.00     0.002 A 
HETATM    2  C   UNL     1     -42.392  55.304 -56.024  1.00  0.00     0.034 A 
HETATM    3  C   UNL     1     -42.336  55.267 -54.624  1.00  0.00     0.103 A 
HETATM    4  C   UNL     1     -43.014  56.233 -53.886  1.00  0.00     0.083 A 
HETATM    5  N   UNL     1     -42.718  55.901 -52.592  1.00  0.00    -0.151 N 
HETATM    6  C   UNL     1     -41.950  54.765 -52.566  1.00  0.00     0.734 A 
HETATM    7  N   UNL     1     -41.560  54.170 -51.417  1.00  0.00    -0.033 NA
HETATM    8  C   UNL     1     -41.999  54.629 -50.301  1.00  0.00     0.193 C 
HETATM    9  N   UNL     1     -42.823  55.751 -50.173  1.00  0.00    -0.338 N 
HETATM   10  C   UNL     1     -43.145  56.536 -51.363  1.00  0.00     0.246 C 
HETATM   11  N   UNL     1     -41.689  54.383 -53.798  1.00  0.00    -0.060 NA
HETATM   12  C   UNL     1     -43.766  57.254 -54.478  1.00  0.00     0.033 A 
HETATM   13  C   UNL     1     -43.809  57.274 -55.876  1.00  0.00     0.002 A 
HETATM   14  H   UNL     1     -43.101  56.098 -49.270  1.00  0.00     0.164 HD
ENDROOT
BRANCH  10  15
HETATM   15  C   UNL     1     -42.568  57.934 -51.154  1.00  0.00     0.020 A 
HETATM   16  C   UNL     1     -43.424  59.058 -51.239  1.00  0.00     0.085 A 
HETATM   17  C   UNL     1     -42.904  60.349 -51.093  1.00  0.00     0.039 A 
HETATM   18  C   UNL     1     -41.547  60.537 -50.827  1.00  0.00     0.022 A 
HETATM   19  C   UNL     1     -40.707  59.438 -50.694  1.00  0.00     0.011 A 
HETATM   20 BR   UNL     1     -38.874  59.697 -50.317  1.00  0.00    -0.051 Br
HETATM   21  C   UNL     1     -41.207  58.146 -50.846  1.00  0.00     0.033 A 
BRANCH  16  22
HETATM   22  O   UNL     1     -44.748  58.771 -51.439  1.00  0.00    -0.289 OA
BRANCH  22  23
HETATM   23  C   UNL     1     -45.586  59.806 -51.945  1.00  0.00     0.505 C 
HETATM   24  F   UNL     1     -45.797  59.591 -53.263  1.00  0.00    -0.184 F 
HETATM   25  F   UNL     1     -46.781  59.669 -51.322  1.00  0.00    -0.184 F 
ENDBRANCH  22  23
ENDBRANCH  16  22
ENDBRANCH  10  15
BRANCH   8  26
HETATM   26  N   UNL     1     -41.697  54.073 -49.110  1.00  0.00    -0.272 NA
HETATM   27  H   UNL     1     -41.733  54.771 -48.369  1.00  0.00     0.127 HD
HETATM   28  H   UNL     1     -40.829  53.554 -49.067  1.00  0.00     0.127 HD
ENDBRANCH   8  26
TORSDOF 4
ENDMDL
MODEL 10
REMARK VINA RESULT:      -6.4      3.803      6.427
REMARK  4 active torsions:
REMARK  status: ('A' for Active; 'I' for Inactive)
REMARK    1  A    between atoms: C_8  and  N_9 
REMARK    2  A    between atoms: C_11  and  C_12 
REMARK    3  A    between atoms: C_13  and  O_14 
REMARK    4  A    between atoms: O_14  and  C_15 
ROOT
HETATM    1  C   UNL     1     -40.868  59.534 -50.197  1.00  0.00     0.002 A 
HETATM    2  C   UNL     1     -41.614  60.214 -51.167  1.00  0.00     0.034 A 
HETATM    3  C   UNL     1     -42.423  59.470 -52.037  1.00  0.00     0.103 A 
HETATM    4  C   UNL     1     -42.463  58.084 -51.917  1.00  0.00     0.083 A 
HETATM    5  N   UNL     1     -43.315  57.710 -52.920  1.00  0.00    -0.151 N 
HETATM    6  C   UNL     1     -43.795  58.822 -53.564  1.00  0.00     0.734 A 
HETATM    7  N   UNL     1     -44.707  58.757 -54.559  1.00  0.00    -0.033 NA
HETATM    8  C   UNL     1     -45.216  57.617 -54.859  1.00  0.00     0.193 C 
HETATM    9  N   UNL     1     -44.859  56.405 -54.262  1.00  0.00    -0.338 N 
HETATM   10  C   UNL     1     -43.763  56.386 -53.295  1.00  0.00     0.246 C 
HETATM   11  N   UNL     1     -43.241  59.899 -53.052  1.00  0.00    -0.060 NA
HETATM   12  C   UNL     1     -41.731  57.382 -50.955  1.00  0.00     0.033 A 
HETATM   13  C   UNL     1     -40.929  58.142 -50.095  1.00  0.00     0.002 A 
HETATM   14  H   UNL     1     -45.256  55.532 -54.566  1.00  0.00     0.164 HD
ENDROOT
BRANCH  10  15
HETATM   15  C   UNL     1     -42.662  55.500 -53.876  1.00  0.00     0.020 A 
HETATM   16  C   UNL     1     -42.276  55.669 -55.226  1.00  0.00     0.085 A 
HETATM   17  C   UNL     1     -41.300  54.837 -55.787  1.00  0.00     0.039 A 
HETATM   18  C   UNL     1     -40.675  53.859 -55.010  1.00  0.00     0.022 A 
HETATM   19  C   UNL     1     -41.014  53.718 -53.670  1.00  0.00     0.011 A 
HETATM   20 BR   UNL     1     -40.154  52.405 -52.618  1.00  0.00    -0.051 Br
HETATM   21  C   UNL     1     -41.990  54.532 -53.099  1.00  0.00     0.033 A 
BRANCH  16  22
HETATM   22  O   UNL     1     -42.899  56.693 -55.890  1.00  0.00    -0.289 OA
BRANCH  22  23
HETATM   23  C   UNL     1     -42.649  56.833 -57.285  1.00  0.00     0.505 C 
HETATM   24  F   UNL     1     -43.833  56.920 -57.933  1.00  0.00    -0.184 F 
HETATM   25  F   UNL     1     -42.020  58.023 -57.443  1.00  0.00    -0.184 F 
ENDBRANCH  22  23
ENDBRANCH  16  22
ENDBRANCH  10  15
BRANCH   8  26
HETATM   26  N   UNL     1     -46.162  57.464 -55.809  1.00  0.00    -0.272 NA
HETATM   27  H   UNL     1     -47.067  57.787 -55.469  1.00  0.00     0.127 HD
HETATM   28  H   UNL     1     -46.244  56.540 -56.213  1.00  0.00     0.127 HD
ENDBRANCH   8  26
TORSDOF 4
ENDMDL
