MODEL 1
REMARK VINA RESULT:      -7.7      0.000      0.000
REMARK  6 active torsions:
REMARK  status: ('A' for Active; 'I' for Inactive)
REMARK    1  A    between atoms: C_2  and  O_3 
REMARK    2  A    between atoms: O_3  and  C_4 
REMARK    3  A    between atoms: C_13  and  C_14 
REMARK    4  A    between atoms: C_14  and  N_15 
REMARK    5  A    between atoms: N_15  and  C_16 
REMARK    6  A    between atoms: C_19  and  O_20 
ROOT
HETATM    1  C   UNL     1     -40.092  52.661 -52.082  1.00  0.00     0.070 A 
HETATM    2  C   UNL     1     -40.845  53.831 -51.947  1.00  0.00     0.067 A 
HETATM    3  C   UNL     1     -41.348  54.471 -53.079  1.00  0.00     0.048 A 
HETATM    4  C   UNL     1     -41.110  53.954 -54.355  1.00  0.00    -0.009 A 
HETATM    5  C   UNL     1     -40.368  52.779 -54.489  1.00  0.00     0.016 A 
HETATM    6  C   UNL     1     -39.861  52.134 -53.355  1.00  0.00     0.038 A 
HETATM    7  N   UNL     1     -42.095  55.647 -52.948  1.00  0.00    -0.322 N 
HETATM    8  C   UNL     1     -42.621  56.336 -54.008  1.00  0.00     0.253 A 
HETATM    9  O   UNL     1     -43.287  57.354 -53.837  1.00  0.00    -0.268 OA
HETATM   10  C   UNL     1     -42.352  55.795 -55.372  1.00  0.00     0.024 A 
HETATM   11  C   UNL     1     -41.634  54.667 -55.519  1.00  0.00     0.027 A 
HETATM   12  H   UNL     1     -42.286  56.030 -52.031  1.00  0.00     0.169 HD
ENDROOT
BRANCH  10  13
HETATM   13  C   UNL     1     -42.859  56.601 -56.534  1.00  0.00     0.136 C 
BRANCH  13  14
HETATM   14  N   UNL     1     -42.621  55.852 -57.764  1.00  0.00    -0.289 NA
HETATM   15  H   UNL     1     -42.307  54.904 -57.556  1.00  0.00     0.128 HD
BRANCH  14  16
HETATM   16  C   UNL     1     -43.609  55.830 -58.758  1.00  0.00     0.008 A 
HETATM   17  C   UNL     1     -44.004  54.679 -59.445  1.00  0.00     0.026 A 
HETATM   18  C   UNL     1     -45.062  54.712 -60.362  1.00  0.00     0.038 A 
HETATM   19  C   UNL     1     -45.776  55.887 -60.590  1.00  0.00     0.068 A 
HETATM   20  C   UNL     1     -45.420  57.034 -59.889  1.00  0.00     0.038 A 
HETATM   21  C   UNL     1     -44.358  56.996 -58.974  1.00  0.00     0.026 A 
BRANCH  19  22
HETATM   22  O   UNL     1     -46.788  55.777 -61.502  1.00  0.00    -0.356 OA
HETATM   23  C   UNL     1     -47.818  56.754 -61.437  1.00  0.00     0.210 C 
ENDBRANCH  19  22
ENDBRANCH  14  16
ENDBRANCH  13  14
ENDBRANCH  10  13
BRANCH   1  24
HETATM   24  O   UNL     1     -39.643  52.134 -50.902  1.00  0.00    -0.351 OA
BRANCH  24  25
HETATM   25  C   UNL     1     -40.370  51.029 -50.365  1.00  0.00     0.171 C 
HETATM   26  C   UNL     1     -39.608  49.759 -50.699  1.00  0.00     0.034 C 
ENDBRANCH  24  25
ENDBRANCH   1  24
TORSDOF 6
ENDMDL
MODEL 2
REMARK VINA RESULT:      -7.2      2.108      2.531
REMARK  6 active torsions:
REMARK  status: ('A' for Active; 'I' for Inactive)
REMARK    1  A    between atoms: C_2  and  O_3 
REMARK    2  A    between atoms: O_3  and  C_4 
REMARK    3  A    between atoms: C_13  and  C_14 
REMARK    4  A    between atoms: C_14  and  N_15 
REMARK    5  A    between atoms: N_15  and  C_16 
REMARK    6  A    between atoms: C_19  and  O_20 
ROOT
HETATM    1  C   UNL     1     -39.915  52.223 -52.289  1.00  0.00     0.070 A 
HETATM    2  C   UNL     1     -40.666  53.319 -51.855  1.00  0.00     0.067 A 
HETATM    3  C   UNL     1     -41.384  54.081 -52.775  1.00  0.00     0.048 A 
HETATM    4  C   UNL     1     -41.366  53.760 -54.135  1.00  0.00    -0.009 A 
HETATM    5  C   UNL     1     -40.625  52.658 -54.568  1.00  0.00     0.016 A 
HETATM    6  C   UNL     1     -39.902  51.892 -53.647  1.00  0.00     0.038 A 
HETATM    7  N   UNL     1     -42.130  55.184 -52.344  1.00  0.00    -0.322 N 
HETATM    8  C   UNL     1     -42.860  55.984 -53.184  1.00  0.00     0.253 A 
HETATM    9  O   UNL     1     -43.514  56.929 -52.752  1.00  0.00    -0.268 OA
HETATM   10  C   UNL     1     -42.826  55.653 -54.639  1.00  0.00     0.024 A 
HETATM   11  C   UNL     1     -42.113  54.598 -55.072  1.00  0.00     0.027 A 
HETATM   12  H   UNL     1     -42.163  55.424 -51.362  1.00  0.00     0.169 HD
ENDROOT
BRANCH  10  13
HETATM   13  C   UNL     1     -43.558  56.583 -55.563  1.00  0.00     0.136 C 
BRANCH  13  14
HETATM   14  N   UNL     1     -43.581  55.995 -56.898  1.00  0.00    -0.289 NA
HETATM   15  H   UNL     1     -44.520  55.683 -57.141  1.00  0.00     0.128 HD
BRANCH  14  16
HETATM   16  C   UNL     1     -43.010  56.697 -57.969  1.00  0.00     0.008 A 
HETATM   17  C   UNL     1     -43.005  56.242 -59.290  1.00  0.00     0.026 A 
HETATM   18  C   UNL     1     -42.498  57.036 -60.326  1.00  0.00     0.038 A 
HETATM   19  C   UNL     1     -42.014  58.319 -60.074  1.00  0.00     0.068 A 
HETATM   20  C   UNL     1     -42.044  58.802 -58.770  1.00  0.00     0.038 A 
HETATM   21  C   UNL     1     -42.550  58.002 -57.737  1.00  0.00     0.026 A 
BRANCH  19  22
HETATM   22  O   UNL     1     -41.558  58.988 -61.175  1.00  0.00    -0.356 OA
HETATM   23  C   UNL     1     -41.986  60.334 -61.331  1.00  0.00     0.210 C 
ENDBRANCH  19  22
ENDBRANCH  14  16
ENDBRANCH  13  14
ENDBRANCH  10  13
BRANCH   1  24
HETATM   24  O   UNL     1     -39.244  51.563 -51.297  1.00  0.00    -0.351 OA
BRANCH  24  25
HETATM   25  C   UNL     1     -39.977  50.590 -50.552  1.00  0.00     0.171 C 
HETATM   26  C   UNL     1     -39.831  49.253 -51.258  1.00  0.00     0.034 C 
ENDBRANCH  24  25
ENDBRANCH   1  24
TORSDOF 6
ENDMDL
MODEL 3
REMARK VINA RESULT:      -7.1     14.448     16.611
REMARK  6 active torsions:
REMARK  status: ('A' for Active; 'I' for Inactive)
REMARK    1  A    between atoms: C_2  and  O_3 
REMARK    2  A    between atoms: O_3  and  C_4 
REMARK    3  A    between atoms: C_13  and  C_14 
REMARK    4  A    between atoms: C_14  and  N_15 
REMARK    5  A    between atoms: N_15  and  C_16 
REMARK    6  A    between atoms: C_19  and  O_20 
ROOT
HETATM    1  C   UNL     1     -32.566  38.742 -49.099  1.00  0.00     0.070 A 
HETATM    2  C   UNL     1     -33.853  38.303 -49.419  1.00  0.00     0.067 A 
HETATM    3  C   UNL     1     -34.683  39.093 -50.212  1.00  0.00     0.048 A 
HETATM    4  C   UNL     1     -34.241  40.326 -50.699  1.00  0.00    -0.009 A 
HETATM    5  C   UNL     1     -32.950  40.760 -50.389  1.00  0.00     0.016 A 
HETATM    6  C   UNL     1     -32.115  39.969 -49.592  1.00  0.00     0.038 A 
HETATM    7  N   UNL     1     -35.976  38.660 -50.527  1.00  0.00    -0.322 N 
HETATM    8  C   UNL     1     -36.853  39.378 -51.297  1.00  0.00     0.253 A 
HETATM    9  O   UNL     1     -37.970  38.943 -51.560  1.00  0.00    -0.268 OA
HETATM   10  C   UNL     1     -36.388  40.703 -51.801  1.00  0.00     0.024 A 
HETATM   11  C   UNL     1     -35.149  41.137 -51.508  1.00  0.00     0.027 A 
HETATM   12  H   UNL     1     -36.309  37.765 -50.192  1.00  0.00     0.169 HD
ENDROOT
BRANCH  10  13
HETATM   13  C   UNL     1     -37.382  41.522 -52.573  1.00  0.00     0.136 C 
BRANCH  13  14
HETATM   14  N   UNL     1     -36.660  42.373 -53.512  1.00  0.00    -0.289 NA
HETATM   15  H   UNL     1     -35.718  42.568 -53.174  1.00  0.00     0.128 HD
BRANCH  14  16
HETATM   16  C   UNL     1     -36.628  42.028 -54.871  1.00  0.00     0.008 A 
HETATM   17  C   UNL     1     -37.697  41.444 -55.555  1.00  0.00     0.026 A 
HETATM   18  C   UNL     1     -37.631  41.209 -56.934  1.00  0.00     0.038 A 
HETATM   19  C   UNL     1     -36.507  41.583 -57.671  1.00  0.00     0.068 A 
HETATM   20  C   UNL     1     -35.448  42.198 -57.012  1.00  0.00     0.038 A 
HETATM   21  C   UNL     1     -35.520  42.428 -55.631  1.00  0.00     0.026 A 
BRANCH  19  22
HETATM   22  O   UNL     1     -36.577  41.304 -59.007  1.00  0.00    -0.356 OA
HETATM   23  C   UNL     1     -37.292  42.227 -59.818  1.00  0.00     0.210 C 
ENDBRANCH  19  22
ENDBRANCH  14  16
ENDBRANCH  13  14
ENDBRANCH  10  13
BRANCH   1  24
HETATM   24  O   UNL     1     -31.853  37.886 -48.304  1.00  0.00    -0.351 OA
BRANCH  24  25
HETATM   25  C   UNL     1     -31.960  38.068 -46.892  1.00  0.00     0.171 C 
HETATM   26  C   UNL     1     -30.925  39.096 -46.472  1.00  0.00     0.034 C 
ENDBRANCH  24  25
ENDBRANCH   1  24
TORSDOF 6
ENDMDL
MODEL 4
REMARK VINA RESULT:      -7.1      5.009      8.505
REMARK  6 active torsions:
REMARK  status: ('A' for Active; 'I' for Inactive)
REMARK    1  A    between atoms: C_2  and  O_3 
REMARK    2  A    between atoms: O_3  and  C_4 
REMARK    3  A    between atoms: C_13  and  C_14 
REMARK    4  A    between atoms: C_14  and  N_15 
REMARK    5  A    between atoms: N_15  and  C_16 
REMARK    6  A    between atoms: C_19  and  O_20 
ROOT
HETATM    1  C   UNL     1     -44.847  60.351 -50.188  1.00  0.00     0.070 A 
HETATM    2  C   UNL     1     -43.541  60.564 -50.636  1.00  0.00     0.067 A 
HETATM    3  C   UNL     1     -42.919  59.617 -51.449  1.00  0.00     0.048 A 
HETATM    4  C   UNL     1     -43.591  58.452 -51.829  1.00  0.00    -0.009 A 
HETATM    5  C   UNL     1     -44.901  58.244 -51.390  1.00  0.00     0.016 A 
HETATM    6  C   UNL     1     -45.526  59.192 -50.573  1.00  0.00     0.038 A 
HETATM    7  N   UNL     1     -41.608  59.824 -51.893  1.00  0.00    -0.322 N 
HETATM    8  C   UNL     1     -40.927  58.943 -52.692  1.00  0.00     0.253 A 
HETATM    9  O   UNL     1     -39.784  59.182 -53.069  1.00  0.00    -0.268 OA
HETATM   10  C   UNL     1     -41.637  57.690 -53.081  1.00  0.00     0.024 A 
HETATM   11  C   UNL     1     -42.897  57.473 -52.663  1.00  0.00     0.027 A 
HETATM   12  H   UNL     1     -41.111  60.667 -51.637  1.00  0.00     0.169 HD
ENDROOT
BRANCH  10  13
HETATM   13  C   UNL     1     -40.856  56.690 -53.885  1.00  0.00     0.136 C 
BRANCH  13  14
HETATM   14  N   UNL     1     -41.577  55.422 -53.885  1.00  0.00    -0.289 NA
HETATM   15  H   UNL     1     -41.967  55.226 -54.807  1.00  0.00     0.128 HD
BRANCH  14  16
HETATM   16  C   UNL     1     -40.957  54.278 -53.365  1.00  0.00     0.008 A 
HETATM   17  C   UNL     1     -40.857  53.992 -52.001  1.00  0.00     0.026 A 
HETATM   18  C   UNL     1     -40.305  52.785 -51.554  1.00  0.00     0.038 A 
HETATM   19  C   UNL     1     -39.870  51.818 -52.459  1.00  0.00     0.068 A 
HETATM   20  C   UNL     1     -39.994  52.070 -53.821  1.00  0.00     0.038 A 
HETATM   21  C   UNL     1     -40.544  53.281 -54.262  1.00  0.00     0.026 A 
BRANCH  19  22
HETATM   22  O   UNL     1     -39.361  50.684 -51.888  1.00  0.00    -0.356 OA
HETATM   23  C   UNL     1     -39.566  49.466 -52.591  1.00  0.00     0.210 C 
ENDBRANCH  19  22
ENDBRANCH  14  16
ENDBRANCH  13  14
ENDBRANCH  10  13
BRANCH   1  24
HETATM   24  O   UNL     1     -45.343  61.342 -49.386  1.00  0.00    -0.351 OA
BRANCH  24  25
HETATM   25  C   UNL     1     -44.757  61.488 -48.093  1.00  0.00     0.171 C 
HETATM   26  C   UNL     1     -45.869  61.409 -47.062  1.00  0.00     0.034 C 
ENDBRANCH  24  25
ENDBRANCH   1  24
TORSDOF 6
ENDMDL
MODEL 5
REMARK VINA RESULT:      -7.0      3.047      3.857
REMARK  6 active torsions:
REMARK  status: ('A' for Active; 'I' for Inactive)
REMARK    1  A    between atoms: C_2  and  O_3 
REMARK    2  A    between atoms: O_3  and  C_4 
REMARK    3  A    between atoms: C_13  and  C_14 
REMARK    4  A    between atoms: C_14  and  N_15 
REMARK    5  A    between atoms: N_15  and  C_16 
REMARK    6  A    between atoms: C_19  and  O_20 
ROOT
HETATM    1  C   UNL     1     -40.126  52.338 -52.773  1.00  0.00     0.070 A 
HETATM    2  C   UNL     1     -40.741  53.364 -52.049  1.00  0.00     0.067 A 
HETATM    3  C   UNL     1     -41.697  54.173 -52.662  1.00  0.00     0.048 A 
HETATM    4  C   UNL     1     -42.053  53.969 -53.998  1.00  0.00    -0.009 A 
HETATM    5  C   UNL     1     -41.447  52.937 -54.717  1.00  0.00     0.016 A 
HETATM    6  C   UNL     1     -40.487  52.124 -54.105  1.00  0.00     0.038 A 
HETATM    7  N   UNL     1     -42.308  55.206 -51.942  1.00  0.00    -0.322 N 
HETATM    8  C   UNL     1     -43.253  56.045 -52.471  1.00  0.00     0.253 A 
HETATM    9  O   UNL     1     -43.773  56.925 -51.790  1.00  0.00    -0.268 OA
HETATM   10  C   UNL     1     -43.620  55.841 -53.903  1.00  0.00     0.024 A 
HETATM   11  C   UNL     1     -43.042  54.854 -54.611  1.00  0.00     0.027 A 
HETATM   12  H   UNL     1     -42.070  55.361 -50.971  1.00  0.00     0.169 HD
ENDROOT
BRANCH  10  13
HETATM   13  C   UNL     1     -44.593  56.817 -54.500  1.00  0.00     0.136 C 
BRANCH  13  14
HETATM   14  N   UNL     1     -44.328  56.928 -55.930  1.00  0.00    -0.289 NA
HETATM   15  H   UNL     1     -45.195  56.876 -56.465  1.00  0.00     0.128 HD
BRANCH  14  16
HETATM   16  C   UNL     1     -43.527  57.977 -56.402  1.00  0.00     0.008 A 
HETATM   17  C   UNL     1     -43.192  59.106 -55.649  1.00  0.00     0.026 A 
HETATM   18  C   UNL     1     -42.312  60.073 -56.150  1.00  0.00     0.038 A 
HETATM   19  C   UNL     1     -41.718  59.921 -57.402  1.00  0.00     0.068 A 
HETATM   20  C   UNL     1     -42.012  58.786 -58.150  1.00  0.00     0.038 A 
HETATM   21  C   UNL     1     -42.896  57.823 -57.645  1.00  0.00     0.026 A 
BRANCH  19  22
HETATM   22  O   UNL     1     -40.873  60.933 -57.765  1.00  0.00    -0.356 OA
HETATM   23  C   UNL     1     -41.475  62.143 -58.206  1.00  0.00     0.210 C 
ENDBRANCH  19  22
ENDBRANCH  14  16
ENDBRANCH  13  14
ENDBRANCH  10  13
BRANCH   1  24
HETATM   24  O   UNL     1     -39.197  51.622 -52.068  1.00  0.00    -0.351 OA
BRANCH  24  25
HETATM   25  C   UNL     1     -39.673  50.837 -50.975  1.00  0.00     0.171 C 
HETATM   26  C   UNL     1     -39.739  49.390 -51.431  1.00  0.00     0.034 C 
ENDBRANCH  24  25
ENDBRANCH   1  24
TORSDOF 6
ENDMDL
MODEL 6
REMARK VINA RESULT:      -7.0      1.616      8.647
REMARK  6 active torsions:
REMARK  status: ('A' for Active; 'I' for Inactive)
REMARK    1  A    between atoms: C_2  and  O_3 
REMARK    2  A    between atoms: O_3  and  C_4 
REMARK    3  A    between atoms: C_13  and  C_14 
REMARK    4  A    between atoms: C_14  and  N_15 
REMARK    5  A    between atoms: N_15  and  C_16 
REMARK    6  A    between atoms: C_19  and  O_20 
ROOT
HETATM    1  C   UNL     1     -44.612  57.638 -59.387  1.00  0.00     0.070 A 
HETATM    2  C   UNL     1     -45.084  57.900 -58.098  1.00  0.00     0.067 A 
HETATM    3  C   UNL     1     -44.416  57.378 -56.991  1.00  0.00     0.048 A 
HETATM    4  C   UNL     1     -43.270  56.595 -57.154  1.00  0.00    -0.009 A 
HETATM    5  C   UNL     1     -42.792  56.342 -58.442  1.00  0.00     0.016 A 
HETATM    6  C   UNL     1     -43.462  56.864 -59.555  1.00  0.00     0.038 A 
HETATM    7  N   UNL     1     -44.891  57.632 -55.699  1.00  0.00    -0.322 N 
HETATM    8  C   UNL     1     -44.294  57.155 -54.562  1.00  0.00     0.253 A 
HETATM    9  O   UNL     1     -44.741  57.424 -53.451  1.00  0.00    -0.268 OA
HETATM   10  C   UNL     1     -43.082  56.303 -54.736  1.00  0.00     0.024 A 
HETATM   11  C   UNL     1     -42.611  56.047 -55.970  1.00  0.00     0.027 A 
HETATM   12  H   UNL     1     -45.713  58.207 -55.563  1.00  0.00     0.169 HD
ENDROOT
BRANCH  10  13
HETATM   13  C   UNL     1     -42.483  55.714 -53.491  1.00  0.00     0.136 C 
BRANCH  13  14
HETATM   14  N   UNL     1     -41.086  55.384 -53.754  1.00  0.00    -0.289 NA
HETATM   15  H   UNL     1     -40.466  56.093 -53.364  1.00  0.00     0.128 HD
BRANCH  14  16
HETATM   16  C   UNL     1     -40.612  54.101 -53.447  1.00  0.00     0.008 A 
HETATM   17  C   UNL     1     -40.408  53.633 -52.146  1.00  0.00     0.026 A 
HETATM   18  C   UNL     1     -40.021  52.309 -51.907  1.00  0.00     0.038 A 
HETATM   19  C   UNL     1     -39.860  51.408 -52.959  1.00  0.00     0.068 A 
HETATM   20  C   UNL     1     -40.094  51.847 -54.258  1.00  0.00     0.038 A 
HETATM   21  C   UNL     1     -40.479  53.175 -54.491  1.00  0.00     0.026 A 
BRANCH  19  22
HETATM   22  O   UNL     1     -39.488  50.147 -52.585  1.00  0.00    -0.356 OA
HETATM   23  C   UNL     1     -39.550  49.845 -51.198  1.00  0.00     0.210 C 
ENDBRANCH  19  22
ENDBRANCH  14  16
ENDBRANCH  13  14
ENDBRANCH  10  13
BRANCH   1  24
HETATM   24  O   UNL     1     -45.359  58.192 -60.391  1.00  0.00    -0.351 OA
BRANCH  24  25
HETATM   25  C   UNL     1     -46.775  58.033 -60.312  1.00  0.00     0.171 C 
HETATM   26  C   UNL     1     -47.136  56.708 -60.962  1.00  0.00     0.034 C 
ENDBRANCH  24  25
ENDBRANCH   1  24
TORSDOF 6
ENDMDL
MODEL 7
REMARK VINA RESULT:      -6.9      4.427      6.365
REMARK  6 active torsions:
REMARK  status: ('A' for Active; 'I' for Inactive)
REMARK    1  A    between atoms: C_2  and  O_3 
REMARK    2  A    between atoms: O_3  and  C_4 
REMARK    3  A    between atoms: C_13  and  C_14 
REMARK    4  A    between atoms: C_14  and  N_15 
REMARK    5  A    between atoms: N_15  and  C_16 
REMARK    6  A    between atoms: C_19  and  O_20 
ROOT
HETATM    1  C   UNL     1     -39.896  52.352 -52.576  1.00  0.00     0.070 A 
HETATM    2  C   UNL     1     -40.714  53.066 -51.695  1.00  0.00     0.067 A 
HETATM    3  C   UNL     1     -41.632  53.991 -52.190  1.00  0.00     0.048 A 
HETATM    4  C   UNL     1     -41.750  54.212 -53.565  1.00  0.00    -0.009 A 
HETATM    5  C   UNL     1     -40.942  53.490 -54.446  1.00  0.00     0.016 A 
HETATM    6  C   UNL     1     -40.018  52.562 -53.951  1.00  0.00     0.038 A 
HETATM    7  N   UNL     1     -42.446  54.714 -51.311  1.00  0.00    -0.322 N 
HETATM    8  C   UNL     1     -43.370  55.640 -51.716  1.00  0.00     0.253 A 
HETATM    9  O   UNL     1     -44.073  56.234 -50.904  1.00  0.00    -0.268 OA
HETATM   10  C   UNL     1     -43.483  55.891 -53.183  1.00  0.00     0.024 A 
HETATM   11  C   UNL     1     -42.708  55.207 -54.044  1.00  0.00     0.027 A 
HETATM   12  H   UNL     1     -42.382  54.558 -50.313  1.00  0.00     0.169 HD
ENDROOT
BRANCH  10  13
HETATM   13  C   UNL     1     -44.436  56.968 -53.615  1.00  0.00     0.136 C 
BRANCH  13  14
HETATM   14  N   UNL     1     -43.669  58.148 -53.998  1.00  0.00    -0.289 NA
HETATM   15  H   UNL     1     -44.285  58.887 -54.336  1.00  0.00     0.128 HD
BRANCH  14  16
HETATM   16  C   UNL     1     -42.723  58.673 -53.106  1.00  0.00     0.008 A 
HETATM   17  C   UNL     1     -43.047  59.292 -51.896  1.00  0.00     0.026 A 
HETATM   18  C   UNL     1     -42.048  59.712 -51.009  1.00  0.00     0.038 A 
HETATM   19  C   UNL     1     -40.700  59.493 -51.293  1.00  0.00     0.068 A 
HETATM   20  C   UNL     1     -40.361  58.846 -52.476  1.00  0.00     0.038 A 
HETATM   21  C   UNL     1     -41.366  58.431 -53.361  1.00  0.00     0.026 A 
BRANCH  19  22
HETATM   22  O   UNL     1     -39.831  59.944 -50.339  1.00  0.00    -0.356 OA
HETATM   23  C   UNL     1     -38.471  59.556 -50.476  1.00  0.00     0.210 C 
ENDBRANCH  19  22
ENDBRANCH  14  16
ENDBRANCH  13  14
ENDBRANCH  10  13
BRANCH   1  24
HETATM   24  O   UNL     1     -39.028  51.485 -51.970  1.00  0.00    -0.351 OA
BRANCH  24  25
HETATM   25  C   UNL     1     -39.592  50.343 -51.327  1.00  0.00     0.171 C 
HETATM   26  C   UNL     1     -39.653  49.215 -52.342  1.00  0.00     0.034 C 
ENDBRANCH  24  25
ENDBRANCH   1  24
TORSDOF 6
ENDMDL
MODEL 8
REMARK VINA RESULT:      -6.9      3.202      6.049
REMARK  6 active torsions:
REMARK  status: ('A' for Active; 'I' for Inactive)
REMARK    1  A    between atoms: C_2  and  O_3 
REMARK    2  A    between atoms: O_3  and  C_4 
REMARK    3  A    between atoms: C_13  and  C_14 
REMARK    4  A    between atoms: C_14  and  N_15 
REMARK    5  A    between atoms: N_15  and  C_16 
REMARK    6  A    between atoms: C_19  and  O_20 
ROOT
HETATM    1  C   UNL     1     -40.330  52.692 -53.551  1.00  0.00     0.070 A 
HETATM    2  C   UNL     1     -40.490  53.386 -54.754  1.00  0.00     0.067 A 
HETATM    3  C   UNL     1     -41.475  54.365 -54.870  1.00  0.00     0.048 A 
HETATM    4  C   UNL     1     -42.309  54.669 -53.790  1.00  0.00    -0.009 A 
HETATM    5  C   UNL     1     -42.142  53.985 -52.584  1.00  0.00     0.016 A 
HETATM    6  C   UNL     1     -41.155  53.000 -52.466  1.00  0.00     0.038 A 
HETATM    7  N   UNL     1     -41.642  55.055 -56.076  1.00  0.00    -0.322 N 
HETATM    8  C   UNL     1     -42.586  56.028 -56.272  1.00  0.00     0.253 A 
HETATM    9  O   UNL     1     -42.678  56.616 -57.345  1.00  0.00    -0.268 OA
HETATM   10  C   UNL     1     -43.490  56.339 -55.126  1.00  0.00     0.024 A 
HETATM   11  C   UNL     1     -43.345  55.686 -53.959  1.00  0.00     0.027 A 
HETATM   12  H   UNL     1     -41.040  54.855 -56.865  1.00  0.00     0.169 HD
ENDROOT
BRANCH  10  13
HETATM   13  C   UNL     1     -44.576  57.346 -55.373  1.00  0.00     0.136 C 
BRANCH  13  14
HETATM   14  N   UNL     1     -43.988  58.681 -55.372  1.00  0.00    -0.289 NA
HETATM   15  H   UNL     1     -44.629  59.360 -55.781  1.00  0.00     0.128 HD
BRANCH  14  16
HETATM   16  C   UNL     1     -43.433  59.188 -54.189  1.00  0.00     0.008 A 
HETATM   17  C   UNL     1     -44.163  59.431 -53.023  1.00  0.00     0.026 A 
HETATM   18  C   UNL     1     -43.529  59.851 -51.847  1.00  0.00     0.038 A 
HETATM   19  C   UNL     1     -42.144  60.006 -51.796  1.00  0.00     0.068 A 
HETATM   20  C   UNL     1     -41.397  59.734 -52.938  1.00  0.00     0.038 A 
HETATM   21  C   UNL     1     -42.038  59.316 -54.112  1.00  0.00     0.026 A 
BRANCH  19  22
HETATM   22  O   UNL     1     -41.655  60.412 -50.586  1.00  0.00    -0.356 OA
HETATM   23  C   UNL     1     -40.786  59.512 -49.912  1.00  0.00     0.210 C 
ENDBRANCH  19  22
ENDBRANCH  14  16
ENDBRANCH  13  14
ENDBRANCH  10  13
BRANCH   1  24
HETATM   24  O   UNL     1     -39.341  51.747 -53.564  1.00  0.00    -0.351 OA
BRANCH  24  25
HETATM   25  C   UNL     1     -39.703  50.433 -53.986  1.00  0.00     0.171 C 
HETATM   26  C   UNL     1     -39.633  49.516 -52.778  1.00  0.00     0.034 C 
ENDBRANCH  24  25
ENDBRANCH   1  24
TORSDOF 6
ENDMDL
MODEL 9
REMARK VINA RESULT:      -6.8      2.612      3.776
REMARK  6 active torsions:
REMARK  status: ('A' for Active; 'I' for Inactive)
REMARK    1  A    between atoms: C_2  and  O_3 
REMARK    2  A    between atoms: O_3  and  C_4 
REMARK    3  A    between atoms: C_13  and  C_14 
REMARK    4  A    between atoms: C_14  and  N_15 
REMARK    5  A    between atoms: N_15  and  C_16 
REMARK    6  A    between atoms: C_19  and  O_20 
ROOT
HETATM    1  C   UNL     1     -40.494  52.921 -53.439  1.00  0.00     0.070 A 
HETATM    2  C   UNL     1     -40.933  53.770 -52.419  1.00  0.00     0.067 A 
HETATM    3  C   UNL     1     -41.086  55.134 -52.665  1.00  0.00     0.048 A 
HETATM    4  C   UNL     1     -40.808  55.667 -53.926  1.00  0.00    -0.009 A 
HETATM    5  C   UNL     1     -40.381  54.817 -54.948  1.00  0.00     0.016 A 
HETATM    6  C   UNL     1     -40.225  53.448 -54.705  1.00  0.00     0.038 A 
HETATM    7  N   UNL     1     -41.518  55.988 -51.643  1.00  0.00    -0.322 N 
HETATM    8  C   UNL     1     -41.692  57.337 -51.802  1.00  0.00     0.253 A 
HETATM    9  O   UNL     1     -42.091  58.039 -50.878  1.00  0.00    -0.268 OA
HETATM   10  C   UNL     1     -41.376  57.910 -53.143  1.00  0.00     0.024 A 
HETATM   11  C   UNL     1     -40.959  57.105 -54.137  1.00  0.00     0.027 A 
HETATM   12  H   UNL     1     -41.735  55.617 -50.727  1.00  0.00     0.169 HD
ENDROOT
BRANCH  10  13
HETATM   13  C   UNL     1     -41.487  59.401 -53.287  1.00  0.00     0.136 C 
BRANCH  13  14
HETATM   14  N   UNL     1     -42.898  59.759 -53.390  1.00  0.00    -0.289 NA
HETATM   15  H   UNL     1     -43.034  60.753 -53.207  1.00  0.00     0.128 HD
BRANCH  14  16
HETATM   16  C   UNL     1     -43.626  59.368 -54.523  1.00  0.00     0.008 A 
HETATM   17  C   UNL     1     -43.248  59.660 -55.836  1.00  0.00     0.026 A 
HETATM   18  C   UNL     1     -43.972  59.159 -56.925  1.00  0.00     0.038 A 
HETATM   19  C   UNL     1     -45.074  58.327 -56.730  1.00  0.00     0.068 A 
HETATM   20  C   UNL     1     -45.443  57.997 -55.430  1.00  0.00     0.038 A 
HETATM   21  C   UNL     1     -44.715  58.503 -54.345  1.00  0.00     0.026 A 
BRANCH  19  22
HETATM   22  O   UNL     1     -45.684  57.903 -57.878  1.00  0.00    -0.356 OA
HETATM   23  C   UNL     1     -44.835  57.485 -58.938  1.00  0.00     0.210 C 
ENDBRANCH  19  22
ENDBRANCH  14  16
ENDBRANCH  13  14
ENDBRANCH  10  13
BRANCH   1  24
HETATM   24  O   UNL     1     -40.370  51.609 -53.073  1.00  0.00    -0.351 OA
BRANCH  24  25
HETATM   25  C   UNL     1     -39.293  50.871 -53.651  1.00  0.00     0.171 C 
HETATM   26  C   UNL     1     -39.884  49.835 -54.590  1.00  0.00     0.034 C 
ENDBRANCH  24  25
ENDBRANCH   1  24
TORSDOF 6
ENDMDL
MODEL 10
REMARK VINA RESULT:      -6.7      4.638      7.655
REMARK  6 active torsions:
REMARK  status: ('A' for Active; 'I' for Inactive)
REMARK    1  A    between atoms: C_2  and  O_3 
REMARK    2  A    between atoms: O_3  and  C_4 
REMARK    3  A    between atoms: C_13  and  C_14 
REMARK    4  A    between atoms: C_14  and  N_15 
REMARK    5  A    between atoms: N_15  and  C_16 
REMARK    6  A    between atoms: C_19  and  O_20 
ROOT
HETATM    1  C   UNL     1     -40.196  52.514 -51.936  1.00  0.00     0.070 A 
HETATM    2  C   UNL     1     -40.972  53.205 -52.872  1.00  0.00     0.067 A 
HETATM    3  C   UNL     1     -41.809  54.240 -52.456  1.00  0.00     0.048 A 
HETATM    4  C   UNL     1     -41.880  54.601 -51.108  1.00  0.00    -0.009 A 
HETATM    5  C   UNL     1     -41.097  53.919 -50.175  1.00  0.00     0.016 A 
HETATM    6  C   UNL     1     -40.257  52.879 -50.589  1.00  0.00     0.038 A 
HETATM    7  N   UNL     1     -42.592  54.928 -53.390  1.00  0.00    -0.322 N 
HETATM    8  C   UNL     1     -43.440  55.953 -53.063  1.00  0.00     0.253 A 
HETATM    9  O   UNL     1     -44.092  56.537 -53.924  1.00  0.00    -0.268 OA
HETATM   10  C   UNL     1     -43.532  56.326 -51.621  1.00  0.00     0.024 A 
HETATM   11  C   UNL     1     -42.787  55.676 -50.709  1.00  0.00     0.027 A 
HETATM   12  H   UNL     1     -42.545  54.686 -54.371  1.00  0.00     0.169 HD
ENDROOT
BRANCH  10  13
HETATM   13  C   UNL     1     -44.525  57.393 -51.259  1.00  0.00     0.136 C 
BRANCH  13  14
HETATM   14  N   UNL     1     -44.016  58.682 -51.715  1.00  0.00    -0.289 NA
HETATM   15  H   UNL     1     -44.363  58.900 -52.648  1.00  0.00     0.128 HD
BRANCH  14  16
HETATM   16  C   UNL     1     -44.132  59.802 -50.880  1.00  0.00     0.008 A 
HETATM   17  C   UNL     1     -43.251  60.887 -50.898  1.00  0.00     0.026 A 
HETATM   18  C   UNL     1     -43.478  62.016 -50.101  1.00  0.00     0.038 A 
HETATM   19  C   UNL     1     -44.609  62.105 -49.290  1.00  0.00     0.068 A 
HETATM   20  C   UNL     1     -45.515  61.049 -49.286  1.00  0.00     0.038 A 
HETATM   21  C   UNL     1     -45.281  59.921 -50.084  1.00  0.00     0.026 A 
BRANCH  19  22
HETATM   22  O   UNL     1     -44.712  63.263 -48.572  1.00  0.00    -0.356 OA
HETATM   23  C   UNL     1     -45.189  63.149 -47.237  1.00  0.00     0.210 C 
ENDBRANCH  19  22
ENDBRANCH  14  16
ENDBRANCH  13  14
ENDBRANCH  10  13
BRANCH   1  24
HETATM   24  O   UNL     1     -39.427  51.513 -52.462  1.00  0.00    -0.351 OA
BRANCH  24  25
HETATM   25  C   UNL     1     -39.498  51.311 -53.873  1.00  0.00     0.171 C 
HETATM   26  C   UNL     1     -39.824  49.849 -54.122  1.00  0.00     0.034 C 
ENDBRANCH  24  25
ENDBRANCH   1  24
TORSDOF 6
ENDMDL
