MODEL 1
REMARK VINA RESULT:      -8.8      0.000      0.000
REMARK  6 active torsions:
REMARK  status: ('A' for Active; 'I' for Inactive)
REMARK    1  A    between atoms: C_2  and  N_3 
REMARK    2  A    between atoms: C_2  and  C_16 
REMARK    3  A    between atoms: N_3  and  C_5 
REMARK    4  A    between atoms: C_5  and  C_6 
REMARK       I    between atoms: C_16  and  N_17 
REMARK    5  A    between atoms: N_17  and  C_18 
REMARK    6  A    between atoms: C_19  and  C_20 
ROOT
HETATM    1  C   UNL     1     -41.005  54.328 -54.920  1.00  0.00     0.253 C 
HETATM    2  N   UNL     1     -41.483  53.247 -54.210  1.00  0.00    -0.325 N 
HETATM    3  O   UNL     1     -39.827  54.644 -55.076  1.00  0.00    -0.271 OA
HETATM    4  H   UNL     1     -42.477  53.211 -54.002  1.00  0.00     0.169 HD
ENDROOT
BRANCH   1   5
HETATM    5  C   UNL     1     -42.106  55.198 -55.567  1.00  0.00     0.275 C 
HETATM    6  C   UNL     1     -43.189  54.271 -56.123  1.00  0.00     0.050 C 
BRANCH   5   7
HETATM    7  N   UNL     1     -42.721  56.187 -54.540  1.00  0.00    -0.059 N 
HETATM    8  H   UNL     1     -42.384  55.841 -53.629  1.00  0.00     0.280 HD
HETATM    9  C   UNL     1     -44.218  56.194 -54.503  1.00  0.00     0.271 C 
BRANCH   7  10
HETATM   10  C   UNL     1     -42.138  57.598 -54.607  1.00  0.00     0.274 C 
BRANCH  10  11
HETATM   11  C   UNL     1     -41.653  58.171 -53.302  1.00  0.00    -0.030 A 
HETATM   12  C   UNL     1     -40.298  58.497 -53.120  1.00  0.00     0.048 A 
HETATM   13  C   UNL     1     -39.911  59.021 -51.904  1.00  0.00     0.105 A 
HETATM   14  C   UNL     1     -40.805  59.228 -50.883  1.00  0.00     0.105 A 
HETATM   15  O   UNL     1     -38.646  59.389 -51.570  1.00  0.00    -0.323 OA
HETATM   16  O   UNL     1     -40.216  59.753 -49.778  1.00  0.00    -0.323 OA
HETATM   17  C   UNL     1     -42.141  58.928 -51.021  1.00  0.00     0.040 A 
HETATM   18  C   UNL     1     -38.852  59.894 -50.231  1.00  0.00     0.352 A 
HETATM   19  C   UNL     1     -42.567  58.398 -52.243  1.00  0.00     0.012 A 
ENDBRANCH  10  11
ENDBRANCH   7  10
ENDBRANCH   5   7
ENDBRANCH   1   5
BRANCH   2  20
HETATM   20  C   UNL     1     -40.732  52.189 -53.634  1.00  0.00     0.045 A 
HETATM   21  C   UNL     1     -40.447  52.244 -52.246  1.00  0.00     0.001 A 
HETATM   22  C   UNL     1     -39.738  51.186 -51.650  1.00  0.00     0.014 A 
HETATM   23  C   UNL     1     -39.316  50.093 -52.404  1.00  0.00     0.001 A 
HETATM   24  C   UNL     1     -39.593  50.046 -53.765  1.00  0.00     0.002 A 
HETATM   25  C   UNL     1     -40.296  51.087 -54.378  1.00  0.00     0.030 A 
BRANCH  21  26
HETATM   26  C   UNL     1     -40.828  53.393 -51.411  1.00  0.00    -0.024 A 
HETATM   27  C   UNL     1     -39.885  54.041 -50.597  1.00  0.00     0.012 A 
HETATM   28  C   UNL     1     -40.266  55.109 -49.784  1.00  0.00     0.001 A 
HETATM   29  C   UNL     1     -41.590  55.548 -49.778  1.00  0.00     0.000 A 
HETATM   30  C   UNL     1     -42.534  54.920 -50.587  1.00  0.00     0.001 A 
HETATM   31  C   UNL     1     -42.156  53.849 -51.399  1.00  0.00     0.012 A 
ENDBRANCH  21  26
ENDBRANCH   2  20
TORSDOF 6
ENDMDL
MODEL 2
REMARK VINA RESULT:      -8.6      2.283      4.438
REMARK  6 active torsions:
REMARK  status: ('A' for Active; 'I' for Inactive)
REMARK    1  A    between atoms: C_2  and  N_3 
REMARK    2  A    between atoms: C_2  and  C_16 
REMARK    3  A    between atoms: N_3  and  C_5 
REMARK    4  A    between atoms: C_5  and  C_6 
REMARK       I    between atoms: C_16  and  N_17 
REMARK    5  A    between atoms: N_17  and  C_18 
REMARK    6  A    between atoms: C_19  and  C_20 
ROOT
HETATM    1  C   UNL     1     -42.101  54.125 -51.101  1.00  0.00     0.253 C 
HETATM    2  N   UNL     1     -40.823  53.757 -51.460  1.00  0.00    -0.325 N 
HETATM    3  O   UNL     1     -43.146  53.555 -51.409  1.00  0.00    -0.271 OA
HETATM    4  H   UNL     1     -40.069  54.418 -51.299  1.00  0.00     0.169 HD
ENDROOT
BRANCH   1   5
HETATM    5  C   UNL     1     -42.171  55.391 -50.217  1.00  0.00     0.275 C 
HETATM    6  C   UNL     1     -41.081  55.293 -49.148  1.00  0.00     0.050 C 
BRANCH   5   7
HETATM    7  N   UNL     1     -41.982  56.680 -51.062  1.00  0.00    -0.059 N 
HETATM    8  H   UNL     1     -41.674  56.332 -51.982  1.00  0.00     0.280 HD
HETATM    9  C   UNL     1     -40.927  57.611 -50.548  1.00  0.00     0.271 C 
BRANCH   7  10
HETATM   10  C   UNL     1     -43.285  57.407 -51.390  1.00  0.00     0.274 C 
BRANCH  10  11
HETATM   11  C   UNL     1     -43.392  57.968 -52.783  1.00  0.00    -0.030 A 
HETATM   12  C   UNL     1     -42.329  58.691 -53.350  1.00  0.00     0.048 A 
HETATM   13  C   UNL     1     -42.483  59.180 -54.631  1.00  0.00     0.105 A 
HETATM   14  C   UNL     1     -43.632  58.980 -55.353  1.00  0.00     0.105 A 
HETATM   15  O   UNL     1     -41.554  59.893 -55.320  1.00  0.00    -0.323 OA
HETATM   16  O   UNL     1     -43.573  59.540 -56.589  1.00  0.00    -0.323 OA
HETATM   17  C   UNL     1     -44.695  58.272 -54.838  1.00  0.00     0.040 A 
HETATM   18  C   UNL     1     -42.235  60.084 -56.582  1.00  0.00     0.352 A 
HETATM   19  C   UNL     1     -44.570  57.760 -53.543  1.00  0.00     0.012 A 
ENDBRANCH  10  11
ENDBRANCH   7  10
ENDBRANCH   5   7
ENDBRANCH   1   5
BRANCH   2  20
HETATM   20  C   UNL     1     -40.419  52.572 -52.131  1.00  0.00     0.045 A 
HETATM   21  C   UNL     1     -40.554  52.519 -53.543  1.00  0.00     0.001 A 
HETATM   22  C   UNL     1     -40.123  51.370 -54.229  1.00  0.00     0.014 A 
HETATM   23  C   UNL     1     -39.571  50.291 -53.542  1.00  0.00     0.001 A 
HETATM   24  C   UNL     1     -39.446  50.345 -52.159  1.00  0.00     0.002 A 
HETATM   25  C   UNL     1     -39.868  51.477 -51.456  1.00  0.00     0.030 A 
BRANCH  21  26
HETATM   26  C   UNL     1     -41.171  53.609 -54.314  1.00  0.00    -0.024 A 
HETATM   27  C   UNL     1     -42.472  53.488 -54.824  1.00  0.00     0.012 A 
HETATM   28  C   UNL     1     -43.035  54.516 -55.583  1.00  0.00     0.001 A 
HETATM   29  C   UNL     1     -42.307  55.678 -55.837  1.00  0.00     0.000 A 
HETATM   30  C   UNL     1     -41.017  55.816 -55.329  1.00  0.00     0.001 A 
HETATM   31  C   UNL     1     -40.452  54.787 -54.572  1.00  0.00     0.012 A 
ENDBRANCH  21  26
ENDBRANCH   2  20
TORSDOF 6
ENDMDL
MODEL 3
REMARK VINA RESULT:      -8.5      2.329      3.074
REMARK  6 active torsions:
REMARK  status: ('A' for Active; 'I' for Inactive)
REMARK    1  A    between atoms: C_2  and  N_3 
REMARK    2  A    between atoms: C_2  and  C_16 
REMARK    3  A    between atoms: N_3  and  C_5 
REMARK    4  A    between atoms: C_5  and  C_6 
REMARK       I    between atoms: C_16  and  N_17 
REMARK    5  A    between atoms: N_17  and  C_18 
REMARK    6  A    between atoms: C_19  and  C_20 
ROOT
HETATM    1  C   UNL     1     -40.783  54.376 -54.818  1.00  0.00     0.253 C 
HETATM    2  N   UNL     1     -41.315  53.360 -54.055  1.00  0.00    -0.325 N 
HETATM    3  O   UNL     1     -39.600  54.538 -55.112  1.00  0.00    -0.271 OA
HETATM    4  H   UNL     1     -42.273  53.451 -53.732  1.00  0.00     0.169 HD
ENDROOT
BRANCH   1   5
HETATM    5  C   UNL     1     -41.828  55.391 -55.335  1.00  0.00     0.275 C 
HETATM    6  C   UNL     1     -43.068  54.619 -55.788  1.00  0.00     0.050 C 
BRANCH   5   7
HETATM    7  N   UNL     1     -42.207  56.421 -54.237  1.00  0.00    -0.059 N 
HETATM    8  H   UNL     1     -42.426  57.279 -54.765  1.00  0.00     0.280 HD
HETATM    9  C   UNL     1     -41.101  56.742 -53.278  1.00  0.00     0.271 C 
BRANCH   7  10
HETATM   10  C   UNL     1     -43.522  56.115 -53.521  1.00  0.00     0.274 C 
BRANCH  10  11
HETATM   11  C   UNL     1     -44.234  57.297 -52.920  1.00  0.00    -0.030 A 
HETATM   12  C   UNL     1     -44.637  58.377 -53.722  1.00  0.00     0.048 A 
HETATM   13  C   UNL     1     -45.287  59.432 -53.116  1.00  0.00     0.105 A 
HETATM   14  C   UNL     1     -45.545  59.451 -51.768  1.00  0.00     0.105 A 
HETATM   15  O   UNL     1     -45.743  60.546 -53.748  1.00  0.00    -0.323 OA
HETATM   16  O   UNL     1     -46.197  60.578 -51.381  1.00  0.00    -0.323 OA
HETATM   17  C   UNL     1     -45.173  58.411 -50.947  1.00  0.00     0.040 A 
HETATM   18  C   UNL     1     -46.359  61.254 -52.646  1.00  0.00     0.352 A 
HETATM   19  C   UNL     1     -44.515  57.324 -51.530  1.00  0.00     0.012 A 
ENDBRANCH  10  11
ENDBRANCH   7  10
ENDBRANCH   5   7
ENDBRANCH   1   5
BRANCH   2  20
HETATM   20  C   UNL     1     -40.648  52.205 -53.567  1.00  0.00     0.045 A 
HETATM   21  C   UNL     1     -40.373  52.123 -52.178  1.00  0.00     0.001 A 
HETATM   22  C   UNL     1     -39.748  50.969 -51.671  1.00  0.00     0.014 A 
HETATM   23  C   UNL     1     -39.400  49.915 -52.512  1.00  0.00     0.001 A 
HETATM   24  C   UNL     1     -39.666  50.003 -53.874  1.00  0.00     0.002 A 
HETATM   25  C   UNL     1     -40.286  51.139 -54.399  1.00  0.00     0.030 A 
BRANCH  21  26
HETATM   26  C   UNL     1     -40.677  53.223 -51.250  1.00  0.00    -0.024 A 
HETATM   27  C   UNL     1     -39.670  53.814 -50.473  1.00  0.00     0.012 A 
HETATM   28  C   UNL     1     -39.977  54.835 -49.572  1.00  0.00     0.001 A 
HETATM   29  C   UNL     1     -41.291  55.282 -49.441  1.00  0.00     0.000 A 
HETATM   30  C   UNL     1     -42.300  54.710 -50.213  1.00  0.00     0.001 A 
HETATM   31  C   UNL     1     -41.996  53.686 -51.112  1.00  0.00     0.012 A 
ENDBRANCH  21  26
ENDBRANCH   2  20
TORSDOF 6
ENDMDL
MODEL 4
REMARK VINA RESULT:      -8.4      3.369      5.910
REMARK  6 active torsions:
REMARK  status: ('A' for Active; 'I' for Inactive)
REMARK    1  A    between atoms: C_2  and  N_3 
REMARK    2  A    between atoms: C_2  and  C_16 
REMARK    3  A    between atoms: N_3  and  C_5 
REMARK    4  A    between atoms: C_5  and  C_6 
REMARK       I    between atoms: C_16  and  N_17 
REMARK    5  A    between atoms: N_17  and  C_18 
REMARK    6  A    between atoms: C_19  and  C_20 
ROOT
HETATM    1  C   UNL     1     -41.143  54.618 -55.079  1.00  0.00     0.253 C 
HETATM    2  N   UNL     1     -41.546  53.486 -54.404  1.00  0.00    -0.325 N 
HETATM    3  O   UNL     1     -40.095  55.240 -54.916  1.00  0.00    -0.271 OA
HETATM    4  H   UNL     1     -42.512  53.187 -54.502  1.00  0.00     0.169 HD
ENDROOT
BRANCH   1   5
HETATM    5  C   UNL     1     -42.149  55.113 -56.142  1.00  0.00     0.275 C 
HETATM    6  C   UNL     1     -43.454  54.333 -55.972  1.00  0.00     0.050 C 
BRANCH   5   7
HETATM    7  N   UNL     1     -42.412  56.637 -56.004  1.00  0.00    -0.059 N 
HETATM    8  H   UNL     1     -41.557  56.998 -55.555  1.00  0.00     0.280 HD
HETATM    9  C   UNL     1     -43.575  56.990 -55.127  1.00  0.00     0.271 C 
BRANCH   7  10
HETATM   10  C   UNL     1     -42.442  57.389 -57.334  1.00  0.00     0.274 C 
BRANCH  10  11
HETATM   11  C   UNL     1     -43.412  56.869 -58.361  1.00  0.00    -0.030 A 
HETATM   12  C   UNL     1     -44.737  57.332 -58.399  1.00  0.00     0.048 A 
HETATM   13  C   UNL     1     -45.580  56.821 -59.363  1.00  0.00     0.105 A 
HETATM   14  C   UNL     1     -45.161  55.884 -60.274  1.00  0.00     0.105 A 
HETATM   15  O   UNL     1     -46.884  57.166 -59.535  1.00  0.00    -0.323 OA
HETATM   16  O   UNL     1     -46.146  55.520 -61.135  1.00  0.00    -0.323 OA
HETATM   17  C   UNL     1     -43.870  55.407 -60.277  1.00  0.00     0.040 A 
HETATM   18  C   UNL     1     -47.228  56.367 -60.691  1.00  0.00     0.352 A 
HETATM   19  C   UNL     1     -42.988  55.907 -59.313  1.00  0.00     0.012 A 
ENDBRANCH  10  11
ENDBRANCH   7  10
ENDBRANCH   5   7
ENDBRANCH   1   5
BRANCH   2  20
HETATM   20  C   UNL     1     -40.789  52.709 -53.488  1.00  0.00     0.045 A 
HETATM   21  C   UNL     1     -40.882  53.019 -52.106  1.00  0.00     0.001 A 
HETATM   22  C   UNL     1     -40.170  52.235 -51.180  1.00  0.00     0.014 A 
HETATM   23  C   UNL     1     -39.382  51.167 -51.603  1.00  0.00     0.001 A 
HETATM   24  C   UNL     1     -39.290  50.871 -52.958  1.00  0.00     0.002 A 
HETATM   25  C   UNL     1     -39.988  51.637 -53.896  1.00  0.00     0.030 A 
BRANCH  21  26
HETATM   26  C   UNL     1     -41.662  54.161 -51.608  1.00  0.00    -0.024 A 
HETATM   27  C   UNL     1     -43.025  54.028 -51.301  1.00  0.00     0.012 A 
HETATM   28  C   UNL     1     -43.763  55.128 -50.859  1.00  0.00     0.001 A 
HETATM   29  C   UNL     1     -43.148  56.371 -50.714  1.00  0.00     0.000 A 
HETATM   30  C   UNL     1     -41.793  56.516 -51.007  1.00  0.00     0.001 A 
HETATM   31  C   UNL     1     -41.055  55.418 -51.452  1.00  0.00     0.012 A 
ENDBRANCH  21  26
ENDBRANCH   2  20
TORSDOF 6
ENDMDL
MODEL 5
REMARK VINA RESULT:      -8.3      1.241      3.340
REMARK  6 active torsions:
REMARK  status: ('A' for Active; 'I' for Inactive)
REMARK    1  A    between atoms: C_2  and  N_3 
REMARK    2  A    between atoms: C_2  and  C_16 
REMARK    3  A    between atoms: N_3  and  C_5 
REMARK    4  A    between atoms: C_5  and  C_6 
REMARK       I    between atoms: C_16  and  N_17 
REMARK    5  A    between atoms: N_17  and  C_18 
REMARK    6  A    between atoms: C_19  and  C_20 
ROOT
HETATM    1  C   UNL     1     -42.552  54.810 -53.575  1.00  0.00     0.253 C 
HETATM    2  N   UNL     1     -41.341  54.744 -52.921  1.00  0.00    -0.325 N 
HETATM    3  O   UNL     1     -43.664  54.617 -53.088  1.00  0.00    -0.271 OA
HETATM    4  H   UNL     1     -40.492  54.737 -53.480  1.00  0.00     0.169 HD
ENDROOT
BRANCH   1   5
HETATM    5  C   UNL     1     -42.443  55.169 -55.074  1.00  0.00     0.275 C 
HETATM    6  C   UNL     1     -43.204  54.114 -55.879  1.00  0.00     0.050 C 
BRANCH   5   7
HETATM    7  N   UNL     1     -43.017  56.582 -55.360  1.00  0.00    -0.059 N 
HETATM    8  H   UNL     1     -43.651  56.759 -54.566  1.00  0.00     0.280 HD
HETATM    9  C   UNL     1     -43.822  56.683 -56.620  1.00  0.00     0.271 C 
BRANCH   7  10
HETATM   10  C   UNL     1     -41.993  57.709 -55.236  1.00  0.00     0.274 C 
BRANCH  10  11
HETATM   11  C   UNL     1     -41.765  58.240 -53.847  1.00  0.00    -0.030 A 
HETATM   12  C   UNL     1     -40.465  58.509 -53.384  1.00  0.00     0.048 A 
HETATM   13  C   UNL     1     -40.317  58.996 -52.102  1.00  0.00     0.105 A 
HETATM   14  C   UNL     1     -41.392  59.221 -51.280  1.00  0.00     0.105 A 
HETATM   15  O   UNL     1     -39.135  59.308 -51.509  1.00  0.00    -0.323 OA
HETATM   16  O   UNL     1     -41.024  59.704 -50.065  1.00  0.00    -0.323 OA
HETATM   17  C   UNL     1     -42.682  58.977 -51.695  1.00  0.00     0.040 A 
HETATM   18  C   UNL     1     -39.592  59.798 -50.227  1.00  0.00     0.352 A 
HETATM   19  C   UNL     1     -42.868  58.486 -52.991  1.00  0.00     0.012 A 
ENDBRANCH  10  11
ENDBRANCH   7  10
ENDBRANCH   5   7
ENDBRANCH   1   5
BRANCH   2  20
HETATM   20  C   UNL     1     -41.117  54.588 -51.527  1.00  0.00     0.045 A 
HETATM   21  C   UNL     1     -40.507  53.391 -51.073  1.00  0.00     0.001 A 
HETATM   22  C   UNL     1     -40.242  53.235 -49.701  1.00  0.00     0.014 A 
HETATM   23  C   UNL     1     -40.570  54.238 -48.790  1.00  0.00     0.001 A 
HETATM   24  C   UNL     1     -41.173  55.407 -49.239  1.00  0.00     0.002 A 
HETATM   25  C   UNL     1     -41.446  55.582 -50.599  1.00  0.00     0.030 A 
BRANCH  21  26
HETATM   26  C   UNL     1     -40.180  52.282 -51.983  1.00  0.00    -0.024 A 
HETATM   27  C   UNL     1     -40.278  52.434 -53.374  1.00  0.00     0.012 A 
HETATM   28  C   UNL     1     -39.997  51.364 -54.226  1.00  0.00     0.001 A 
HETATM   29  C   UNL     1     -39.609  50.133 -53.699  1.00  0.00     0.000 A 
HETATM   30  C   UNL     1     -39.498  49.971 -52.319  1.00  0.00     0.001 A 
HETATM   31  C   UNL     1     -39.783  51.038 -51.466  1.00  0.00     0.012 A 
ENDBRANCH  21  26
ENDBRANCH   2  20
TORSDOF 6
ENDMDL
MODEL 6
REMARK VINA RESULT:      -8.1      4.170      6.819
REMARK  6 active torsions:
REMARK  status: ('A' for Active; 'I' for Inactive)
REMARK    1  A    between atoms: C_2  and  N_3 
REMARK    2  A    between atoms: C_2  and  C_16 
REMARK    3  A    between atoms: N_3  and  C_5 
REMARK    4  A    between atoms: C_5  and  C_6 
REMARK       I    between atoms: C_16  and  N_17 
REMARK    5  A    between atoms: N_17  and  C_18 
REMARK    6  A    between atoms: C_19  and  C_20 
ROOT
HETATM    1  C   UNL     1     -42.603  55.632 -56.343  1.00  0.00     0.253 C 
HETATM    2  N   UNL     1     -41.534  55.709 -55.477  1.00  0.00    -0.325 N 
HETATM    3  O   UNL     1     -43.257  54.629 -56.620  1.00  0.00    -0.271 OA
HETATM    4  H   UNL     1     -40.968  56.552 -55.486  1.00  0.00     0.169 HD
ENDROOT
BRANCH   1   5
HETATM    5  C   UNL     1     -42.976  56.977 -57.008  1.00  0.00     0.275 C 
HETATM    6  C   UNL     1     -42.987  58.061 -55.930  1.00  0.00     0.050 C 
BRANCH   5   7
HETATM    7  N   UNL     1     -41.973  57.347 -58.134  1.00  0.00    -0.059 N 
HETATM    8  H   UNL     1     -41.081  56.936 -57.819  1.00  0.00     0.280 HD
HETATM    9  C   UNL     1     -41.760  58.819 -58.317  1.00  0.00     0.271 C 
BRANCH   7  10
HETATM   10  C   UNL     1     -42.229  56.632 -59.459  1.00  0.00     0.274 C 
BRANCH  10  11
HETATM   11  C   UNL     1     -43.674  56.469 -59.850  1.00  0.00    -0.030 A 
HETATM   12  C   UNL     1     -44.472  57.590 -60.132  1.00  0.00     0.048 A 
HETATM   13  C   UNL     1     -45.789  57.380 -60.487  1.00  0.00     0.105 A 
HETATM   14  C   UNL     1     -46.328  56.121 -60.570  1.00  0.00     0.105 A 
HETATM   15  O   UNL     1     -46.688  58.352 -60.792  1.00  0.00    -0.323 OA
HETATM   16  O   UNL     1     -47.636  56.140 -60.938  1.00  0.00    -0.323 OA
HETATM   17  C   UNL     1     -45.580  54.996 -60.307  1.00  0.00     0.040 A 
HETATM   18  C   UNL     1     -47.851  57.556 -61.120  1.00  0.00     0.352 A 
HETATM   19  C   UNL     1     -44.241  55.173 -59.948  1.00  0.00     0.012 A 
ENDBRANCH  10  11
ENDBRANCH   7  10
ENDBRANCH   5   7
ENDBRANCH   1   5
BRANCH   2  20
HETATM   20  C   UNL     1     -41.050  54.695 -54.608  1.00  0.00     0.045 A 
HETATM   21  C   UNL     1     -41.325  54.809 -53.221  1.00  0.00     0.001 A 
HETATM   22  C   UNL     1     -40.888  53.795 -52.351  1.00  0.00     0.014 A 
HETATM   23  C   UNL     1     -40.192  52.688 -52.834  1.00  0.00     0.001 A 
HETATM   24  C   UNL     1     -39.919  52.584 -54.193  1.00  0.00     0.002 A 
HETATM   25  C   UNL     1     -40.344  53.581 -55.076  1.00  0.00     0.030 A 
BRANCH  21  26
HETATM   26  C   UNL     1     -42.016  55.975 -52.650  1.00  0.00    -0.024 A 
HETATM   27  C   UNL     1     -43.401  55.956 -52.423  1.00  0.00     0.012 A 
HETATM   28  C   UNL     1     -44.050  57.081 -51.911  1.00  0.00     0.001 A 
HETATM   29  C   UNL     1     -43.325  58.235 -51.616  1.00  0.00     0.000 A 
HETATM   30  C   UNL     1     -41.948  58.265 -51.828  1.00  0.00     0.001 A 
HETATM   31  C   UNL     1     -41.298  57.142 -52.343  1.00  0.00     0.012 A 
ENDBRANCH  21  26
ENDBRANCH   2  20
TORSDOF 6
ENDMDL
MODEL 7
REMARK VINA RESULT:      -7.9      3.350      6.506
REMARK  6 active torsions:
REMARK  status: ('A' for Active; 'I' for Inactive)
REMARK    1  A    between atoms: C_2  and  N_3 
REMARK    2  A    between atoms: C_2  and  C_16 
REMARK    3  A    between atoms: N_3  and  C_5 
REMARK    4  A    between atoms: C_5  and  C_6 
REMARK       I    between atoms: C_16  and  N_17 
REMARK    5  A    between atoms: N_17  and  C_18 
REMARK    6  A    between atoms: C_19  and  C_20 
ROOT
HETATM    1  C   UNL     1     -41.690  56.039 -53.568  1.00  0.00     0.253 C 
HETATM    2  N   UNL     1     -41.872  54.936 -52.762  1.00  0.00    -0.325 N 
HETATM    3  O   UNL     1     -41.199  57.118 -53.242  1.00  0.00    -0.271 OA
HETATM    4  H   UNL     1     -42.460  54.182 -53.104  1.00  0.00     0.169 HD
ENDROOT
BRANCH   1   5
HETATM    5  C   UNL     1     -42.170  55.844 -55.024  1.00  0.00     0.275 C 
HETATM    6  C   UNL     1     -43.181  54.696 -55.049  1.00  0.00     0.050 C 
BRANCH   5   7
HETATM    7  N   UNL     1     -42.815  57.141 -55.584  1.00  0.00    -0.059 N 
HETATM    8  H   UNL     1     -42.317  57.899 -55.093  1.00  0.00     0.280 HD
HETATM    9  C   UNL     1     -44.276  57.286 -55.289  1.00  0.00     0.271 C 
BRANCH   7  10
HETATM   10  C   UNL     1     -42.491  57.415 -57.052  1.00  0.00     0.274 C 
BRANCH  10  11
HETATM   11  C   UNL     1     -43.462  56.852 -58.055  1.00  0.00    -0.030 A 
HETATM   12  C   UNL     1     -44.597  57.583 -58.445  1.00  0.00     0.048 A 
HETATM   13  C   UNL     1     -45.451  57.018 -59.369  1.00  0.00     0.105 A 
HETATM   14  C   UNL     1     -45.221  55.778 -59.909  1.00  0.00     0.105 A 
HETATM   15  O   UNL     1     -46.586  57.592 -59.850  1.00  0.00    -0.323 OA
HETATM   16  O   UNL     1     -46.181  55.414 -60.800  1.00  0.00    -0.323 OA
HETATM   17  C   UNL     1     -44.119  55.031 -59.561  1.00  0.00     0.040 A 
HETATM   18  C   UNL     1     -47.024  56.586 -60.792  1.00  0.00     0.352 A 
HETATM   19  C   UNL     1     -43.231  55.576 -58.628  1.00  0.00     0.012 A 
ENDBRANCH  10  11
ENDBRANCH   7  10
ENDBRANCH   5   7
ENDBRANCH   1   5
BRANCH   2  20
HETATM   20  C   UNL     1     -41.404  54.748 -51.434  1.00  0.00     0.045 A 
HETATM   21  C   UNL     1     -40.602  53.612 -51.158  1.00  0.00     0.001 A 
HETATM   22  C   UNL     1     -40.096  53.430 -49.858  1.00  0.00     0.014 A 
HETATM   23  C   UNL     1     -40.375  54.347 -48.847  1.00  0.00     0.001 A 
HETATM   24  C   UNL     1     -41.166  55.456 -49.122  1.00  0.00     0.002 A 
HETATM   25  C   UNL     1     -41.679  55.657 -50.406  1.00  0.00     0.030 A 
BRANCH  21  26
HETATM   26  C   UNL     1     -40.313  52.588 -52.174  1.00  0.00    -0.024 A 
HETATM   27  C   UNL     1     -39.853  51.314 -51.807  1.00  0.00     0.012 A 
HETATM   28  C   UNL     1     -39.551  50.362 -52.782  1.00  0.00     0.001 A 
HETATM   29  C   UNL     1     -39.710  50.667 -54.133  1.00  0.00     0.000 A 
HETATM   30  C   UNL     1     -40.175  51.925 -54.511  1.00  0.00     0.001 A 
HETATM   31  C   UNL     1     -40.474  52.880 -53.538  1.00  0.00     0.012 A 
ENDBRANCH  21  26
ENDBRANCH   2  20
TORSDOF 6
ENDMDL
MODEL 8
REMARK VINA RESULT:      -7.9      2.889      5.239
REMARK  6 active torsions:
REMARK  status: ('A' for Active; 'I' for Inactive)
REMARK    1  A    between atoms: C_2  and  N_3 
REMARK    2  A    between atoms: C_2  and  C_16 
REMARK    3  A    between atoms: N_3  and  C_5 
REMARK    4  A    between atoms: C_5  and  C_6 
REMARK       I    between atoms: C_16  and  N_17 
REMARK    5  A    between atoms: N_17  and  C_18 
REMARK    6  A    between atoms: C_19  and  C_20 
ROOT
HETATM    1  C   UNL     1     -42.643  57.056 -51.054  1.00  0.00     0.253 C 
HETATM    2  N   UNL     1     -41.416  56.445 -51.196  1.00  0.00    -0.325 N 
HETATM    3  O   UNL     1     -43.691  56.529 -50.685  1.00  0.00    -0.271 OA
HETATM    4  H   UNL     1     -40.683  56.947 -51.689  1.00  0.00     0.169 HD
ENDROOT
BRANCH   1   5
HETATM    5  C   UNL     1     -42.645  58.561 -51.407  1.00  0.00     0.275 C 
HETATM    6  C   UNL     1     -41.201  58.999 -51.656  1.00  0.00     0.050 C 
BRANCH   5   7
HETATM    7  N   UNL     1     -43.518  58.846 -52.659  1.00  0.00    -0.059 N 
HETATM    8  H   UNL     1     -43.073  59.670 -53.090  1.00  0.00     0.280 HD
HETATM    9  C   UNL     1     -44.942  59.199 -52.356  1.00  0.00     0.271 C 
BRANCH   7  10
HETATM   10  C   UNL     1     -43.405  57.786 -53.753  1.00  0.00     0.274 C 
BRANCH  10  11
HETATM   11  C   UNL     1     -43.250  58.304 -55.157  1.00  0.00    -0.030 A 
HETATM   12  C   UNL     1     -42.223  59.206 -55.481  1.00  0.00     0.048 A 
HETATM   13  C   UNL     1     -42.128  59.647 -56.785  1.00  0.00     0.105 A 
HETATM   14  C   UNL     1     -43.000  59.230 -57.759  1.00  0.00     0.105 A 
HETATM   15  O   UNL     1     -41.194  60.513 -57.259  1.00  0.00    -0.323 OA
HETATM   16  O   UNL     1     -42.726  59.781 -58.970  1.00  0.00    -0.323 OA
HETATM   17  C   UNL     1     -44.017  58.343 -57.487  1.00  0.00     0.040 A 
HETATM   18  C   UNL     1     -41.553  60.563 -58.660  1.00  0.00     0.352 A 
HETATM   19  C   UNL     1     -44.139  57.875 -56.175  1.00  0.00     0.012 A 
ENDBRANCH  10  11
ENDBRANCH   7  10
ENDBRANCH   5   7
ENDBRANCH   1   5
BRANCH   2  20
HETATM   20  C   UNL     1     -41.057  55.126 -50.812  1.00  0.00     0.045 A 
HETATM   21  C   UNL     1     -41.046  54.115 -51.807  1.00  0.00     0.001 A 
HETATM   22  C   UNL     1     -40.655  52.811 -51.454  1.00  0.00     0.014 A 
HETATM   23  C   UNL     1     -40.282  52.505 -50.147  1.00  0.00     0.001 A 
HETATM   24  C   UNL     1     -40.300  53.497 -49.174  1.00  0.00     0.002 A 
HETATM   25  C   UNL     1     -40.685  54.800 -49.503  1.00  0.00     0.030 A 
BRANCH  21  26
HETATM   26  C   UNL     1     -41.473  54.370 -53.191  1.00  0.00    -0.024 A 
HETATM   27  C   UNL     1     -42.794  54.129 -53.598  1.00  0.00     0.012 A 
HETATM   28  C   UNL     1     -43.179  54.344 -54.922  1.00  0.00     0.001 A 
HETATM   29  C   UNL     1     -42.251  54.806 -55.854  1.00  0.00     0.000 A 
HETATM   30  C   UNL     1     -40.938  55.059 -55.463  1.00  0.00     0.001 A 
HETATM   31  C   UNL     1     -40.551  54.841 -54.139  1.00  0.00     0.012 A 
ENDBRANCH  21  26
ENDBRANCH   2  20
TORSDOF 6
ENDMDL
MODEL 9
REMARK VINA RESULT:      -7.9      2.866      5.255
REMARK  6 active torsions:
REMARK  status: ('A' for Active; 'I' for Inactive)
REMARK    1  A    between atoms: C_2  and  N_3 
REMARK    2  A    between atoms: C_2  and  C_16 
REMARK    3  A    between atoms: N_3  and  C_5 
REMARK    4  A    between atoms: C_5  and  C_6 
REMARK       I    between atoms: C_16  and  N_17 
REMARK    5  A    between atoms: N_17  and  C_18 
REMARK    6  A    between atoms: C_19  and  C_20 
ROOT
HETATM    1  C   UNL     1     -42.232  56.049 -53.743  1.00  0.00     0.253 C 
HETATM    2  N   UNL     1     -40.983  55.506 -53.535  1.00  0.00    -0.325 N 
HETATM    3  O   UNL     1     -43.196  55.500 -54.272  1.00  0.00    -0.271 OA
HETATM    4  H   UNL     1     -40.227  56.128 -53.263  1.00  0.00     0.169 HD
ENDROOT
BRANCH   1   5
HETATM    5  C   UNL     1     -42.382  57.502 -53.237  1.00  0.00     0.275 C 
HETATM    6  C   UNL     1     -41.364  57.732 -52.119  1.00  0.00     0.050 C 
BRANCH   5   7
HETATM    7  N   UNL     1     -42.161  58.525 -54.385  1.00  0.00    -0.059 N 
HETATM    8  H   UNL     1     -41.485  58.057 -55.008  1.00  0.00     0.280 HD
HETATM    9  C   UNL     1     -41.560  59.826 -53.950  1.00  0.00     0.271 C 
BRANCH   7  10
HETATM   10  C   UNL     1     -43.378  58.723 -55.287  1.00  0.00     0.274 C 
BRANCH  10  11
HETATM   11  C   UNL     1     -43.234  58.229 -56.702  1.00  0.00    -0.030 A 
HETATM   12  C   UNL     1     -44.213  57.400 -57.277  1.00  0.00     0.048 A 
HETATM   13  C   UNL     1     -44.029  56.979 -58.577  1.00  0.00     0.105 A 
HETATM   14  C   UNL     1     -42.930  57.346 -59.312  1.00  0.00     0.105 A 
HETATM   15  O   UNL     1     -44.879  56.182 -59.276  1.00  0.00    -0.323 OA
HETATM   16  O   UNL     1     -42.948  56.826 -60.567  1.00  0.00    -0.323 OA
HETATM   17  C   UNL     1     -41.950  58.160 -58.791  1.00  0.00     0.040 A 
HETATM   18  C   UNL     1     -44.208  56.121 -60.556  1.00  0.00     0.352 A 
HETATM   19  C   UNL     1     -42.108  58.608 -57.475  1.00  0.00     0.012 A 
ENDBRANCH  10  11
ENDBRANCH   7  10
ENDBRANCH   5   7
ENDBRANCH   1   5
BRANCH   2  20
HETATM   20  C   UNL     1     -40.578  54.161 -53.746  1.00  0.00     0.045 A 
HETATM   21  C   UNL     1     -40.465  53.307 -52.619  1.00  0.00     0.001 A 
HETATM   22  C   UNL     1     -40.103  51.962 -52.813  1.00  0.00     0.014 A 
HETATM   23  C   UNL     1     -39.857  51.464 -54.091  1.00  0.00     0.001 A 
HETATM   24  C   UNL     1     -39.964  52.306 -55.191  1.00  0.00     0.002 A 
HETATM   25  C   UNL     1     -40.321  53.647 -55.022  1.00  0.00     0.030 A 
BRANCH  21  26
HETATM   26  C   UNL     1     -40.669  53.789 -51.245  1.00  0.00    -0.024 A 
HETATM   27  C   UNL     1     -39.617  53.795 -50.316  1.00  0.00     0.012 A 
HETATM   28  C   UNL     1     -39.832  54.224 -49.005  1.00  0.00     0.001 A 
HETATM   29  C   UNL     1     -41.096  54.657 -48.608  1.00  0.00     0.000 A 
HETATM   30  C   UNL     1     -42.148  54.666 -49.522  1.00  0.00     0.001 A 
HETATM   31  C   UNL     1     -41.936  54.234 -50.833  1.00  0.00     0.012 A 
ENDBRANCH  21  26
ENDBRANCH   2  20
TORSDOF 6
ENDMDL
MODEL 10
REMARK VINA RESULT:      -7.9      3.608      8.069
REMARK  6 active torsions:
REMARK  status: ('A' for Active; 'I' for Inactive)
REMARK    1  A    between atoms: C_2  and  N_3 
REMARK    2  A    between atoms: C_2  and  C_16 
REMARK    3  A    between atoms: N_3  and  C_5 
REMARK    4  A    between atoms: C_5  and  C_6 
REMARK       I    between atoms: C_16  and  N_17 
REMARK    5  A    between atoms: N_17  and  C_18 
REMARK    6  A    between atoms: C_19  and  C_20 
ROOT
HETATM    1  C   UNL     1     -43.245  57.581 -55.792  1.00  0.00     0.253 C 
HETATM    2  N   UNL     1     -42.507  57.549 -56.956  1.00  0.00    -0.325 N 
HETATM    3  O   UNL     1     -43.820  58.555 -55.311  1.00  0.00    -0.271 OA
HETATM    4  H   UNL     1     -41.931  56.732 -57.137  1.00  0.00     0.169 HD
ENDROOT
BRANCH   1   5
HETATM    5  C   UNL     1     -43.327  56.224 -55.057  1.00  0.00     0.275 C 
HETATM    6  C   UNL     1     -43.088  55.108 -56.076  1.00  0.00     0.050 C 
BRANCH   5   7
HETATM    7  N   UNL     1     -42.283  56.139 -53.911  1.00  0.00    -0.059 N 
HETATM    8  H   UNL     1     -42.646  55.393 -53.298  1.00  0.00     0.280 HD
HETATM    9  C   UNL     1     -42.158  57.386 -53.091  1.00  0.00     0.271 C 
BRANCH   7  10
HETATM   10  C   UNL     1     -40.924  55.593 -54.344  1.00  0.00     0.274 C 
BRANCH  10  11
HETATM   11  C   UNL     1     -40.557  54.237 -53.803  1.00  0.00    -0.030 A 
HETATM   12  C   UNL     1     -40.554  53.992 -52.419  1.00  0.00     0.048 A 
HETATM   13  C   UNL     1     -40.211  52.730 -51.981  1.00  0.00     0.105 A 
HETATM   14  C   UNL     1     -39.878  51.723 -52.852  1.00  0.00     0.105 A 
HETATM   15  O   UNL     1     -40.162  52.332 -50.682  1.00  0.00    -0.323 OA
HETATM   16  O   UNL     1     -39.578  50.563 -52.212  1.00  0.00    -0.323 OA
HETATM   17  C   UNL     1     -39.873  51.918 -54.214  1.00  0.00     0.040 A 
HETATM   18  C   UNL     1     -39.800  50.940 -50.836  1.00  0.00     0.352 A 
HETATM   19  C   UNL     1     -40.220  53.186 -54.692  1.00  0.00     0.012 A 
ENDBRANCH  10  11
ENDBRANCH   7  10
ENDBRANCH   5   7
ENDBRANCH   1   5
BRANCH   2  20
HETATM   20  C   UNL     1     -42.370  58.580 -57.923  1.00  0.00     0.045 A 
HETATM   21  C   UNL     1     -43.069  58.448 -59.150  1.00  0.00     0.001 A 
HETATM   22  C   UNL     1     -42.977  59.478 -60.104  1.00  0.00     0.014 A 
HETATM   23  C   UNL     1     -42.213  60.616 -59.857  1.00  0.00     0.001 A 
HETATM   24  C   UNL     1     -41.525  60.738 -58.655  1.00  0.00     0.002 A 
HETATM   25  C   UNL     1     -41.602  59.727 -57.693  1.00  0.00     0.030 A 
BRANCH  21  26
HETATM   26  C   UNL     1     -43.854  57.250 -59.483  1.00  0.00    -0.024 A 
HETATM   27  C   UNL     1     -43.227  56.019 -59.728  1.00  0.00     0.012 A 
HETATM   28  C   UNL     1     -43.981  54.896 -60.075  1.00  0.00     0.001 A 
HETATM   29  C   UNL     1     -45.368  54.988 -60.175  1.00  0.00     0.000 A 
HETATM   30  C   UNL     1     -46.005  56.202 -59.926  1.00  0.00     0.001 A 
HETATM   31  C   UNL     1     -45.253  57.327 -59.582  1.00  0.00     0.012 A 
ENDBRANCH  21  26
ENDBRANCH   2  20
TORSDOF 6
ENDMDL
