MODEL 1
REMARK VINA RESULT:      -7.7      0.000      0.000
REMARK  3 active torsions:
REMARK  status: ('A' for Active; 'I' for Inactive)
REMARK    1  A    between atoms: C_9  and  C_10 
REMARK    2  A    between atoms: C_16  and  C_17 
REMARK       I    between atoms: C_17  and  N_18 
REMARK    3  A    between atoms: N_18  and  C_19 
ROOT
HETATM    1  C   UNL     1     -40.599  52.969 -54.393  1.00  0.00     0.070 C 
HETATM    2  C   UNL     1     -41.011  53.658 -53.116  1.00  0.00     0.037 C 
HETATM    3  N   UNL     1     -40.289  53.300 -51.981  1.00  0.00    -0.191 N 
HETATM    4  C   UNL     1     -40.676  53.640 -50.732  1.00  0.00     0.735 A 
HETATM    5  N   UNL     1     -41.736  54.486 -50.566  1.00  0.00    -0.092 N 
HETATM    6  N   UNL     1     -42.009  54.636 -49.261  1.00  0.00     0.012 NA
HETATM    7  N   UNL     1     -41.078  53.916 -48.641  1.00  0.00     0.033 NA
HETATM    8  N   UNL     1     -40.242  53.289 -49.546  1.00  0.00     0.030 NA
HETATM    9  C   UNL     1     -42.493  55.092 -51.659  1.00  0.00     0.198 C 
HETATM   10  C   UNL     1     -42.051  54.522 -53.004  1.00  0.00     0.062 C 
HETATM   11  H   UNL     1     -39.572  52.585 -52.085  1.00  0.00     0.184 HD
ENDROOT
BRANCH  10  12
HETATM   12  C   UNL     1     -42.931  54.905 -54.139  1.00  0.00     0.256 C 
HETATM   13  N   UNL     1     -42.370  55.840 -54.980  1.00  0.00    -0.322 N 
HETATM   14  H   UNL     1     -41.454  56.197 -54.736  1.00  0.00     0.169 HD
HETATM   15  O   UNL     1     -44.051  54.419 -54.210  1.00  0.00    -0.267 OA
BRANCH  13  16
HETATM   16  C   UNL     1     -42.945  56.356 -56.160  1.00  0.00     0.052 A 
HETATM   17  C   UNL     1     -43.609  57.575 -56.266  1.00  0.00     0.145 A 
HETATM   18  N   UNL     1     -44.170  58.039 -57.412  1.00  0.00    -0.271 NA
HETATM   19  C   UNL     1     -44.071  57.255 -58.504  1.00  0.00     0.116 A 
HETATM   20  C   UNL     1     -43.434  56.027 -58.506  1.00  0.00     0.021 A 
HETATM   21  C   UNL     1     -42.861  55.576 -57.317  1.00  0.00     0.032 A 
ENDBRANCH  13  16
ENDBRANCH  10  12
BRANCH   9  22
HETATM   22  C   UNL     1     -42.376  56.615 -51.624  1.00  0.00    -0.029 A 
HETATM   23  C   UNL     1     -43.488  57.447 -51.406  1.00  0.00     0.009 A 
HETATM   24  C   UNL     1     -43.341  58.834 -51.366  1.00  0.00     0.001 A 
HETATM   25  C   UNL     1     -42.082  59.410 -51.525  1.00  0.00     0.000 A 
HETATM   26  C   UNL     1     -40.967  58.598 -51.722  1.00  0.00     0.001 A 
HETATM   27  C   UNL     1     -41.110  57.211 -51.768  1.00  0.00     0.009 A 
ENDBRANCH   9  22
TORSDOF 3
ENDMDL
MODEL 2
REMARK VINA RESULT:      -7.7      2.874      4.511
REMARK  3 active torsions:
REMARK  status: ('A' for Active; 'I' for Inactive)
REMARK    1  A    between atoms: C_9  and  C_10 
REMARK    2  A    between atoms: C_16  and  C_17 
REMARK       I    between atoms: C_17  and  N_18 
REMARK    3  A    between atoms: N_18  and  C_19 
ROOT
HETATM    1  C   UNL     1     -44.983  58.989 -52.945  1.00  0.00     0.070 C 
HETATM    2  C   UNL     1     -43.520  58.625 -53.001  1.00  0.00     0.037 C 
HETATM    3  N   UNL     1     -42.711  59.242 -52.051  1.00  0.00    -0.191 N 
HETATM    4  C   UNL     1     -41.362  59.210 -52.109  1.00  0.00     0.735 A 
HETATM    5  N   UNL     1     -40.750  58.429 -53.049  1.00  0.00    -0.092 N 
HETATM    6  N   UNL     1     -39.420  58.595 -52.995  1.00  0.00     0.012 NA
HETATM    7  N   UNL     1     -39.230  59.441 -51.985  1.00  0.00     0.033 NA
HETATM    8  N   UNL     1     -40.432  59.833 -51.426  1.00  0.00     0.030 NA
HETATM    9  C   UNL     1     -41.453  57.582 -54.009  1.00  0.00     0.198 C 
HETATM   10  C   UNL     1     -42.960  57.814 -53.934  1.00  0.00     0.062 C 
HETATM   11  H   UNL     1     -43.149  59.910 -51.421  1.00  0.00     0.184 HD
ENDROOT
BRANCH  10  12
HETATM   12  C   UNL     1     -43.724  57.174 -55.036  1.00  0.00     0.256 C 
HETATM   13  N   UNL     1     -43.329  57.583 -56.290  1.00  0.00    -0.322 N 
HETATM   14  H   UNL     1     -42.603  58.287 -56.344  1.00  0.00     0.169 HD
HETATM   15  O   UNL     1     -44.633  56.405 -54.757  1.00  0.00    -0.267 OA
BRANCH  13  16
HETATM   16  C   UNL     1     -43.836  57.115 -57.521  1.00  0.00     0.052 A 
HETATM   17  C   UNL     1     -44.897  57.683 -58.222  1.00  0.00     0.145 A 
HETATM   18  N   UNL     1     -45.378  57.200 -59.397  1.00  0.00    -0.271 NA
HETATM   19  C   UNL     1     -44.780  56.101 -59.897  1.00  0.00     0.116 A 
HETATM   20  C   UNL     1     -43.720  55.460 -59.280  1.00  0.00     0.021 A 
HETATM   21  C   UNL     1     -43.242  55.979 -58.078  1.00  0.00     0.032 A 
ENDBRANCH  13  16
ENDBRANCH  10  12
BRANCH   9  22
HETATM   22  C   UNL     1     -41.096  56.111 -53.801  1.00  0.00    -0.029 A 
HETATM   23  C   UNL     1     -41.308  55.454 -52.576  1.00  0.00     0.009 A 
HETATM   24  C   UNL     1     -40.984  54.106 -52.427  1.00  0.00     0.001 A 
HETATM   25  C   UNL     1     -40.460  53.389 -53.501  1.00  0.00     0.000 A 
HETATM   26  C   UNL     1     -40.262  54.020 -54.727  1.00  0.00     0.001 A 
HETATM   27  C   UNL     1     -40.580  55.370 -54.879  1.00  0.00     0.009 A 
ENDBRANCH   9  22
TORSDOF 3
ENDMDL
MODEL 3
REMARK VINA RESULT:      -7.6      2.517      5.778
REMARK  3 active torsions:
REMARK  status: ('A' for Active; 'I' for Inactive)
REMARK    1  A    between atoms: C_9  and  C_10 
REMARK    2  A    between atoms: C_16  and  C_17 
REMARK       I    between atoms: C_17  and  N_18 
REMARK    3  A    between atoms: N_18  and  C_19 
ROOT
HETATM    1  C   UNL     1     -40.844  56.229 -49.854  1.00  0.00     0.070 C 
HETATM    2  C   UNL     1     -41.875  56.676 -50.861  1.00  0.00     0.037 C 
HETATM    3  N   UNL     1     -42.238  58.018 -50.794  1.00  0.00    -0.191 N 
HETATM    4  C   UNL     1     -43.302  58.521 -51.456  1.00  0.00     0.735 A 
HETATM    5  N   UNL     1     -43.976  57.727 -52.342  1.00  0.00    -0.092 N 
HETATM    6  N   UNL     1     -45.040  58.381 -52.832  1.00  0.00     0.012 NA
HETATM    7  N   UNL     1     -44.976  59.587 -52.277  1.00  0.00     0.033 NA
HETATM    8  N   UNL     1     -43.898  59.687 -51.416  1.00  0.00     0.030 NA
HETATM    9  C   UNL     1     -43.616  56.348 -52.660  1.00  0.00     0.198 C 
HETATM   10  C   UNL     1     -42.494  55.857 -51.749  1.00  0.00     0.062 C 
HETATM   11  H   UNL     1     -41.817  58.583 -50.060  1.00  0.00     0.184 HD
ENDROOT
BRANCH  10  12
HETATM   12  C   UNL     1     -42.235  54.397 -51.844  1.00  0.00     0.256 C 
HETATM   13  N   UNL     1     -41.089  54.086 -52.542  1.00  0.00    -0.322 N 
HETATM   14  H   UNL     1     -40.564  54.852 -52.944  1.00  0.00     0.169 HD
HETATM   15  O   UNL     1     -43.045  53.619 -51.360  1.00  0.00    -0.267 OA
BRANCH  13  16
HETATM   16  C   UNL     1     -40.564  52.793 -52.753  1.00  0.00     0.052 A 
HETATM   17  C   UNL     1     -39.903  52.027 -51.796  1.00  0.00     0.145 A 
HETATM   18  N   UNL     1     -39.390  50.792 -52.031  1.00  0.00    -0.271 NA
HETATM   19  C   UNL     1     -39.538  50.295 -53.275  1.00  0.00     0.116 A 
HETATM   20  C   UNL     1     -40.177  50.973 -54.297  1.00  0.00     0.021 A 
HETATM   21  C   UNL     1     -40.699  52.238 -54.028  1.00  0.00     0.032 A 
ENDBRANCH  13  16
ENDBRANCH  10  12
BRANCH   9  22
HETATM   22  C   UNL     1     -43.249  56.208 -54.136  1.00  0.00    -0.029 A 
HETATM   23  C   UNL     1     -42.588  57.227 -54.845  1.00  0.00     0.009 A 
HETATM   24  C   UNL     1     -42.255  57.057 -56.189  1.00  0.00     0.001 A 
HETATM   25  C   UNL     1     -42.561  55.865 -56.841  1.00  0.00     0.000 A 
HETATM   26  C   UNL     1     -43.198  54.838 -56.148  1.00  0.00     0.001 A 
HETATM   27  C   UNL     1     -43.538  55.005 -54.805  1.00  0.00     0.009 A 
ENDBRANCH   9  22
TORSDOF 3
ENDMDL
MODEL 4
REMARK VINA RESULT:      -7.3      1.913      5.924
REMARK  3 active torsions:
REMARK  status: ('A' for Active; 'I' for Inactive)
REMARK    1  A    between atoms: C_9  and  C_10 
REMARK    2  A    between atoms: C_16  and  C_17 
REMARK       I    between atoms: C_17  and  N_18 
REMARK    3  A    between atoms: N_18  and  C_19 
ROOT
HETATM    1  C   UNL     1     -43.235  55.032 -57.588  1.00  0.00     0.070 C 
HETATM    2  C   UNL     1     -42.923  56.269 -56.781  1.00  0.00     0.037 C 
HETATM    3  N   UNL     1     -42.972  57.471 -57.481  1.00  0.00    -0.191 N 
HETATM    4  C   UNL     1     -42.497  58.630 -56.977  1.00  0.00     0.735 A 
HETATM    5  N   UNL     1     -42.077  58.673 -55.677  1.00  0.00    -0.092 N 
HETATM    6  N   UNL     1     -41.572  59.882 -55.393  1.00  0.00     0.012 NA
HETATM    7  N   UNL     1     -41.735  60.583 -56.512  1.00  0.00     0.033 NA
HETATM    8  N   UNL     1     -42.309  59.814 -57.507  1.00  0.00     0.030 NA
HETATM    9  C   UNL     1     -42.124  57.542 -54.753  1.00  0.00     0.198 C 
HETATM   10  C   UNL     1     -42.543  56.266 -55.478  1.00  0.00     0.062 C 
HETATM   11  H   UNL     1     -43.176  57.427 -58.477  1.00  0.00     0.184 HD
ENDROOT
BRANCH  10  12
HETATM   12  C   UNL     1     -42.383  55.031 -54.668  1.00  0.00     0.256 C 
HETATM   13  N   UNL     1     -41.068  54.692 -54.436  1.00  0.00    -0.322 N 
HETATM   14  H   UNL     1     -40.355  55.276 -54.855  1.00  0.00     0.169 HD
HETATM   15  O   UNL     1     -43.381  54.414 -54.325  1.00  0.00    -0.267 OA
BRANCH  13  16
HETATM   16  C   UNL     1     -40.609  53.605 -53.662  1.00  0.00     0.052 A 
HETATM   17  C   UNL     1     -40.481  53.602 -52.276  1.00  0.00     0.145 A 
HETATM   18  N   UNL     1     -40.019  52.546 -51.556  1.00  0.00    -0.271 NA
HETATM   19  C   UNL     1     -39.663  51.444 -52.246  1.00  0.00     0.116 A 
HETATM   20  C   UNL     1     -39.751  51.345 -53.623  1.00  0.00     0.021 A 
HETATM   21  C   UNL     1     -40.235  52.441 -54.338  1.00  0.00     0.032 A 
ENDBRANCH  13  16
ENDBRANCH  10  12
BRANCH   9  22
HETATM   22  C   UNL     1     -43.037  57.845 -53.567  1.00  0.00    -0.029 A 
HETATM   23  C   UNL     1     -44.383  58.218 -53.733  1.00  0.00     0.009 A 
HETATM   24  C   UNL     1     -45.192  58.473 -52.626  1.00  0.00     0.001 A 
HETATM   25  C   UNL     1     -44.677  58.344 -51.338  1.00  0.00     0.000 A 
HETATM   26  C   UNL     1     -43.352  57.956 -51.155  1.00  0.00     0.001 A 
HETATM   27  C   UNL     1     -42.537  57.706 -52.260  1.00  0.00     0.009 A 
ENDBRANCH   9  22
TORSDOF 3
ENDMDL
MODEL 5
REMARK VINA RESULT:      -7.2     15.741     17.910
REMARK  3 active torsions:
REMARK  status: ('A' for Active; 'I' for Inactive)
REMARK    1  A    between atoms: C_9  and  C_10 
REMARK    2  A    between atoms: C_16  and  C_17 
REMARK       I    between atoms: C_17  and  N_18 
REMARK    3  A    between atoms: N_18  and  C_19 
ROOT
HETATM    1  C   UNL     1     -36.742  40.082 -50.382  1.00  0.00     0.070 C 
HETATM    2  C   UNL     1     -35.247  39.982 -50.555  1.00  0.00     0.037 C 
HETATM    3  N   UNL     1     -34.566  39.338 -49.526  1.00  0.00    -0.191 N 
HETATM    4  C   UNL     1     -33.221  39.369 -49.409  1.00  0.00     0.735 A 
HETATM    5  N   UNL     1     -32.474  39.930 -50.408  1.00  0.00    -0.092 N 
HETATM    6  N   UNL     1     -31.176  39.934 -50.069  1.00  0.00     0.012 NA
HETATM    7  N   UNL     1     -31.139  39.329 -48.886  1.00  0.00     0.033 NA
HETATM    8  N   UNL     1     -32.406  38.973 -48.462  1.00  0.00     0.030 NA
HETATM    9  C   UNL     1     -33.024  40.493 -51.638  1.00  0.00     0.198 C 
HETATM   10  C   UNL     1     -34.550  40.525 -51.585  1.00  0.00     0.062 C 
HETATM   11  H   UNL     1     -35.110  39.019 -48.728  1.00  0.00     0.184 HD
ENDROOT
BRANCH  10  12
HETATM   12  C   UNL     1     -35.176  41.299 -52.688  1.00  0.00     0.256 C 
HETATM   13  N   UNL     1     -35.428  40.547 -53.813  1.00  0.00    -0.322 N 
HETATM   14  H   UNL     1     -35.141  39.576 -53.800  1.00  0.00     0.169 HD
HETATM   15  O   UNL     1     -35.366  42.497 -52.537  1.00  0.00    -0.267 OA
BRANCH  13  16
HETATM   16  C   UNL     1     -36.057  40.995 -54.995  1.00  0.00     0.052 A 
HETATM   17  C   UNL     1     -37.420  40.907 -55.264  1.00  0.00     0.145 A 
HETATM   18  N   UNL     1     -37.997  41.329 -56.419  1.00  0.00    -0.271 NA
HETATM   19  C   UNL     1     -37.182  41.862 -57.351  1.00  0.00     0.116 A 
HETATM   20  C   UNL     1     -35.815  41.995 -57.183  1.00  0.00     0.021 A 
HETATM   21  C   UNL     1     -35.249  41.558 -55.986  1.00  0.00     0.032 A 
ENDBRANCH  13  16
ENDBRANCH  10  12
BRANCH   9  22
HETATM   22  C   UNL     1     -32.517  39.729 -52.861  1.00  0.00    -0.029 A 
HETATM   23  C   UNL     1     -31.951  40.382 -53.970  1.00  0.00     0.009 A 
HETATM   24  C   UNL     1     -31.485  39.651 -55.063  1.00  0.00     0.001 A 
HETATM   25  C   UNL     1     -31.561  38.260 -55.059  1.00  0.00     0.000 A 
HETATM   26  C   UNL     1     -32.101  37.597 -53.959  1.00  0.00     0.001 A 
HETATM   27  C   UNL     1     -32.574  38.324 -52.866  1.00  0.00     0.009 A 
ENDBRANCH   9  22
TORSDOF 3
ENDMDL
MODEL 6
REMARK VINA RESULT:      -7.2      2.635      5.710
REMARK  3 active torsions:
REMARK  status: ('A' for Active; 'I' for Inactive)
REMARK    1  A    between atoms: C_9  and  C_10 
REMARK    2  A    between atoms: C_16  and  C_17 
REMARK       I    between atoms: C_17  and  N_18 
REMARK    3  A    between atoms: N_18  and  C_19 
ROOT
HETATM    1  C   UNL     1     -41.083  56.260 -49.894  1.00  0.00     0.070 C 
HETATM    2  C   UNL     1     -42.057  56.810 -50.907  1.00  0.00     0.037 C 
HETATM    3  N   UNL     1     -42.406  58.146 -50.740  1.00  0.00    -0.191 N 
HETATM    4  C   UNL     1     -43.430  58.722 -51.405  1.00  0.00     0.735 A 
HETATM    5  N   UNL     1     -44.070  58.020 -52.388  1.00  0.00    -0.092 N 
HETATM    6  N   UNL     1     -45.100  58.731 -52.870  1.00  0.00     0.012 NA
HETATM    7  N   UNL     1     -45.048  59.884 -52.208  1.00  0.00     0.033 NA
HETATM    8  N   UNL     1     -44.013  59.891 -51.292  1.00  0.00     0.030 NA
HETATM    9  C   UNL     1     -43.712  56.668 -52.809  1.00  0.00     0.198 C 
HETATM   10  C   UNL     1     -42.641  56.081 -51.892  1.00  0.00     0.062 C 
HETATM   11  H   UNL     1     -42.014  58.639 -49.940  1.00  0.00     0.184 HD
ENDROOT
BRANCH  10  12
HETATM   12  C   UNL     1     -42.396  54.631 -52.102  1.00  0.00     0.256 C 
HETATM   13  N   UNL     1     -41.174  54.356 -52.673  1.00  0.00    -0.322 N 
HETATM   14  H   UNL     1     -40.588  55.143 -52.922  1.00  0.00     0.169 HD
HETATM   15  O   UNL     1     -43.276  53.833 -51.809  1.00  0.00    -0.267 OA
BRANCH  13  16
HETATM   16  C   UNL     1     -40.647  53.076 -52.945  1.00  0.00     0.052 A 
HETATM   17  C   UNL     1     -40.754  52.404 -54.160  1.00  0.00     0.145 A 
HETATM   18  N   UNL     1     -40.253  51.163 -54.390  1.00  0.00    -0.271 NA
HETATM   19  C   UNL     1     -39.619  50.559 -53.365  1.00  0.00     0.116 A 
HETATM   20  C   UNL     1     -39.458  51.139 -52.120  1.00  0.00     0.021 A 
HETATM   21  C   UNL     1     -39.977  52.416 -51.911  1.00  0.00     0.032 A 
ENDBRANCH  13  16
ENDBRANCH  10  12
BRANCH   9  22
HETATM   22  C   UNL     1     -43.274  56.650 -54.272  1.00  0.00    -0.029 A 
HETATM   23  C   UNL     1     -43.495  55.541 -55.107  1.00  0.00     0.009 A 
HETATM   24  C   UNL     1     -43.095  55.566 -56.443  1.00  0.00     0.001 A 
HETATM   25  C   UNL     1     -42.485  56.702 -56.970  1.00  0.00     0.000 A 
HETATM   26  C   UNL     1     -42.276  57.817 -56.162  1.00  0.00     0.001 A 
HETATM   27  C   UNL     1     -42.669  57.794 -54.823  1.00  0.00     0.009 A 
ENDBRANCH   9  22
TORSDOF 3
ENDMDL
MODEL 7
REMARK VINA RESULT:      -7.1      2.079      6.218
REMARK  3 active torsions:
REMARK  status: ('A' for Active; 'I' for Inactive)
REMARK    1  A    between atoms: C_9  and  C_10 
REMARK    2  A    between atoms: C_16  and  C_17 
REMARK       I    between atoms: C_17  and  N_18 
REMARK    3  A    between atoms: N_18  and  C_19 
ROOT
HETATM    1  C   UNL     1     -43.266  54.585 -55.113  1.00  0.00     0.070 C 
HETATM    2  C   UNL     1     -43.002  56.061 -54.946  1.00  0.00     0.037 C 
HETATM    3  N   UNL     1     -42.913  56.793 -56.126  1.00  0.00    -0.191 N 
HETATM    4  C   UNL     1     -42.455  58.062 -56.166  1.00  0.00     0.735 A 
HETATM    5  N   UNL     1     -42.197  58.719 -54.995  1.00  0.00    -0.092 N 
HETATM    6  N   UNL     1     -41.679  59.930 -55.247  1.00  0.00     0.012 NA
HETATM    7  N   UNL     1     -41.673  60.020 -56.575  1.00  0.00     0.033 NA
HETATM    8  N   UNL     1     -42.152  58.862 -57.159  1.00  0.00     0.030 NA
HETATM    9  C   UNL     1     -42.406  58.153 -53.665  1.00  0.00     0.198 C 
HETATM   10  C   UNL     1     -42.787  56.678 -53.756  1.00  0.00     0.062 C 
HETATM   11  H   UNL     1     -42.995  56.283 -57.003  1.00  0.00     0.184 HD
ENDROOT
BRANCH  10  12
HETATM   12  C   UNL     1     -42.781  55.971 -52.449  1.00  0.00     0.256 C 
HETATM   13  N   UNL     1     -41.520  55.625 -52.017  1.00  0.00    -0.322 N 
HETATM   14  H   UNL     1     -40.741  55.844 -52.625  1.00  0.00     0.169 HD
HETATM   15  O   UNL     1     -43.848  55.721 -51.906  1.00  0.00    -0.267 OA
BRANCH  13  16
HETATM   16  C   UNL     1     -41.199  54.993 -50.797  1.00  0.00     0.052 A 
HETATM   17  C   UNL     1     -41.313  55.571 -49.536  1.00  0.00     0.145 A 
HETATM   18  N   UNL     1     -40.979  54.946 -48.378  1.00  0.00    -0.271 NA
HETATM   19  C   UNL     1     -40.506  53.687 -48.477  1.00  0.00     0.116 A 
HETATM   20  C   UNL     1     -40.354  53.022 -49.680  1.00  0.00     0.021 A 
HETATM   21  C   UNL     1     -40.709  53.685 -50.854  1.00  0.00     0.032 A 
ENDBRANCH  13  16
ENDBRANCH  10  12
BRANCH   9  22
HETATM   22  C   UNL     1     -43.445  58.959 -52.887  1.00  0.00    -0.029 A 
HETATM   23  C   UNL     1     -44.756  59.145 -53.359  1.00  0.00     0.009 A 
HETATM   24  C   UNL     1     -45.683  59.875 -52.615  1.00  0.00     0.001 A 
HETATM   25  C   UNL     1     -45.322  60.415 -51.382  1.00  0.00     0.000 A 
HETATM   26  C   UNL     1     -44.032  60.224 -50.892  1.00  0.00     0.001 A 
HETATM   27  C   UNL     1     -43.100  59.499 -51.635  1.00  0.00     0.009 A 
ENDBRANCH   9  22
TORSDOF 3
ENDMDL
MODEL 8
REMARK VINA RESULT:      -6.8      3.332      5.888
REMARK  3 active torsions:
REMARK  status: ('A' for Active; 'I' for Inactive)
REMARK    1  A    between atoms: C_9  and  C_10 
REMARK    2  A    between atoms: C_16  and  C_17 
REMARK       I    between atoms: C_17  and  N_18 
REMARK    3  A    between atoms: N_18  and  C_19 
ROOT
HETATM    1  C   UNL     1     -40.228  59.473 -50.562  1.00  0.00     0.070 C 
HETATM    2  C   UNL     1     -41.713  59.425 -50.821  1.00  0.00     0.037 C 
HETATM    3  N   UNL     1     -42.471  60.377 -50.145  1.00  0.00    -0.191 N 
HETATM    4  C   UNL     1     -43.819  60.326 -50.080  1.00  0.00     0.735 A 
HETATM    5  N   UNL     1     -44.490  59.391 -50.817  1.00  0.00    -0.092 N 
HETATM    6  N   UNL     1     -45.805  59.451 -50.556  1.00  0.00     0.012 NA
HETATM    7  N   UNL     1     -45.928  60.459 -49.697  1.00  0.00     0.033 NA
HETATM    8  N   UNL     1     -44.698  61.012 -49.391  1.00  0.00     0.030 NA
HETATM    9  C   UNL     1     -43.854  58.430 -51.715  1.00  0.00     0.198 C 
HETATM   10  C   UNL     1     -42.334  58.497 -51.592  1.00  0.00     0.062 C 
HETATM   11  H   UNL     1     -41.982  61.003 -49.509  1.00  0.00     0.184 HD
ENDROOT
BRANCH  10  12
HETATM   12  C   UNL     1     -41.624  57.394 -52.288  1.00  0.00     0.256 C 
HETATM   13  N   UNL     1     -41.881  56.150 -51.754  1.00  0.00    -0.322 N 
HETATM   14  H   UNL     1     -42.482  56.106 -50.941  1.00  0.00     0.169 HD
HETATM   15  O   UNL     1     -40.864  57.665 -53.207  1.00  0.00    -0.267 OA
BRANCH  13  16
HETATM   16  C   UNL     1     -41.390  54.917 -52.233  1.00  0.00     0.052 A 
HETATM   17  C   UNL     1     -40.537  54.066 -51.535  1.00  0.00     0.145 A 
HETATM   18  N   UNL     1     -40.063  52.891 -52.027  1.00  0.00    -0.271 NA
HETATM   19  C   UNL     1     -40.452  52.548 -53.271  1.00  0.00     0.116 A 
HETATM   20  C   UNL     1     -41.295  53.322 -54.048  1.00  0.00     0.021 A 
HETATM   21  C   UNL     1     -41.772  54.520 -53.517  1.00  0.00     0.032 A 
ENDBRANCH  13  16
ENDBRANCH  10  12
BRANCH   9  22
HETATM   22  C   UNL     1     -44.315  58.644 -53.156  1.00  0.00    -0.029 A 
HETATM   23  C   UNL     1     -44.204  59.888 -53.802  1.00  0.00     0.009 A 
HETATM   24  C   UNL     1     -44.622  60.043 -55.124  1.00  0.00     0.001 A 
HETATM   25  C   UNL     1     -45.139  58.956 -55.826  1.00  0.00     0.000 A 
HETATM   26  C   UNL     1     -45.236  57.712 -55.208  1.00  0.00     0.001 A 
HETATM   27  C   UNL     1     -44.826  57.554 -53.884  1.00  0.00     0.009 A 
ENDBRANCH   9  22
TORSDOF 3
ENDMDL
MODEL 9
REMARK VINA RESULT:      -6.8      1.564      2.115
REMARK  3 active torsions:
REMARK  status: ('A' for Active; 'I' for Inactive)
REMARK    1  A    between atoms: C_9  and  C_10 
REMARK    2  A    between atoms: C_16  and  C_17 
REMARK       I    between atoms: C_17  and  N_18 
REMARK    3  A    between atoms: N_18  and  C_19 
ROOT
HETATM    1  C   UNL     1     -40.233  54.683 -54.911  1.00  0.00     0.070 C 
HETATM    2  C   UNL     1     -40.803  55.053 -53.564  1.00  0.00     0.037 C 
HETATM    3  N   UNL     1     -40.447  54.216 -52.511  1.00  0.00    -0.191 N 
HETATM    4  C   UNL     1     -41.050  54.265 -51.303  1.00  0.00     0.735 A 
HETATM    5  N   UNL     1     -41.949  55.262 -51.043  1.00  0.00    -0.092 N 
HETATM    6  N   UNL     1     -42.491  55.090 -49.828  1.00  0.00     0.012 NA
HETATM    7  N   UNL     1     -41.879  54.016 -49.338  1.00  0.00     0.033 NA
HETATM    8  N   UNL     1     -40.979  53.491 -50.247  1.00  0.00     0.030 NA
HETATM    9  C   UNL     1     -42.304  56.324 -51.980  1.00  0.00     0.198 C 
HETATM   10  C   UNL     1     -41.667  56.076 -53.346  1.00  0.00     0.062 C 
HETATM   11  H   UNL     1     -39.867  53.409 -52.726  1.00  0.00     0.184 HD
ENDROOT
BRANCH  10  12
HETATM   12  C   UNL     1     -42.170  56.975 -54.417  1.00  0.00     0.256 C 
HETATM   13  N   UNL     1     -43.275  56.481 -55.075  1.00  0.00    -0.322 N 
HETATM   14  H   UNL     1     -43.610  55.566 -54.803  1.00  0.00     0.169 HD
HETATM   15  O   UNL     1     -41.566  58.011 -54.653  1.00  0.00    -0.267 OA
BRANCH  13  16
HETATM   16  C   UNL     1     -43.996  57.130 -56.100  1.00  0.00     0.052 A 
HETATM   17  C   UNL     1     -43.732  57.021 -57.462  1.00  0.00     0.145 A 
HETATM   18  N   UNL     1     -44.432  57.672 -58.428  1.00  0.00    -0.271 NA
HETATM   19  C   UNL     1     -45.439  58.470 -58.021  1.00  0.00     0.116 A 
HETATM   20  C   UNL     1     -45.783  58.648 -56.693  1.00  0.00     0.021 A 
HETATM   21  C   UNL     1     -45.052  57.964 -55.722  1.00  0.00     0.032 A 
ENDBRANCH  13  16
ENDBRANCH  10  12
BRANCH   9  22
HETATM   22  C   UNL     1     -41.926  57.694 -51.420  1.00  0.00    -0.029 A 
HETATM   23  C   UNL     1     -40.615  58.004 -51.019  1.00  0.00     0.009 A 
HETATM   24  C   UNL     1     -40.303  59.271 -50.525  1.00  0.00     0.001 A 
HETATM   25  C   UNL     1     -41.290  60.252 -50.440  1.00  0.00     0.000 A 
HETATM   26  C   UNL     1     -42.589  59.966 -50.852  1.00  0.00     0.001 A 
HETATM   27  C   UNL     1     -42.907  58.699 -51.341  1.00  0.00     0.009 A 
ENDBRANCH   9  22
TORSDOF 3
ENDMDL
MODEL 10
REMARK VINA RESULT:      -6.6      2.189      7.267
REMARK  3 active torsions:
REMARK  status: ('A' for Active; 'I' for Inactive)
REMARK    1  A    between atoms: C_9  and  C_10 
REMARK    2  A    between atoms: C_16  and  C_17 
REMARK       I    between atoms: C_17  and  N_18 
REMARK    3  A    between atoms: N_18  and  C_19 
ROOT
HETATM    1  C   UNL     1     -41.045  59.224 -53.404  1.00  0.00     0.070 C 
HETATM    2  C   UNL     1     -41.917  59.347 -54.629  1.00  0.00     0.037 C 
HETATM    3  N   UNL     1     -42.065  60.636 -55.134  1.00  0.00    -0.191 N 
HETATM    4  C   UNL     1     -42.986  60.952 -56.069  1.00  0.00     0.735 A 
HETATM    5  N   UNL     1     -43.714  59.956 -56.657  1.00  0.00    -0.092 N 
HETATM    6  N   UNL     1     -44.622  60.478 -57.495  1.00  0.00     0.012 NA
HETATM    7  N   UNL     1     -44.405  61.789 -57.446  1.00  0.00     0.033 NA
HETATM    8  N   UNL     1     -43.389  62.099 -56.561  1.00  0.00     0.030 NA
HETATM    9  C   UNL     1     -43.557  58.533 -56.368  1.00  0.00     0.198 C 
HETATM   10  C   UNL     1     -42.594  58.320 -55.202  1.00  0.00     0.062 C 
HETATM   11  H   UNL     1     -41.612  61.394 -54.629  1.00  0.00     0.184 HD
ENDROOT
BRANCH  10  12
HETATM   12  C   UNL     1     -42.566  56.926 -54.690  1.00  0.00     0.256 C 
HETATM   13  N   UNL     1     -41.303  56.376 -54.660  1.00  0.00    -0.322 N 
HETATM   14  H   UNL     1     -40.540  56.941 -55.011  1.00  0.00     0.169 HD
HETATM   15  O   UNL     1     -43.620  56.382 -54.394  1.00  0.00    -0.267 OA
BRANCH  13  16
HETATM   16  C   UNL     1     -40.961  55.094 -54.180  1.00  0.00     0.052 A 
HETATM   17  C   UNL     1     -40.936  54.716 -52.841  1.00  0.00     0.145 A 
HETATM   18  N   UNL     1     -40.584  53.479 -52.405  1.00  0.00    -0.271 NA
HETATM   19  C   UNL     1     -40.237  52.575 -53.343  1.00  0.00     0.116 A 
HETATM   20  C   UNL     1     -40.229  52.848 -54.699  1.00  0.00     0.021 A 
HETATM   21  C   UNL     1     -40.599  54.125 -55.120  1.00  0.00     0.032 A 
ENDBRANCH  13  16
ENDBRANCH  10  12
BRANCH   9  22
HETATM   22  C   UNL     1     -43.113  57.769 -57.614  1.00  0.00    -0.029 A 
HETATM   23  C   UNL     1     -42.085  58.234 -58.452  1.00  0.00     0.009 A 
HETATM   24  C   UNL     1     -41.696  57.502 -59.575  1.00  0.00     0.001 A 
HETATM   25  C   UNL     1     -42.314  56.289 -59.867  1.00  0.00     0.000 A 
HETATM   26  C   UNL     1     -43.321  55.804 -59.036  1.00  0.00     0.001 A 
HETATM   27  C   UNL     1     -43.717  56.535 -57.916  1.00  0.00     0.009 A 
ENDBRANCH   9  22
TORSDOF 3
ENDMDL
