MODEL 1
REMARK VINA RESULT:      -8.8      0.000      0.000
REMARK  6 active torsions:
REMARK  status: ('A' for Active; 'I' for Inactive)
REMARK    1  A    between atoms: C_2  and  O_3 
REMARK    2  A    between atoms: C_2  and  C_4 
REMARK    3  A    between atoms: C_7  and  N_8 
REMARK       I    between atoms: N_8  and  C_9 
REMARK    4  A    between atoms: C_9  and  C_10 
REMARK    5  A    between atoms: C_13  and  C_14 
REMARK    6  A    between atoms: C_19  and  C_20 
ROOT
HETATM    1  C   UNL     1     -42.664  56.179 -56.035  1.00  0.00     0.096 C 
HETATM    2  C   UNL     1     -42.665  56.611 -57.348  1.00  0.00     0.138 C 
HETATM    3  N   UNL     1     -42.851  57.974 -57.294  1.00  0.00    -0.240 N 
HETATM    4  C   UNL     1     -42.938  58.842 -58.456  1.00  0.00     0.221 C 
HETATM    5  C   UNL     1     -42.445  58.103 -59.714  1.00  0.00     0.067 C 
HETATM    6  C   UNL     1     -42.983  56.665 -59.771  1.00  0.00     0.125 C 
HETATM    7  N   UNL     1     -42.562  55.961 -58.543  1.00  0.00    -0.365 N 
HETATM    8  N   UNL     1     -43.152  58.421 -56.066  1.00  0.00    -0.181 NA
HETATM    9  C   UNL     1     -43.006  57.338 -55.297  1.00  0.00     0.160 C 
HETATM   10  H   UNL     1     -42.834  54.976 -58.572  1.00  0.00     0.162 HD
ENDROOT
BRANCH   1  11
HETATM   11  C   UNL     1     -42.423  54.854 -55.487  1.00  0.00     0.261 C 
HETATM   12  N   UNL     1     -41.215  54.748 -54.822  1.00  0.00    -0.323 N 
HETATM   13  H   UNL     1     -40.690  55.611 -54.731  1.00  0.00     0.169 HD
HETATM   14  O   UNL     1     -43.273  53.979 -55.591  1.00  0.00    -0.267 OA
BRANCH  12  15
HETATM   15  C   UNL     1     -40.710  53.627 -54.133  1.00  0.00     0.035 A 
HETATM   16  C   UNL     1     -40.318  52.442 -54.755  1.00  0.00     0.030 A 
HETATM   17  C   UNL     1     -39.858  51.355 -54.000  1.00  0.00     0.012 A 
HETATM   18  C   UNL     1     -39.783  51.423 -52.604  1.00  0.00    -0.030 A 
HETATM   19  C   UNL     1     -40.151  52.631 -51.989  1.00  0.00     0.012 A 
HETATM   20  C   UNL     1     -40.606  53.719 -52.743  1.00  0.00     0.030 A 
BRANCH  18  21
HETATM   21  C   UNL     1     -39.333  50.269 -51.734  1.00  0.00     0.147 C 
HETATM   22  C   UNL     1     -40.036  50.120 -50.386  1.00  0.00     0.044 C 
BRANCH  21  23
HETATM   23  O   UNL     1     -39.508  49.066 -52.480  1.00  0.00    -0.391 OA
HETATM   24  H   UNL     1     -39.477  48.328 -51.850  1.00  0.00     0.210 HD
ENDBRANCH  21  23
ENDBRANCH  18  21
ENDBRANCH  12  15
ENDBRANCH   1  11
BRANCH   4  25
HETATM   25  C   UNL     1     -42.130  60.108 -58.266  1.00  0.00     0.409 C 
HETATM   26  F   UNL     1     -40.987  59.887 -57.577  1.00  0.00    -0.169 F 
HETATM   27  F   UNL     1     -41.758  60.596 -59.481  1.00  0.00    -0.169 F 
HETATM   28  F   UNL     1     -42.808  61.100 -57.656  1.00  0.00    -0.169 F 
ENDBRANCH   4  25
BRANCH   6  29
HETATM   29  C   UNL     1     -44.471  56.622 -60.058  1.00  0.00     0.005 A 
HETATM   30  S   UNL     1     -45.246  55.107 -60.310  1.00  0.00    -0.104 SA
HETATM   31  C   UNL     1     -46.762  55.845 -60.578  1.00  0.00     0.050 A 
HETATM   32  C   UNL     1     -46.698  57.214 -60.457  1.00  0.00     0.008 A 
HETATM   33  C   UNL     1     -45.380  57.662 -60.152  1.00  0.00     0.017 A 
ENDBRANCH   6  29
TORSDOF 6
ENDMDL
MODEL 2
REMARK VINA RESULT:      -8.4      1.645      2.007
REMARK  6 active torsions:
REMARK  status: ('A' for Active; 'I' for Inactive)
REMARK    1  A    between atoms: C_2  and  O_3 
REMARK    2  A    between atoms: C_2  and  C_4 
REMARK    3  A    between atoms: C_7  and  N_8 
REMARK       I    between atoms: N_8  and  C_9 
REMARK    4  A    between atoms: C_9  and  C_10 
REMARK    5  A    between atoms: C_13  and  C_14 
REMARK    6  A    between atoms: C_19  and  C_20 
ROOT
HETATM    1  C   UNL     1     -42.763  56.664 -54.901  1.00  0.00     0.096 C 
HETATM    2  C   UNL     1     -42.864  57.212 -56.165  1.00  0.00     0.138 C 
HETATM    3  N   UNL     1     -43.976  58.023 -56.133  1.00  0.00    -0.240 N 
HETATM    4  C   UNL     1     -44.473  58.787 -57.265  1.00  0.00     0.221 C 
HETATM    5  C   UNL     1     -43.409  58.851 -58.376  1.00  0.00     0.067 C 
HETATM    6  C   UNL     1     -42.733  57.487 -58.590  1.00  0.00     0.125 C 
HETATM    7  N   UNL     1     -42.138  57.057 -57.310  1.00  0.00    -0.365 N 
HETATM    8  N   UNL     1     -44.696  57.895 -55.009  1.00  0.00    -0.181 NA
HETATM    9  C   UNL     1     -43.943  57.096 -54.249  1.00  0.00     0.160 C 
HETATM   10  H   UNL     1     -41.612  56.187 -57.423  1.00  0.00     0.162 HD
ENDROOT
BRANCH   1  11
HETATM   11  C   UNL     1     -41.737  55.803 -54.334  1.00  0.00     0.261 C 
HETATM   12  N   UNL     1     -42.148  54.493 -54.172  1.00  0.00    -0.323 N 
HETATM   13  H   UNL     1     -43.072  54.278 -54.533  1.00  0.00     0.169 HD
HETATM   14  O   UNL     1     -40.620  56.246 -54.100  1.00  0.00    -0.267 OA
BRANCH  12  15
HETATM   15  C   UNL     1     -41.384  53.404 -53.708  1.00  0.00     0.035 A 
HETATM   16  C   UNL     1     -40.964  52.347 -54.514  1.00  0.00     0.030 A 
HETATM   17  C   UNL     1     -40.235  51.279 -53.974  1.00  0.00     0.012 A 
HETATM   18  C   UNL     1     -39.912  51.239 -52.612  1.00  0.00    -0.030 A 
HETATM   19  C   UNL     1     -40.313  52.323 -51.814  1.00  0.00     0.012 A 
HETATM   20  C   UNL     1     -41.036  53.392 -52.355  1.00  0.00     0.030 A 
BRANCH  18  21
HETATM   21  C   UNL     1     -39.163  50.094 -51.964  1.00  0.00     0.147 C 
HETATM   22  C   UNL     1     -39.584  49.724 -50.544  1.00  0.00     0.044 C 
BRANCH  21  23
HETATM   23  O   UNL     1     -39.309  48.948 -52.801  1.00  0.00    -0.391 OA
HETATM   24  H   UNL     1     -38.736  49.080 -53.574  1.00  0.00     0.210 HD
ENDBRANCH  21  23
ENDBRANCH  18  21
ENDBRANCH  12  15
ENDBRANCH   1  11
BRANCH   4  25
HETATM   25  C   UNL     1     -44.862  60.193 -56.860  1.00  0.00     0.409 C 
HETATM   26  F   UNL     1     -43.978  60.739 -55.993  1.00  0.00    -0.169 F 
HETATM   27  F   UNL     1     -44.870  60.997 -57.958  1.00  0.00    -0.169 F 
HETATM   28  F   UNL     1     -46.094  60.282 -56.320  1.00  0.00    -0.169 F 
ENDBRANCH   4  25
BRANCH   6  29
HETATM   29  C   UNL     1     -43.667  56.482 -59.236  1.00  0.00     0.005 A 
HETATM   30  S   UNL     1     -44.864  57.024 -60.347  1.00  0.00    -0.104 SA
HETATM   31  C   UNL     1     -45.465  55.443 -60.580  1.00  0.00     0.050 A 
HETATM   32  C   UNL     1     -44.763  54.511 -59.853  1.00  0.00     0.008 A 
HETATM   33  C   UNL     1     -43.724  55.108 -59.082  1.00  0.00     0.017 A 
ENDBRANCH   6  29
TORSDOF 6
ENDMDL
MODEL 3
REMARK VINA RESULT:      -8.1      3.038      4.227
REMARK  6 active torsions:
REMARK  status: ('A' for Active; 'I' for Inactive)
REMARK    1  A    between atoms: C_2  and  O_3 
REMARK    2  A    between atoms: C_2  and  C_4 
REMARK    3  A    between atoms: C_7  and  N_8 
REMARK       I    between atoms: N_8  and  C_9 
REMARK    4  A    between atoms: C_9  and  C_10 
REMARK    5  A    between atoms: C_13  and  C_14 
REMARK    6  A    between atoms: C_19  and  C_20 
ROOT
HETATM    1  C   UNL     1     -43.477  56.093 -57.738  1.00  0.00     0.096 C 
HETATM    2  C   UNL     1     -44.177  57.176 -58.234  1.00  0.00     0.138 C 
HETATM    3  N   UNL     1     -44.778  56.735 -59.392  1.00  0.00    -0.240 N 
HETATM    4  C   UNL     1     -45.603  57.559 -60.259  1.00  0.00     0.221 C 
HETATM    5  C   UNL     1     -46.004  58.860 -59.539  1.00  0.00     0.067 C 
HETATM    6  C   UNL     1     -44.818  59.472 -58.777  1.00  0.00     0.125 C 
HETATM    7  N   UNL     1     -44.313  58.469 -57.818  1.00  0.00    -0.365 N 
HETATM    8  N   UNL     1     -44.369  55.516 -59.771  1.00  0.00    -0.181 NA
HETATM    9  C   UNL     1     -43.607  55.113 -58.751  1.00  0.00     0.160 C 
HETATM   10  H   UNL     1     -43.569  58.859 -57.235  1.00  0.00     0.162 HD
ENDROOT
BRANCH   1  11
HETATM   11  C   UNL     1     -42.728  55.952 -56.499  1.00  0.00     0.261 C 
HETATM   12  N   UNL     1     -42.781  54.676 -55.969  1.00  0.00    -0.323 N 
HETATM   13  H   UNL     1     -43.261  53.987 -56.539  1.00  0.00     0.169 HD
HETATM   14  O   UNL     1     -42.090  56.896 -56.052  1.00  0.00    -0.267 OA
BRANCH  12  15
HETATM   15  C   UNL     1     -42.122  54.196 -54.820  1.00  0.00     0.035 A 
HETATM   16  C   UNL     1     -42.639  54.291 -53.529  1.00  0.00     0.030 A 
HETATM   17  C   UNL     1     -41.909  53.822 -52.428  1.00  0.00     0.012 A 
HETATM   18  C   UNL     1     -40.642  53.250 -52.591  1.00  0.00    -0.030 A 
HETATM   19  C   UNL     1     -40.143  53.130 -53.898  1.00  0.00     0.012 A 
HETATM   20  C   UNL     1     -40.874  53.594 -54.997  1.00  0.00     0.030 A 
BRANCH  18  21
HETATM   21  C   UNL     1     -39.791  52.763 -51.437  1.00  0.00     0.147 C 
HETATM   22  C   UNL     1     -40.262  53.148 -50.037  1.00  0.00     0.044 C 
BRANCH  21  23
HETATM   23  O   UNL     1     -39.712  51.341 -51.522  1.00  0.00    -0.391 OA
HETATM   24  H   UNL     1     -40.605  51.013 -51.715  1.00  0.00     0.210 HD
ENDBRANCH  21  23
ENDBRANCH  18  21
ENDBRANCH  12  15
ENDBRANCH   1  11
BRANCH   4  25
HETATM   25  C   UNL     1     -46.850  56.824 -60.702  1.00  0.00     0.409 C 
HETATM   26  F   UNL     1     -46.584  55.881 -61.634  1.00  0.00    -0.169 F 
HETATM   27  F   UNL     1     -47.395  56.171 -59.639  1.00  0.00    -0.169 F 
HETATM   28  F   UNL     1     -47.817  57.632 -61.181  1.00  0.00    -0.169 F 
ENDBRANCH   4  25
BRANCH   6  29
HETATM   29  C   UNL     1     -43.775  60.050 -59.712  1.00  0.00     0.005 A 
HETATM   30  S   UNL     1     -44.131  61.475 -60.609  1.00  0.00    -0.104 SA
HETATM   31  C   UNL     1     -42.604  61.462 -61.373  1.00  0.00     0.050 A 
HETATM   32  C   UNL     1     -41.821  60.415 -60.945  1.00  0.00     0.008 A 
HETATM   33  C   UNL     1     -42.492  59.604 -59.985  1.00  0.00     0.017 A 
ENDBRANCH   6  29
TORSDOF 6
ENDMDL
MODEL 4
REMARK VINA RESULT:      -8.1      3.295      5.221
REMARK  6 active torsions:
REMARK  status: ('A' for Active; 'I' for Inactive)
REMARK    1  A    between atoms: C_2  and  O_3 
REMARK    2  A    between atoms: C_2  and  C_4 
REMARK    3  A    between atoms: C_7  and  N_8 
REMARK       I    between atoms: N_8  and  C_9 
REMARK    4  A    between atoms: C_9  and  C_10 
REMARK    5  A    between atoms: C_13  and  C_14 
REMARK    6  A    between atoms: C_19  and  C_20 
ROOT
HETATM    1  C   UNL     1     -42.839  56.515 -55.076  1.00  0.00     0.096 C 
HETATM    2  C   UNL     1     -43.605  57.381 -54.320  1.00  0.00     0.138 C 
HETATM    3  N   UNL     1     -43.693  58.543 -55.055  1.00  0.00    -0.240 N 
HETATM    4  C   UNL     1     -44.395  59.740 -54.625  1.00  0.00     0.221 C 
HETATM    5  C   UNL     1     -45.312  59.423 -53.430  1.00  0.00     0.067 C 
HETATM    6  C   UNL     1     -44.610  58.519 -52.404  1.00  0.00     0.125 C 
HETATM    7  N   UNL     1     -44.184  57.282 -53.088  1.00  0.00    -0.365 N 
HETATM    8  N   UNL     1     -42.893  58.552 -56.131  1.00  0.00    -0.181 NA
HETATM    9  C   UNL     1     -42.401  57.310 -56.162  1.00  0.00     0.160 C 
HETATM   10  H   UNL     1     -43.778  56.617 -52.426  1.00  0.00     0.162 HD
ENDROOT
BRANCH   1  11
HETATM   11  C   UNL     1     -42.493  55.123 -54.838  1.00  0.00     0.261 C 
HETATM   12  N   UNL     1     -41.351  54.965 -54.074  1.00  0.00    -0.323 N 
HETATM   13  H   UNL     1     -40.946  55.823 -53.714  1.00  0.00     0.169 HD
HETATM   14  O   UNL     1     -43.216  54.226 -55.254  1.00  0.00    -0.267 OA
BRANCH  12  15
HETATM   15  C   UNL     1     -40.783  53.759 -53.618  1.00  0.00     0.035 A 
HETATM   16  C   UNL     1     -40.374  52.724 -54.459  1.00  0.00     0.030 A 
HETATM   17  C   UNL     1     -39.849  51.537 -53.931  1.00  0.00     0.012 A 
HETATM   18  C   UNL     1     -39.725  51.353 -52.548  1.00  0.00    -0.030 A 
HETATM   19  C   UNL     1     -40.111  52.412 -51.711  1.00  0.00     0.012 A 
HETATM   20  C   UNL     1     -40.631  53.599 -52.239  1.00  0.00     0.030 A 
BRANCH  18  21
HETATM   21  C   UNL     1     -39.203  50.078 -51.919  1.00  0.00     0.147 C 
HETATM   22  C   UNL     1     -39.763  49.721 -50.544  1.00  0.00     0.044 C 
BRANCH  21  23
HETATM   23  O   UNL     1     -39.473  49.005 -52.819  1.00  0.00    -0.391 OA
HETATM   24  H   UNL     1     -38.619  48.681 -53.147  1.00  0.00     0.210 HD
ENDBRANCH  21  23
ENDBRANCH  18  21
ENDBRANCH  12  15
ENDBRANCH   1  11
BRANCH   4  25
HETATM   25  C   UNL     1     -45.219  60.333 -55.748  1.00  0.00     0.409 C 
HETATM   26  F   UNL     1     -45.828  59.384 -56.494  1.00  0.00    -0.169 F 
HETATM   27  F   UNL     1     -46.211  61.106 -55.225  1.00  0.00    -0.169 F 
HETATM   28  F   UNL     1     -44.516  61.135 -56.574  1.00  0.00    -0.169 F 
ENDBRANCH   4  25
BRANCH   6  29
HETATM   29  C   UNL     1     -43.514  59.249 -51.654  1.00  0.00     0.005 A 
HETATM   30  S   UNL     1     -42.039  58.438 -51.299  1.00  0.00    -0.104 SA
HETATM   31  C   UNL     1     -41.402  59.799 -50.489  1.00  0.00     0.050 A 
HETATM   32  C   UNL     1     -42.273  60.863 -50.503  1.00  0.00     0.008 A 
HETATM   33  C   UNL     1     -43.488  60.549 -51.178  1.00  0.00     0.017 A 
ENDBRANCH   6  29
TORSDOF 6
ENDMDL
MODEL 5
REMARK VINA RESULT:      -8.0      4.119      8.821
REMARK  6 active torsions:
REMARK  status: ('A' for Active; 'I' for Inactive)
REMARK    1  A    between atoms: C_2  and  O_3 
REMARK    2  A    between atoms: C_2  and  C_4 
REMARK    3  A    between atoms: C_7  and  N_8 
REMARK       I    between atoms: N_8  and  C_9 
REMARK    4  A    between atoms: C_9  and  C_10 
REMARK    5  A    between atoms: C_13  and  C_14 
REMARK    6  A    between atoms: C_19  and  C_20 
ROOT
HETATM    1  C   UNL     1     -42.927  57.748 -54.292  1.00  0.00     0.096 C 
HETATM    2  C   UNL     1     -42.646  57.356 -52.996  1.00  0.00     0.138 C 
HETATM    3  N   UNL     1     -41.500  58.032 -52.640  1.00  0.00    -0.240 N 
HETATM    4  C   UNL     1     -40.831  57.903 -51.357  1.00  0.00     0.221 C 
HETATM    5  C   UNL     1     -41.752  57.204 -50.341  1.00  0.00     0.067 C 
HETATM    6  C   UNL     1     -42.476  56.002 -50.968  1.00  0.00     0.125 C 
HETATM    7  N   UNL     1     -43.241  56.479 -52.138  1.00  0.00    -0.365 N 
HETATM    8  N   UNL     1     -40.926  58.680 -53.665  1.00  0.00    -0.181 NA
HETATM    9  C   UNL     1     -41.808  58.535 -54.657  1.00  0.00     0.160 C 
HETATM   10  H   UNL     1     -43.800  55.724 -52.544  1.00  0.00     0.162 HD
ENDROOT
BRANCH   1  11
HETATM   11  C   UNL     1     -44.061  57.422 -55.141  1.00  0.00     0.261 C 
HETATM   12  N   UNL     1     -43.901  57.837 -56.451  1.00  0.00    -0.323 N 
HETATM   13  H   UNL     1     -42.997  58.241 -56.673  1.00  0.00     0.169 HD
HETATM   14  O   UNL     1     -45.009  56.791 -54.692  1.00  0.00    -0.267 OA
BRANCH  12  15
HETATM   15  C   UNL     1     -44.781  57.628 -57.531  1.00  0.00     0.035 A 
HETATM   16  C   UNL     1     -46.060  58.178 -57.613  1.00  0.00     0.030 A 
HETATM   17  C   UNL     1     -46.893  57.895 -58.704  1.00  0.00     0.012 A 
HETATM   18  C   UNL     1     -46.470  57.051 -59.738  1.00  0.00    -0.030 A 
HETATM   19  C   UNL     1     -45.170  56.527 -59.662  1.00  0.00     0.012 A 
HETATM   20  C   UNL     1     -44.336  56.813 -58.575  1.00  0.00     0.030 A 
BRANCH  18  21
HETATM   21  C   UNL     1     -47.340  56.678 -60.920  1.00  0.00     0.147 C 
HETATM   22  C   UNL     1     -48.008  57.833 -61.662  1.00  0.00     0.044 C 
BRANCH  21  23
HETATM   23  O   UNL     1     -46.535  55.943 -61.840  1.00  0.00    -0.391 OA
HETATM   24  H   UNL     1     -47.000  55.114 -62.032  1.00  0.00     0.210 HD
ENDBRANCH  21  23
ENDBRANCH  18  21
ENDBRANCH  12  15
ENDBRANCH   1  11
BRANCH   4  25
HETATM   25  C   UNL     1     -40.411  59.251 -50.812  1.00  0.00     0.409 C 
HETATM   26  F   UNL     1     -39.145  59.573 -51.161  1.00  0.00    -0.169 F 
HETATM   27  F   UNL     1     -41.211  60.222 -51.332  1.00  0.00    -0.169 F 
HETATM   28  F   UNL     1     -40.521  59.355 -49.472  1.00  0.00    -0.169 F 
ENDBRANCH   4  25
BRANCH   6  29
HETATM   29  C   UNL     1     -41.533  54.847 -51.243  1.00  0.00     0.005 A 
HETATM   30  S   UNL     1     -40.477  54.295 -50.002  1.00  0.00    -0.104 SA
HETATM   31  C   UNL     1     -39.789  53.107 -51.016  1.00  0.00     0.050 A 
HETATM   32  C   UNL     1     -40.359  53.104 -52.268  1.00  0.00     0.008 A 
HETATM   33  C   UNL     1     -41.367  54.102 -52.399  1.00  0.00     0.017 A 
ENDBRANCH   6  29
TORSDOF 6
ENDMDL
MODEL 6
REMARK VINA RESULT:      -8.0      3.774      8.778
REMARK  6 active torsions:
REMARK  status: ('A' for Active; 'I' for Inactive)
REMARK    1  A    between atoms: C_2  and  O_3 
REMARK    2  A    between atoms: C_2  and  C_4 
REMARK    3  A    between atoms: C_7  and  N_8 
REMARK       I    between atoms: N_8  and  C_9 
REMARK    4  A    between atoms: C_9  and  C_10 
REMARK    5  A    between atoms: C_13  and  C_14 
REMARK    6  A    between atoms: C_19  and  C_20 
ROOT
HETATM    1  C   UNL     1     -43.213  57.780 -56.646  1.00  0.00     0.096 C 
HETATM    2  C   UNL     1     -43.343  57.056 -55.476  1.00  0.00     0.138 C 
HETATM    3  N   UNL     1     -42.699  57.792 -54.507  1.00  0.00    -0.240 N 
HETATM    4  C   UNL     1     -42.571  57.391 -53.116  1.00  0.00     0.221 C 
HETATM    5  C   UNL     1     -43.540  56.237 -52.800  1.00  0.00     0.067 C 
HETATM    6  C   UNL     1     -43.547  55.184 -53.918  1.00  0.00     0.125 C 
HETATM    7  N   UNL     1     -43.912  55.851 -55.184  1.00  0.00    -0.365 N 
HETATM    8  N   UNL     1     -42.012  58.833 -54.999  1.00  0.00    -0.181 NA
HETATM    9  C   UNL     1     -42.350  58.844 -56.291  1.00  0.00     0.160 C 
HETATM   10  H   UNL     1     -44.003  55.173 -55.944  1.00  0.00     0.162 HD
ENDROOT
BRANCH   1  11
HETATM   11  C   UNL     1     -43.768  57.529 -57.967  1.00  0.00     0.261 C 
HETATM   12  N   UNL     1     -45.143  57.665 -58.018  1.00  0.00    -0.323 N 
HETATM   13  H   UNL     1     -45.581  57.993 -57.163  1.00  0.00     0.169 HD
HETATM   14  O   UNL     1     -43.028  57.282 -58.911  1.00  0.00    -0.267 OA
BRANCH  12  15
HETATM   15  C   UNL     1     -45.975  57.549 -59.149  1.00  0.00     0.035 A 
HETATM   16  C   UNL     1     -46.641  58.622 -59.740  1.00  0.00     0.030 A 
HETATM   17  C   UNL     1     -47.482  58.424 -60.844  1.00  0.00     0.012 A 
HETATM   18  C   UNL     1     -47.682  57.146 -61.380  1.00  0.00    -0.030 A 
HETATM   19  C   UNL     1     -46.984  56.076 -60.797  1.00  0.00     0.012 A 
HETATM   20  C   UNL     1     -46.141  56.275 -59.698  1.00  0.00     0.030 A 
BRANCH  18  21
HETATM   21  C   UNL     1     -48.609  56.865 -62.544  1.00  0.00     0.147 C 
HETATM   22  C   UNL     1     -49.482  58.027 -63.012  1.00  0.00     0.044 C 
BRANCH  21  23
HETATM   23  O   UNL     1     -47.812  56.417 -63.639  1.00  0.00    -0.391 OA
HETATM   24  H   UNL     1     -48.324  55.744 -64.114  1.00  0.00     0.210 HD
ENDBRANCH  21  23
ENDBRANCH  18  21
ENDBRANCH  12  15
ENDBRANCH   1  11
BRANCH   4  25
HETATM   25  C   UNL     1     -42.841  58.548 -52.178  1.00  0.00     0.409 C 
HETATM   26  F   UNL     1     -43.755  59.411 -52.678  1.00  0.00    -0.169 F 
HETATM   27  F   UNL     1     -43.360  58.075 -51.011  1.00  0.00    -0.169 F 
HETATM   28  F   UNL     1     -41.738  59.246 -51.842  1.00  0.00    -0.169 F 
ENDBRANCH   4  25
BRANCH   6  29
HETATM   29  C   UNL     1     -42.259  54.385 -53.960  1.00  0.00     0.005 A 
HETATM   30  S   UNL     1     -41.633  53.702 -52.511  1.00  0.00    -0.104 SA
HETATM   31  C   UNL     1     -40.278  53.050 -53.318  1.00  0.00     0.050 A 
HETATM   32  C   UNL     1     -40.302  53.319 -54.667  1.00  0.00     0.008 A 
HETATM   33  C   UNL     1     -41.445  54.083 -55.039  1.00  0.00     0.017 A 
ENDBRANCH   6  29
TORSDOF 6
ENDMDL
MODEL 7
REMARK VINA RESULT:      -7.7      2.599      4.148
REMARK  6 active torsions:
REMARK  status: ('A' for Active; 'I' for Inactive)
REMARK    1  A    between atoms: C_2  and  O_3 
REMARK    2  A    between atoms: C_2  and  C_4 
REMARK    3  A    between atoms: C_7  and  N_8 
REMARK       I    between atoms: N_8  and  C_9 
REMARK    4  A    between atoms: C_9  and  C_10 
REMARK    5  A    between atoms: C_13  and  C_14 
REMARK    6  A    between atoms: C_19  and  C_20 
ROOT
HETATM    1  C   UNL     1     -43.016  55.723 -56.433  1.00  0.00     0.096 C 
HETATM    2  C   UNL     1     -43.859  56.767 -56.100  1.00  0.00     0.138 C 
HETATM    3  N   UNL     1     -43.850  57.616 -57.184  1.00  0.00    -0.240 N 
HETATM    4  C   UNL     1     -44.588  58.865 -57.260  1.00  0.00     0.221 C 
HETATM    5  C   UNL     1     -45.642  58.933 -56.139  1.00  0.00     0.067 C 
HETATM    6  C   UNL     1     -45.072  58.443 -54.798  1.00  0.00     0.125 C 
HETATM    7  N   UNL     1     -44.578  57.063 -54.980  1.00  0.00    -0.365 N 
HETATM    8  N   UNL     1     -42.930  57.293 -58.105  1.00  0.00    -0.181 NA
HETATM    9  C   UNL     1     -42.447  56.128 -57.665  1.00  0.00     0.160 C 
HETATM   10  H   UNL     1     -44.258  56.667 -54.093  1.00  0.00     0.162 HD
ENDROOT
BRANCH   1  11
HETATM   11  C   UNL     1     -42.711  54.500 -55.708  1.00  0.00     0.261 C 
HETATM   12  N   UNL     1     -41.489  54.536 -55.063  1.00  0.00    -0.323 N 
HETATM   13  H   UNL     1     -40.997  55.423 -55.109  1.00  0.00     0.169 HD
HETATM   14  O   UNL     1     -43.526  53.587 -55.667  1.00  0.00    -0.267 OA
BRANCH  12  15
HETATM   15  C   UNL     1     -40.926  53.545 -54.234  1.00  0.00     0.035 A 
HETATM   16  C   UNL     1     -40.350  52.367 -54.709  1.00  0.00     0.030 A 
HETATM   17  C   UNL     1     -39.842  51.410 -53.820  1.00  0.00     0.012 A 
HETATM   18  C   UNL     1     -39.902  51.604 -52.435  1.00  0.00    -0.030 A 
HETATM   19  C   UNL     1     -40.456  52.807 -51.968  1.00  0.00     0.012 A 
HETATM   20  C   UNL     1     -40.959  53.765 -52.855  1.00  0.00     0.030 A 
BRANCH  18  21
HETATM   21  C   UNL     1     -39.406  50.589 -51.427  1.00  0.00     0.147 C 
HETATM   22  C   UNL     1     -40.197  50.483 -50.125  1.00  0.00     0.044 C 
BRANCH  21  23
HETATM   23  O   UNL     1     -39.393  49.312 -52.064  1.00  0.00    -0.391 OA
HETATM   24  H   UNL     1     -38.465  49.040 -52.147  1.00  0.00     0.210 HD
ENDBRANCH  21  23
ENDBRANCH  18  21
ENDBRANCH  12  15
ENDBRANCH   1  11
BRANCH   4  25
HETATM   25  C   UNL     1     -45.270  59.027 -58.601  1.00  0.00     0.409 C 
HETATM   26  F   UNL     1     -45.836  57.876 -59.031  1.00  0.00    -0.169 F 
HETATM   27  F   UNL     1     -46.279  59.934 -58.492  1.00  0.00    -0.169 F 
HETATM   28  F   UNL     1     -44.456  59.488 -59.573  1.00  0.00    -0.169 F 
ENDBRANCH   4  25
BRANCH   6  29
HETATM   29  C   UNL     1     -44.065  59.414 -54.215  1.00  0.00     0.005 A 
HETATM   30  S   UNL     1     -44.485  61.074 -54.042  1.00  0.00    -0.104 SA
HETATM   31  C   UNL     1     -42.953  61.470 -53.404  1.00  0.00     0.050 A 
HETATM   32  C   UNL     1     -42.137  60.367 -53.296  1.00  0.00     0.008 A 
HETATM   33  C   UNL     1     -42.779  59.182 -53.759  1.00  0.00     0.017 A 
ENDBRANCH   6  29
TORSDOF 6
ENDMDL
MODEL 8
REMARK VINA RESULT:      -7.6     15.771     18.292
REMARK  6 active torsions:
REMARK  status: ('A' for Active; 'I' for Inactive)
REMARK    1  A    between atoms: C_2  and  O_3 
REMARK    2  A    between atoms: C_2  and  C_4 
REMARK    3  A    between atoms: C_7  and  N_8 
REMARK       I    between atoms: N_8  and  C_9 
REMARK    4  A    between atoms: C_9  and  C_10 
REMARK    5  A    between atoms: C_13  and  C_14 
REMARK    6  A    between atoms: C_19  and  C_20 
ROOT
HETATM    1  C   UNL     1     -35.537  40.862 -52.888  1.00  0.00     0.096 C 
HETATM    2  C   UNL     1     -35.052  40.972 -54.178  1.00  0.00     0.138 C 
HETATM    3  N   UNL     1     -36.155  40.908 -54.999  1.00  0.00    -0.240 N 
HETATM    4  C   UNL     1     -36.107  40.964 -56.451  1.00  0.00     0.221 C 
HETATM    5  C   UNL     1     -34.726  41.455 -56.922  1.00  0.00     0.067 C 
HETATM    6  C   UNL     1     -33.589  40.793 -56.128  1.00  0.00     0.125 C 
HETATM    7  N   UNL     1     -33.794  41.082 -54.694  1.00  0.00    -0.365 N 
HETATM    8  N   UNL     1     -37.282  40.582 -54.351  1.00  0.00    -0.181 NA
HETATM    9  C   UNL     1     -36.914  40.587 -53.067  1.00  0.00     0.160 C 
HETATM   10  H   UNL     1     -33.018  40.723 -54.133  1.00  0.00     0.162 HD
ENDROOT
BRANCH   1  11
HETATM   11  C   UNL     1     -34.838  40.952 -51.616  1.00  0.00     0.261 C 
HETATM   12  N   UNL     1     -34.346  39.737 -51.175  1.00  0.00    -0.323 N 
HETATM   13  H   UNL     1     -34.462  38.960 -51.817  1.00  0.00     0.169 HD
HETATM   14  O   UNL     1     -34.687  42.037 -51.069  1.00  0.00    -0.267 OA
BRANCH  12  15
HETATM   15  C   UNL     1     -33.578  39.491 -50.019  1.00  0.00     0.035 A 
HETATM   16  C   UNL     1     -32.326  40.057 -49.780  1.00  0.00     0.030 A 
HETATM   17  C   UNL     1     -31.604  39.737 -48.623  1.00  0.00     0.012 A 
HETATM   18  C   UNL     1     -32.114  38.838 -47.677  1.00  0.00    -0.030 A 
HETATM   19  C   UNL     1     -33.389  38.298 -47.911  1.00  0.00     0.012 A 
HETATM   20  C   UNL     1     -34.112  38.621 -49.065  1.00  0.00     0.030 A 
BRANCH  18  21
HETATM   21  C   UNL     1     -31.364  38.424 -46.429  1.00  0.00     0.147 C 
HETATM   22  C   UNL     1     -32.205  37.863 -45.286  1.00  0.00     0.044 C 
BRANCH  21  23
HETATM   23  O   UNL     1     -30.392  37.451 -46.807  1.00  0.00    -0.391 OA
HETATM   24  H   UNL     1     -29.675  37.920 -47.264  1.00  0.00     0.210 HD
ENDBRANCH  21  23
ENDBRANCH  18  21
ENDBRANCH  12  15
ENDBRANCH   1  11
BRANCH   4  25
HETATM   25  C   UNL     1     -37.182  41.872 -57.008  1.00  0.00     0.409 C 
HETATM   26  F   UNL     1     -37.493  42.878 -56.159  1.00  0.00    -0.169 F 
HETATM   27  F   UNL     1     -36.734  42.458 -58.152  1.00  0.00    -0.169 F 
HETATM   28  F   UNL     1     -38.321  41.229 -57.338  1.00  0.00    -0.169 F 
ENDBRANCH   4  25
BRANCH   6  29
HETATM   29  C   UNL     1     -33.431  39.326 -56.473  1.00  0.00     0.005 A 
HETATM   30  S   UNL     1     -32.601  38.280 -55.386  1.00  0.00    -0.104 SA
HETATM   31  C   UNL     1     -32.805  36.932 -56.414  1.00  0.00     0.050 A 
HETATM   32  C   UNL     1     -33.509  37.252 -57.551  1.00  0.00     0.008 A 
HETATM   33  C   UNL     1     -33.874  38.629 -57.584  1.00  0.00     0.017 A 
ENDBRANCH   6  29
TORSDOF 6
ENDMDL
MODEL 9
REMARK VINA RESULT:      -7.5      4.372      9.102
REMARK  6 active torsions:
REMARK  status: ('A' for Active; 'I' for Inactive)
REMARK    1  A    between atoms: C_2  and  O_3 
REMARK    2  A    between atoms: C_2  and  C_4 
REMARK    3  A    between atoms: C_7  and  N_8 
REMARK       I    between atoms: N_8  and  C_9 
REMARK    4  A    between atoms: C_9  and  C_10 
REMARK    5  A    between atoms: C_13  and  C_14 
REMARK    6  A    between atoms: C_19  and  C_20 
ROOT
HETATM    1  C   UNL     1     -42.897  56.480 -56.801  1.00  0.00     0.096 C 
HETATM    2  C   UNL     1     -42.283  56.404 -55.565  1.00  0.00     0.138 C 
HETATM    3  N   UNL     1     -42.241  55.064 -55.250  1.00  0.00    -0.240 N 
HETATM    4  C   UNL     1     -41.693  54.523 -54.018  1.00  0.00     0.221 C 
HETATM    5  C   UNL     1     -40.857  55.591 -53.289  1.00  0.00     0.067 C 
HETATM    6  C   UNL     1     -41.558  56.959 -53.298  1.00  0.00     0.125 C 
HETATM    7  N   UNL     1     -41.807  57.346 -54.701  1.00  0.00    -0.365 N 
HETATM    8  N   UNL     1     -42.942  54.297 -56.098  1.00  0.00    -0.181 NA
HETATM    9  C   UNL     1     -43.311  55.151 -57.056  1.00  0.00     0.160 C 
HETATM   10  H   UNL     1     -42.205  58.286 -54.758  1.00  0.00     0.162 HD
ENDROOT
BRANCH   1  11
HETATM   11  C   UNL     1     -43.131  57.631 -57.658  1.00  0.00     0.261 C 
HETATM   12  N   UNL     1     -41.980  58.115 -58.252  1.00  0.00    -0.323 N 
HETATM   13  H   UNL     1     -41.140  57.572 -58.082  1.00  0.00     0.169 HD
HETATM   14  O   UNL     1     -44.269  58.046 -57.838  1.00  0.00    -0.267 OA
BRANCH  12  15
HETATM   15  C   UNL     1     -41.870  59.174 -59.175  1.00  0.00     0.035 A 
HETATM   16  C   UNL     1     -41.953  59.013 -60.558  1.00  0.00     0.030 A 
HETATM   17  C   UNL     1     -41.798  60.110 -61.417  1.00  0.00     0.012 A 
HETATM   18  C   UNL     1     -41.553  61.394 -60.915  1.00  0.00    -0.030 A 
HETATM   19  C   UNL     1     -41.503  61.550 -59.521  1.00  0.00     0.012 A 
HETATM   20  C   UNL     1     -41.661  60.456 -58.663  1.00  0.00     0.030 A 
BRANCH  18  21
HETATM   21  C   UNL     1     -41.338  62.607 -61.794  1.00  0.00     0.147 C 
HETATM   22  C   UNL     1     -39.920  62.825 -62.316  1.00  0.00     0.044 C 
BRANCH  21  23
HETATM   23  O   UNL     1     -42.227  62.504 -62.906  1.00  0.00    -0.391 OA
HETATM   24  H   UNL     1     -42.500  61.575 -62.972  1.00  0.00     0.210 HD
ENDBRANCH  21  23
ENDBRANCH  18  21
ENDBRANCH  12  15
ENDBRANCH   1  11
BRANCH   4  25
HETATM   25  C   UNL     1     -40.834  53.304 -54.280  1.00  0.00     0.409 C 
HETATM   26  F   UNL     1     -40.033  53.464 -55.359  1.00  0.00    -0.169 F 
HETATM   27  F   UNL     1     -40.009  53.092 -53.218  1.00  0.00    -0.169 F 
HETATM   28  F   UNL     1     -41.538  52.166 -54.441  1.00  0.00    -0.169 F 
ENDBRANCH   4  25
BRANCH   6  29
HETATM   29  C   UNL     1     -42.779  56.981 -52.399  1.00  0.00     0.005 A 
HETATM   30  S   UNL     1     -43.960  58.216 -52.597  1.00  0.00    -0.104 SA
HETATM   31  C   UNL     1     -44.908  57.616 -51.311  1.00  0.00     0.050 A 
HETATM   32  C   UNL     1     -44.361  56.485 -50.750  1.00  0.00     0.008 A 
HETATM   33  C   UNL     1     -43.137  56.116 -51.379  1.00  0.00     0.017 A 
ENDBRANCH   6  29
TORSDOF 6
ENDMDL
MODEL 10
REMARK VINA RESULT:      -7.5      4.007      9.030
REMARK  6 active torsions:
REMARK  status: ('A' for Active; 'I' for Inactive)
REMARK    1  A    between atoms: C_2  and  O_3 
REMARK    2  A    between atoms: C_2  and  C_4 
REMARK    3  A    between atoms: C_7  and  N_8 
REMARK       I    between atoms: N_8  and  C_9 
REMARK    4  A    between atoms: C_9  and  C_10 
REMARK    5  A    between atoms: C_13  and  C_14 
REMARK    6  A    between atoms: C_19  and  C_20 
ROOT
HETATM    1  C   UNL     1     -42.494  56.735 -55.020  1.00  0.00     0.096 C 
HETATM    2  C   UNL     1     -42.481  55.931 -53.896  1.00  0.00     0.138 C 
HETATM    3  N   UNL     1     -41.627  56.544 -53.007  1.00  0.00    -0.240 N 
HETATM    4  C   UNL     1     -41.297  56.027 -51.689  1.00  0.00     0.221 C 
HETATM    5  C   UNL     1     -42.284  54.917 -51.287  1.00  0.00     0.067 C 
HETATM    6  C   UNL     1     -42.562  53.958 -52.455  1.00  0.00     0.125 C 
HETATM    7  N   UNL     1     -43.083  54.745 -53.590  1.00  0.00    -0.365 N 
HETATM    8  N   UNL     1     -40.954  57.574 -53.540  1.00  0.00    -0.181 NA
HETATM    9  C   UNL     1     -41.504  57.710 -54.750  1.00  0.00     0.160 C 
HETATM   10  H   UNL     1     -43.353  54.137 -54.367  1.00  0.00     0.162 HD
ENDROOT
BRANCH   1  11
HETATM   11  C   UNL     1     -43.282  56.626 -56.237  1.00  0.00     0.261 C 
HETATM   12  N   UNL     1     -43.923  57.802 -56.582  1.00  0.00    -0.323 N 
HETATM   13  H   UNL     1     -43.708  58.603 -55.997  1.00  0.00     0.169 HD
HETATM   14  O   UNL     1     -43.288  55.583 -56.878  1.00  0.00    -0.267 OA
BRANCH  12  15
HETATM   15  C   UNL     1     -44.710  58.047 -57.724  1.00  0.00     0.035 A 
HETATM   16  C   UNL     1     -44.202  58.114 -59.021  1.00  0.00     0.030 A 
HETATM   17  C   UNL     1     -45.042  58.398 -60.106  1.00  0.00     0.012 A 
HETATM   18  C   UNL     1     -46.411  58.627 -59.921  1.00  0.00    -0.030 A 
HETATM   19  C   UNL     1     -46.919  58.527 -58.616  1.00  0.00     0.012 A 
HETATM   20  C   UNL     1     -46.081  58.239 -57.533  1.00  0.00     0.030 A 
BRANCH  18  21
HETATM   21  C   UNL     1     -47.359  58.977 -61.048  1.00  0.00     0.147 C 
HETATM   22  C   UNL     1     -48.548  59.863 -60.685  1.00  0.00     0.044 C 
BRANCH  21  23
HETATM   23  O   UNL     1     -46.602  59.620 -62.072  1.00  0.00    -0.391 OA
HETATM   24  H   UNL     1     -47.053  60.453 -62.285  1.00  0.00     0.210 HD
ENDBRANCH  21  23
ENDBRANCH  18  21
ENDBRANCH  12  15
ENDBRANCH   1  11
BRANCH   4  25
HETATM   25  C   UNL     1     -41.315  57.121 -50.643  1.00  0.00     0.409 C 
HETATM   26  F   UNL     1     -41.385  56.626 -49.386  1.00  0.00    -0.169 F 
HETATM   27  F   UNL     1     -40.157  57.834 -50.710  1.00  0.00    -0.169 F 
HETATM   28  F   UNL     1     -42.314  58.012 -50.804  1.00  0.00    -0.169 F 
ENDBRANCH   4  25
BRANCH   6  29
HETATM   29  C   UNL     1     -41.365  53.084 -52.774  1.00  0.00     0.005 A 
HETATM   30  S   UNL     1     -40.337  52.551 -51.502  1.00  0.00    -0.104 SA
HETATM   31  C   UNL     1     -39.309  51.721 -52.584  1.00  0.00     0.050 A 
HETATM   32  C   UNL     1     -39.742  51.820 -53.886  1.00  0.00     0.008 A 
HETATM   33  C   UNL     1     -40.929  52.600 -53.996  1.00  0.00     0.017 A 
ENDBRANCH   6  29
TORSDOF 6
ENDMDL
