MODEL 1
REMARK VINA RESULT:      -9.1      0.000      0.000
REMARK  3 active torsions:
REMARK  status: ('A' for Active; 'I' for Inactive)
REMARK    1  A    between atoms: C_6  and  N_7 
REMARK       I    between atoms: N_7  and  C_8 
REMARK    2  A    between atoms: C_8  and  C_9 
REMARK    3  A    between atoms: C_9  and  C_10 
ROOT
HETATM    1  C   UNL     1     -41.995  56.292 -50.439  1.00  0.00     0.286 C 
HETATM    2  N   UNL     1     -41.926  57.488 -51.386  1.00  0.00    -0.056 N 
HETATM    3  H   UNL     1     -42.540  58.212 -50.993  1.00  0.00     0.278 HD
HETATM    4  H   UNL     1     -40.978  57.915 -51.304  1.00  0.00     0.278 HD
HETATM    5  C   UNL     1     -42.312  57.278 -52.816  1.00  0.00     0.209 C 
HETATM    6  C   UNL     1     -43.668  56.542 -52.868  1.00  0.00     0.115 C 
HETATM    7  N   UNL     1     -43.664  55.338 -52.042  1.00  0.00    -0.353 N 
HETATM    8  C   UNL     1     -43.064  55.250 -50.813  1.00  0.00     0.249 C 
HETATM    9  O   UNL     1     -43.341  54.314 -50.069  1.00  0.00    -0.271 OA
HETATM   10  C   UNL     1     -41.206  56.552 -53.581  1.00  0.00     0.035 C 
HETATM   11  C   UNL     1     -41.632  56.289 -55.024  1.00  0.00     0.002 C 
HETATM   12  C   UNL     1     -42.948  55.516 -55.086  1.00  0.00     0.002 C 
HETATM   13  C   UNL     1     -44.063  56.223 -54.314  1.00  0.00     0.027 C 
HETATM   14  H   UNL     1     -44.405  54.650 -52.175  1.00  0.00     0.163 HD
ENDROOT
BRANCH   1  15
HETATM   15  C   UNL     1     -40.648  55.572 -50.238  1.00  0.00     0.146 C 
BRANCH  15  16
HETATM   16  C   UNL     1     -40.718  54.440 -49.251  1.00  0.00     0.224 C 
HETATM   17  N   UNL     1     -40.575  53.139 -49.603  1.00  0.00    -0.327 N 
HETATM   18  H   UNL     1     -40.688  52.529 -48.797  1.00  0.00     0.169 HD
HETATM   19  O   UNL     1     -40.870  54.709 -48.051  1.00  0.00    -0.273 OA
BRANCH  17  20
HETATM   20  C   UNL     1     -40.319  52.459 -50.811  1.00  0.00     0.035 A 
HETATM   21  C   UNL     1     -40.402  52.997 -52.095  1.00  0.00     0.037 A 
HETATM   22  C   UNL     1     -40.135  52.212 -53.238  1.00  0.00    -0.054 A 
HETATM   23  C   UNL     1     -39.733  50.873 -53.088  1.00  0.00    -0.056 A 
HETATM   24  C   UNL     1     -40.248  52.843 -54.603  1.00  0.00     0.049 C 
HETATM   25  C   UNL     1     -39.426  49.997 -54.273  1.00  0.00     0.049 C 
HETATM   26  C   UNL     1     -39.646  50.335 -51.802  1.00  0.00     0.009 A 
HETATM   27  C   UNL     1     -39.934  51.119 -50.681  1.00  0.00     0.030 A 
ENDBRANCH  17  20
ENDBRANCH  15  16
ENDBRANCH   1  15
TORSDOF 3
ENDMDL
MODEL 2
REMARK VINA RESULT:      -8.1      3.238      4.966
REMARK  3 active torsions:
REMARK  status: ('A' for Active; 'I' for Inactive)
REMARK    1  A    between atoms: C_6  and  N_7 
REMARK       I    between atoms: N_7  and  C_8 
REMARK    2  A    between atoms: C_8  and  C_9 
REMARK    3  A    between atoms: C_9  and  C_10 
ROOT
HETATM    1  C   UNL     1     -42.765  58.148 -54.675  1.00  0.00     0.286 C 
HETATM    2  N   UNL     1     -43.404  57.688 -53.366  1.00  0.00    -0.056 N 
HETATM    3  H   UNL     1     -44.372  58.031 -53.374  1.00  0.00     0.278 HD
HETATM    4  H   UNL     1     -43.521  56.652 -53.407  1.00  0.00     0.278 HD
HETATM    5  C   UNL     1     -42.768  58.119 -52.082  1.00  0.00     0.209 C 
HETATM    6  C   UNL     1     -42.518  59.641 -52.132  1.00  0.00     0.115 C 
HETATM    7  N   UNL     1     -41.802  60.035 -53.342  1.00  0.00    -0.353 N 
HETATM    8  C   UNL     1     -42.034  59.499 -54.582  1.00  0.00     0.249 C 
HETATM    9  O   UNL     1     -41.602  60.069 -55.580  1.00  0.00    -0.271 OA
HETATM   10  C   UNL     1     -41.502  57.311 -51.799  1.00  0.00     0.035 C 
HETATM   11  C   UNL     1     -40.828  57.798 -50.518  1.00  0.00     0.002 C 
HETATM   12  C   UNL     1     -40.529  59.294 -50.578  1.00  0.00     0.002 C 
HETATM   13  C   UNL     1     -41.784  60.116 -50.873  1.00  0.00     0.027 C 
HETATM   14  H   UNL     1     -41.375  60.960 -53.380  1.00  0.00     0.163 HD
ENDROOT
BRANCH   1  15
HETATM   15  C   UNL     1     -41.816  57.112 -55.308  1.00  0.00     0.146 C 
BRANCH  15  16
HETATM   16  C   UNL     1     -42.534  55.979 -55.986  1.00  0.00     0.224 C 
HETATM   17  N   UNL     1     -42.430  54.689 -55.585  1.00  0.00    -0.327 N 
HETATM   18  H   UNL     1     -42.966  54.074 -56.193  1.00  0.00     0.169 HD
HETATM   19  O   UNL     1     -43.293  56.240 -56.931  1.00  0.00    -0.273 OA
BRANCH  17  20
HETATM   20  C   UNL     1     -41.755  54.024 -54.541  1.00  0.00     0.035 A 
HETATM   21  C   UNL     1     -42.019  54.148 -53.177  1.00  0.00     0.037 A 
HETATM   22  C   UNL     1     -41.264  53.440 -52.217  1.00  0.00    -0.054 A 
HETATM   23  C   UNL     1     -40.254  52.556 -52.635  1.00  0.00    -0.056 A 
HETATM   24  C   UNL     1     -41.588  53.617 -50.755  1.00  0.00     0.049 C 
HETATM   25  C   UNL     1     -39.428  51.769 -51.653  1.00  0.00     0.049 C 
HETATM   26  C   UNL     1     -39.992  52.429 -54.002  1.00  0.00     0.009 A 
HETATM   27  C   UNL     1     -40.734  53.153 -54.939  1.00  0.00     0.030 A 
ENDBRANCH  17  20
ENDBRANCH  15  16
ENDBRANCH   1  15
TORSDOF 3
ENDMDL
MODEL 3
REMARK VINA RESULT:      -8.1      2.554      4.048
REMARK  3 active torsions:
REMARK  status: ('A' for Active; 'I' for Inactive)
REMARK    1  A    between atoms: C_6  and  N_7 
REMARK       I    between atoms: N_7  and  C_8 
REMARK    2  A    between atoms: C_8  and  C_9 
REMARK    3  A    between atoms: C_9  and  C_10 
ROOT
HETATM    1  C   UNL     1     -40.969  57.320 -52.263  1.00  0.00     0.286 C 
HETATM    2  N   UNL     1     -40.941  58.659 -52.996  1.00  0.00    -0.056 N 
HETATM    3  H   UNL     1     -39.971  58.994 -52.961  1.00  0.00     0.278 HD
HETATM    4  H   UNL     1     -41.090  58.477 -54.013  1.00  0.00     0.278 HD
HETATM    5  C   UNL     1     -41.830  59.754 -52.498  1.00  0.00     0.209 C 
HETATM    6  C   UNL     1     -41.645  59.895 -50.971  1.00  0.00     0.115 C 
HETATM    7  N   UNL     1     -41.793  58.615 -50.286  1.00  0.00    -0.353 N 
HETATM    8  C   UNL     1     -41.312  57.425 -50.765  1.00  0.00     0.249 C 
HETATM    9  O   UNL     1     -41.226  56.458 -50.014  1.00  0.00    -0.271 OA
HETATM   10  C   UNL     1     -43.282  59.510 -52.907  1.00  0.00     0.035 C 
HETATM   11  C   UNL     1     -44.191  60.600 -52.343  1.00  0.00     0.002 C 
HETATM   12  C   UNL     1     -44.054  60.714 -50.826  1.00  0.00     0.002 C 
HETATM   13  C   UNL     1     -42.604  60.946 -50.400  1.00  0.00     0.027 C 
HETATM   14  H   UNL     1     -41.927  58.613 -49.275  1.00  0.00     0.163 HD
ENDROOT
BRANCH   1  15
HETATM   15  C   UNL     1     -41.890  56.267 -52.910  1.00  0.00     0.146 C 
BRANCH  15  16
HETATM   16  C   UNL     1     -41.487  55.903 -54.312  1.00  0.00     0.224 C 
HETATM   17  N   UNL     1     -40.899  54.724 -54.631  1.00  0.00    -0.327 N 
HETATM   18  H   UNL     1     -40.677  54.686 -55.624  1.00  0.00     0.169 HD
HETATM   19  O   UNL     1     -41.743  56.697 -55.227  1.00  0.00    -0.273 OA
BRANCH  17  20
HETATM   20  C   UNL     1     -40.530  53.569 -53.911  1.00  0.00     0.035 A 
HETATM   21  C   UNL     1     -40.243  52.317 -54.451  1.00  0.00     0.037 A 
HETATM   22  C   UNL     1     -39.896  51.224 -53.627  1.00  0.00    -0.054 A 
HETATM   23  C   UNL     1     -39.792  51.403 -52.236  1.00  0.00    -0.056 A 
HETATM   24  C   UNL     1     -39.603  49.889 -54.265  1.00  0.00     0.049 C 
HETATM   25  C   UNL     1     -39.416  50.275 -51.314  1.00  0.00     0.049 C 
HETATM   26  C   UNL     1     -40.077  52.660 -51.695  1.00  0.00     0.009 A 
HETATM   27  C   UNL     1     -40.439  53.726 -52.522  1.00  0.00     0.030 A 
ENDBRANCH  17  20
ENDBRANCH  15  16
ENDBRANCH   1  15
TORSDOF 3
ENDMDL
MODEL 4
REMARK VINA RESULT:      -8.1      4.000      5.512
REMARK  3 active torsions:
REMARK  status: ('A' for Active; 'I' for Inactive)
REMARK    1  A    between atoms: C_6  and  N_7 
REMARK       I    between atoms: N_7  and  C_8 
REMARK    2  A    between atoms: C_8  and  C_9 
REMARK    3  A    between atoms: C_9  and  C_10 
ROOT
HETATM    1  C   UNL     1     -43.379  58.052 -56.617  1.00  0.00     0.286 C 
HETATM    2  N   UNL     1     -42.728  58.018 -57.998  1.00  0.00    -0.056 N 
HETATM    3  H   UNL     1     -42.626  58.995 -58.300  1.00  0.00     0.278 HD
HETATM    4  H   UNL     1     -41.740  57.703 -57.886  1.00  0.00     0.278 HD
HETATM    5  C   UNL     1     -43.425  57.266 -59.088  1.00  0.00     0.209 C 
HETATM    6  C   UNL     1     -44.907  57.695 -59.126  1.00  0.00     0.115 C 
HETATM    7  N   UNL     1     -45.533  57.606 -57.811  1.00  0.00    -0.353 N 
HETATM    8  C   UNL     1     -44.915  57.955 -56.639  1.00  0.00     0.249 C 
HETATM    9  O   UNL     1     -45.586  58.119 -55.624  1.00  0.00    -0.271 OA
HETATM   10  C   UNL     1     -43.241  55.758 -58.915  1.00  0.00     0.035 C 
HETATM   11  C   UNL     1     -44.005  54.996 -59.996  1.00  0.00     0.002 C 
HETATM   12  C   UNL     1     -45.484  55.376 -60.010  1.00  0.00     0.002 C 
HETATM   13  C   UNL     1     -45.684  56.884 -60.168  1.00  0.00     0.027 C 
HETATM   14  H   UNL     1     -46.551  57.633 -57.749  1.00  0.00     0.163 HD
ENDROOT
BRANCH   1  15
HETATM   15  C   UNL     1     -42.829  56.997 -55.637  1.00  0.00     0.146 C 
BRANCH  15  16
HETATM   16  C   UNL     1     -41.894  57.569 -54.608  1.00  0.00     0.224 C 
HETATM   17  N   UNL     1     -41.074  56.805 -53.846  1.00  0.00    -0.327 N 
HETATM   18  H   UNL     1     -40.548  57.378 -53.190  1.00  0.00     0.169 HD
HETATM   19  O   UNL     1     -41.837  58.800 -54.478  1.00  0.00    -0.273 OA
BRANCH  17  20
HETATM   20  C   UNL     1     -40.799  55.425 -53.757  1.00  0.00     0.035 A 
HETATM   21  C   UNL     1     -40.780  54.661 -52.590  1.00  0.00     0.037 A 
HETATM   22  C   UNL     1     -40.476  53.282 -52.620  1.00  0.00    -0.054 A 
HETATM   23  C   UNL     1     -40.231  52.648 -53.851  1.00  0.00    -0.056 A 
HETATM   24  C   UNL     1     -40.461  52.507 -51.327  1.00  0.00     0.049 C 
HETATM   25  C   UNL     1     -39.914  51.179 -53.940  1.00  0.00     0.049 C 
HETATM   26  C   UNL     1     -40.255  53.412 -55.020  1.00  0.00     0.009 A 
HETATM   27  C   UNL     1     -40.536  54.780 -54.972  1.00  0.00     0.030 A 
ENDBRANCH  17  20
ENDBRANCH  15  16
ENDBRANCH   1  15
TORSDOF 3
ENDMDL
MODEL 5
REMARK VINA RESULT:      -7.9     13.826     16.119
REMARK  3 active torsions:
REMARK  status: ('A' for Active; 'I' for Inactive)
REMARK    1  A    between atoms: C_6  and  N_7 
REMARK       I    between atoms: N_7  and  C_8 
REMARK    2  A    between atoms: C_8  and  C_9 
REMARK    3  A    between atoms: C_9  and  C_10 
ROOT
HETATM    1  C   UNL     1     -34.725  41.148 -53.572  1.00  0.00     0.286 C 
HETATM    2  N   UNL     1     -34.629  41.818 -52.203  1.00  0.00    -0.056 N 
HETATM    3  H   UNL     1     -34.222  42.749 -52.358  1.00  0.00     0.278 HD
HETATM    4  H   UNL     1     -35.596  42.036 -51.878  1.00  0.00     0.278 HD
HETATM    5  C   UNL     1     -33.832  41.133 -51.138  1.00  0.00     0.209 C 
HETATM    6  C   UNL     1     -32.457  40.737 -51.717  1.00  0.00     0.115 C 
HETATM    7  N   UNL     1     -32.587  39.996 -52.968  1.00  0.00    -0.353 N 
HETATM    8  C   UNL     1     -33.503  40.289 -53.944  1.00  0.00     0.249 C 
HETATM    9  O   UNL     1     -33.367  39.813 -55.067  1.00  0.00    -0.271 OA
HETATM   10  C   UNL     1     -34.602  39.949 -50.554  1.00  0.00     0.035 C 
HETATM   11  C   UNL     1     -33.758  39.220 -49.511  1.00  0.00     0.002 C 
HETATM   12  C   UNL     1     -32.414  38.778 -50.088  1.00  0.00     0.002 C 
HETATM   13  C   UNL     1     -31.637  39.950 -50.688  1.00  0.00     0.027 C 
HETATM   14  H   UNL     1     -31.779  39.482 -53.319  1.00  0.00     0.163 HD
ENDROOT
BRANCH   1  15
HETATM   15  C   UNL     1     -36.002  40.309 -53.773  1.00  0.00     0.146 C 
BRANCH  15  16
HETATM   16  C   UNL     1     -37.267  41.117 -53.690  1.00  0.00     0.224 C 
HETATM   17  N   UNL     1     -37.980  41.492 -54.780  1.00  0.00    -0.327 N 
HETATM   18  H   UNL     1     -38.781  42.059 -54.513  1.00  0.00     0.169 HD
HETATM   19  O   UNL     1     -37.705  41.419 -52.571  1.00  0.00    -0.273 OA
BRANCH  17  20
HETATM   20  C   UNL     1     -37.857  41.283 -56.169  1.00  0.00     0.035 A 
HETATM   21  C   UNL     1     -38.364  40.202 -56.889  1.00  0.00     0.037 A 
HETATM   22  C   UNL     1     -38.166  40.089 -58.282  1.00  0.00    -0.054 A 
HETATM   23  C   UNL     1     -37.483  41.105 -58.975  1.00  0.00    -0.056 A 
HETATM   24  C   UNL     1     -38.730  38.895 -59.009  1.00  0.00     0.049 C 
HETATM   25  C   UNL     1     -37.255  41.040 -60.461  1.00  0.00     0.049 C 
HETATM   26  C   UNL     1     -36.978  42.191 -58.254  1.00  0.00     0.009 A 
HETATM   27  C   UNL     1     -37.164  42.277 -56.872  1.00  0.00     0.030 A 
ENDBRANCH  17  20
ENDBRANCH  15  16
ENDBRANCH   1  15
TORSDOF 3
ENDMDL
MODEL 6
REMARK VINA RESULT:      -7.8      1.980      5.048
REMARK  3 active torsions:
REMARK  status: ('A' for Active; 'I' for Inactive)
REMARK    1  A    between atoms: C_6  and  N_7 
REMARK       I    between atoms: N_7  and  C_8 
REMARK    2  A    between atoms: C_8  and  C_9 
REMARK    3  A    between atoms: C_9  and  C_10 
ROOT
HETATM    1  C   UNL     1     -40.871  52.974 -50.844  1.00  0.00     0.286 C 
HETATM    2  N   UNL     1     -42.024  53.575 -51.646  1.00  0.00    -0.056 N 
HETATM    3  H   UNL     1     -42.810  52.918 -51.570  1.00  0.00     0.278 HD
HETATM    4  H   UNL     1     -42.371  54.416 -51.137  1.00  0.00     0.278 HD
HETATM    5  C   UNL     1     -41.797  53.865 -53.096  1.00  0.00     0.209 C 
HETATM    6  C   UNL     1     -41.177  52.620 -53.766  1.00  0.00     0.115 C 
HETATM    7  N   UNL     1     -40.007  52.138 -53.039  1.00  0.00    -0.353 N 
HETATM    8  C   UNL     1     -39.911  52.102 -51.673  1.00  0.00     0.249 C 
HETATM    9  O   UNL     1     -39.028  51.433 -51.143  1.00  0.00    -0.271 OA
HETATM   10  C   UNL     1     -40.954  55.126 -53.277  1.00  0.00     0.035 C 
HETATM   11  C   UNL     1     -40.678  55.381 -54.757  1.00  0.00     0.002 C 
HETATM   12  C   UNL     1     -40.017  54.174 -55.419  1.00  0.00     0.002 C 
HETATM   13  C   UNL     1     -40.843  52.900 -55.235  1.00  0.00     0.027 C 
HETATM   14  H   UNL     1     -39.380  51.479 -53.501  1.00  0.00     0.163 HD
ENDROOT
BRANCH   1  15
HETATM   15  C   UNL     1     -40.047  54.009 -50.055  1.00  0.00     0.146 C 
BRANCH  15  16
HETATM   16  C   UNL     1     -40.824  54.680 -48.957  1.00  0.00     0.224 C 
HETATM   17  N   UNL     1     -41.466  55.862 -49.117  1.00  0.00    -0.327 N 
HETATM   18  H   UNL     1     -41.903  56.161 -48.248  1.00  0.00     0.169 HD
HETATM   19  O   UNL     1     -40.919  54.105 -47.863  1.00  0.00    -0.273 OA
BRANCH  17  20
HETATM   20  C   UNL     1     -41.653  56.753 -50.194  1.00  0.00     0.035 A 
HETATM   21  C   UNL     1     -42.818  56.908 -50.944  1.00  0.00     0.037 A 
HETATM   22  C   UNL     1     -42.886  57.827 -52.015  1.00  0.00    -0.054 A 
HETATM   23  C   UNL     1     -41.776  58.638 -52.309  1.00  0.00    -0.056 A 
HETATM   24  C   UNL     1     -44.169  57.947 -52.797  1.00  0.00     0.049 C 
HETATM   25  C   UNL     1     -41.799  59.640 -53.432  1.00  0.00     0.049 C 
HETATM   26  C   UNL     1     -40.610  58.486 -51.555  1.00  0.00     0.009 A 
HETATM   27  C   UNL     1     -40.552  57.557 -50.513  1.00  0.00     0.030 A 
ENDBRANCH  17  20
ENDBRANCH  15  16
ENDBRANCH   1  15
TORSDOF 3
ENDMDL
MODEL 7
REMARK VINA RESULT:      -7.8     13.948     15.680
REMARK  3 active torsions:
REMARK  status: ('A' for Active; 'I' for Inactive)
REMARK    1  A    between atoms: C_6  and  N_7 
REMARK       I    between atoms: N_7  and  C_8 
REMARK    2  A    between atoms: C_8  and  C_9 
REMARK    3  A    between atoms: C_9  and  C_10 
ROOT
HETATM    1  C   UNL     1     -36.702  40.053 -54.825  1.00  0.00     0.286 C 
HETATM    2  N   UNL     1     -37.782  41.033 -55.279  1.00  0.00    -0.056 N 
HETATM    3  H   UNL     1     -38.662  40.722 -54.847  1.00  0.00     0.278 HD
HETATM    4  H   UNL     1     -37.605  41.950 -54.816  1.00  0.00     0.278 HD
HETATM    5  C   UNL     1     -38.017  41.193 -56.747  1.00  0.00     0.209 C 
HETATM    6  C   UNL     1     -38.157  39.796 -57.389  1.00  0.00     0.115 C 
HETATM    7  N   UNL     1     -37.047  38.919 -57.030  1.00  0.00    -0.353 N 
HETATM    8  C   UNL     1     -36.477  38.870 -55.785  1.00  0.00     0.249 C 
HETATM    9  O   UNL     1     -35.753  37.925 -55.485  1.00  0.00    -0.271 OA
HETATM   10  C   UNL     1     -36.917  42.040 -57.387  1.00  0.00     0.035 C 
HETATM   11  C   UNL     1     -37.131  42.149 -58.896  1.00  0.00     0.002 C 
HETATM   12  C   UNL     1     -37.220  40.771 -59.549  1.00  0.00     0.002 C 
HETATM   13  C   UNL     1     -38.308  39.907 -58.910  1.00  0.00     0.027 C 
HETATM   14  H   UNL     1     -36.903  38.065 -57.569  1.00  0.00     0.163 HD
ENDROOT
BRANCH   1  15
HETATM   15  C   UNL     1     -35.343  40.712 -54.522  1.00  0.00     0.146 C 
BRANCH  15  16
HETATM   16  C   UNL     1     -35.459  41.984 -53.730  1.00  0.00     0.224 C 
HETATM   17  N   UNL     1     -35.227  42.051 -52.397  1.00  0.00    -0.327 N 
HETATM   18  H   UNL     1     -35.391  42.992 -52.046  1.00  0.00     0.169 HD
HETATM   19  O   UNL     1     -35.738  43.032 -54.330  1.00  0.00    -0.273 OA
BRANCH  17  20
HETATM   20  C   UNL     1     -34.826  41.128 -51.410  1.00  0.00     0.035 A 
HETATM   21  C   UNL     1     -33.522  40.911 -50.965  1.00  0.00     0.037 A 
HETATM   22  C   UNL     1     -33.235  39.944 -49.977  1.00  0.00    -0.054 A 
HETATM   23  C   UNL     1     -34.283  39.213 -49.390  1.00  0.00    -0.056 A 
HETATM   24  C   UNL     1     -31.806  39.745 -49.539  1.00  0.00     0.049 C 
HETATM   25  C   UNL     1     -34.034  38.179 -48.325  1.00  0.00     0.049 C 
HETATM   26  C   UNL     1     -35.590  39.434 -49.833  1.00  0.00     0.009 A 
HETATM   27  C   UNL     1     -35.855  40.379 -50.827  1.00  0.00     0.030 A 
ENDBRANCH  17  20
ENDBRANCH  15  16
ENDBRANCH   1  15
TORSDOF 3
ENDMDL
MODEL 8
REMARK VINA RESULT:      -7.7      2.942      4.581
REMARK  3 active torsions:
REMARK  status: ('A' for Active; 'I' for Inactive)
REMARK    1  A    between atoms: C_6  and  N_7 
REMARK       I    between atoms: N_7  and  C_8 
REMARK    2  A    between atoms: C_8  and  C_9 
REMARK    3  A    between atoms: C_9  and  C_10 
ROOT
HETATM    1  C   UNL     1     -41.552  58.262 -54.391  1.00  0.00     0.286 C 
HETATM    2  N   UNL     1     -43.010  58.575 -54.718  1.00  0.00    -0.056 N 
HETATM    3  H   UNL     1     -43.001  59.244 -55.498  1.00  0.00     0.278 HD
HETATM    4  H   UNL     1     -43.439  57.725 -55.144  1.00  0.00     0.278 HD
HETATM    5  C   UNL     1     -43.871  59.139 -53.632  1.00  0.00     0.209 C 
HETATM    6  C   UNL     1     -43.132  60.320 -52.968  1.00  0.00     0.115 C 
HETATM    7  N   UNL     1     -41.779  59.955 -52.561  1.00  0.00    -0.353 N 
HETATM    8  C   UNL     1     -40.942  59.159 -53.298  1.00  0.00     0.249 C 
HETATM    9  O   UNL     1     -39.744  59.129 -53.034  1.00  0.00    -0.271 OA
HETATM   10  C   UNL     1     -44.281  58.052 -52.639  1.00  0.00     0.035 C 
HETATM   11  C   UNL     1     -45.110  58.647 -51.502  1.00  0.00     0.002 C 
HETATM   12  C   UNL     1     -44.366  59.784 -50.804  1.00  0.00     0.002 C 
HETATM   13  C   UNL     1     -43.937  60.874 -51.788  1.00  0.00     0.027 C 
HETATM   14  H   UNL     1     -41.282  60.562 -51.910  1.00  0.00     0.163 HD
ENDROOT
BRANCH   1  15
HETATM   15  C   UNL     1     -41.293  56.788 -54.025  1.00  0.00     0.146 C 
BRANCH  15  16
HETATM   16  C   UNL     1     -41.571  55.834 -55.153  1.00  0.00     0.224 C 
HETATM   17  N   UNL     1     -41.342  54.501 -55.070  1.00  0.00    -0.327 N 
HETATM   18  H   UNL     1     -41.565  54.038 -55.949  1.00  0.00     0.169 HD
HETATM   19  O   UNL     1     -42.076  56.279 -56.194  1.00  0.00    -0.273 OA
BRANCH  17  20
HETATM   20  C   UNL     1     -40.867  53.634 -54.065  1.00  0.00     0.035 A 
HETATM   21  C   UNL     1     -40.845  53.893 -52.695  1.00  0.00     0.037 A 
HETATM   22  C   UNL     1     -40.330  52.951 -51.778  1.00  0.00    -0.054 A 
HETATM   23  C   UNL     1     -39.870  51.705 -52.240  1.00  0.00    -0.056 A 
HETATM   24  C   UNL     1     -40.323  53.287 -50.308  1.00  0.00     0.049 C 
HETATM   25  C   UNL     1     -39.322  50.662 -51.304  1.00  0.00     0.049 C 
HETATM   26  C   UNL     1     -39.896  51.444 -53.613  1.00  0.00     0.009 A 
HETATM   27  C   UNL     1     -40.389  52.395 -54.510  1.00  0.00     0.030 A 
ENDBRANCH  17  20
ENDBRANCH  15  16
ENDBRANCH   1  15
TORSDOF 3
ENDMDL
MODEL 9
REMARK VINA RESULT:      -7.7      2.642      3.941
REMARK  3 active torsions:
REMARK  status: ('A' for Active; 'I' for Inactive)
REMARK    1  A    between atoms: C_6  and  N_7 
REMARK       I    between atoms: N_7  and  C_8 
REMARK    2  A    between atoms: C_8  and  C_9 
REMARK    3  A    between atoms: C_9  and  C_10 
ROOT
HETATM    1  C   UNL     1     -42.903  56.907 -51.978  1.00  0.00     0.286 C 
HETATM    2  N   UNL     1     -42.409  58.299 -52.365  1.00  0.00    -0.056 N 
HETATM    3  H   UNL     1     -41.677  58.550 -51.688  1.00  0.00     0.278 HD
HETATM    4  H   UNL     1     -41.882  58.221 -53.262  1.00  0.00     0.278 HD
HETATM    5  C   UNL     1     -43.405  59.415 -52.407  1.00  0.00     0.209 C 
HETATM    6  C   UNL     1     -44.226  59.404 -51.100  1.00  0.00     0.115 C 
HETATM    7  N   UNL     1     -44.783  58.085 -50.819  1.00  0.00    -0.353 N 
HETATM    8  C   UNL     1     -44.115  56.907 -51.029  1.00  0.00     0.249 C 
HETATM    9  O   UNL     1     -44.530  55.873 -50.513  1.00  0.00    -0.271 OA
HETATM   10  C   UNL     1     -44.272  59.326 -53.662  1.00  0.00     0.035 C 
HETATM   11  C   UNL     1     -45.325  60.433 -53.667  1.00  0.00     0.002 C 
HETATM   12  C   UNL     1     -46.178  60.400 -52.400  1.00  0.00     0.002 C 
HETATM   13  C   UNL     1     -45.323  60.474 -51.135  1.00  0.00     0.027 C 
HETATM   14  H   UNL     1     -45.526  58.004 -50.125  1.00  0.00     0.163 HD
ENDROOT
BRANCH   1  15
HETATM   15  C   UNL     1     -43.214  55.995 -53.181  1.00  0.00     0.146 C 
BRANCH  15  16
HETATM   16  C   UNL     1     -42.153  56.026 -54.244  1.00  0.00     0.224 C 
HETATM   17  N   UNL     1     -41.120  55.150 -54.288  1.00  0.00    -0.327 N 
HETATM   18  H   UNL     1     -40.496  55.360 -55.064  1.00  0.00     0.169 HD
HETATM   19  O   UNL     1     -42.247  56.866 -55.151  1.00  0.00    -0.273 OA
BRANCH  17  20
HETATM   20  C   UNL     1     -40.723  54.042 -53.511  1.00  0.00     0.035 A 
HETATM   21  C   UNL     1     -40.747  53.958 -52.120  1.00  0.00     0.037 A 
HETATM   22  C   UNL     1     -40.309  52.797 -51.446  1.00  0.00    -0.054 A 
HETATM   23  C   UNL     1     -39.882  51.680 -52.186  1.00  0.00    -0.056 A 
HETATM   24  C   UNL     1     -40.350  52.765 -49.939  1.00  0.00     0.049 C 
HETATM   25  C   UNL     1     -39.416  50.414 -51.518  1.00  0.00     0.049 C 
HETATM   26  C   UNL     1     -39.862  51.762 -53.580  1.00  0.00     0.009 A 
HETATM   27  C   UNL     1     -40.278  52.926 -54.231  1.00  0.00     0.030 A 
ENDBRANCH  17  20
ENDBRANCH  15  16
ENDBRANCH   1  15
TORSDOF 3
ENDMDL
MODEL 10
REMARK VINA RESULT:      -7.7      1.490      2.207
REMARK  3 active torsions:
REMARK  status: ('A' for Active; 'I' for Inactive)
REMARK    1  A    between atoms: C_6  and  N_7 
REMARK       I    between atoms: N_7  and  C_8 
REMARK    2  A    between atoms: C_8  and  C_9 
REMARK    3  A    between atoms: C_9  and  C_10 
ROOT
HETATM    1  C   UNL     1     -42.389  56.996 -51.765  1.00  0.00     0.286 C 
HETATM    2  N   UNL     1     -41.300  57.323 -52.786  1.00  0.00    -0.056 N 
HETATM    3  H   UNL     1     -40.974  58.274 -52.574  1.00  0.00     0.278 HD
HETATM    4  H   UNL     1     -40.466  56.735 -52.572  1.00  0.00     0.278 HD
HETATM    5  C   UNL     1     -41.656  57.266 -54.238  1.00  0.00     0.209 C 
HETATM    6  C   UNL     1     -42.960  58.060 -54.467  1.00  0.00     0.115 C 
HETATM    7  N   UNL     1     -44.018  57.642 -53.552  1.00  0.00    -0.353 N 
HETATM    8  C   UNL     1     -43.817  57.333 -52.233  1.00  0.00     0.249 C 
HETATM    9  O   UNL     1     -44.777  57.267 -51.471  1.00  0.00    -0.271 OA
HETATM   10  C   UNL     1     -41.740  55.820 -54.724  1.00  0.00     0.035 C 
HETATM   11  C   UNL     1     -42.161  55.769 -56.192  1.00  0.00     0.002 C 
HETATM   12  C   UNL     1     -43.478  56.509 -56.421  1.00  0.00     0.002 C 
HETATM   13  C   UNL     1     -43.414  57.954 -55.927  1.00  0.00     0.027 C 
HETATM   14  H   UNL     1     -44.979  57.917 -53.755  1.00  0.00     0.163 HD
ENDROOT
BRANCH   1  15
HETATM   15  C   UNL     1     -42.362  55.539 -51.262  1.00  0.00     0.146 C 
BRANCH  15  16
HETATM   16  C   UNL     1     -41.304  55.285 -50.225  1.00  0.00     0.224 C 
HETATM   17  N   UNL     1     -40.457  54.229 -50.273  1.00  0.00    -0.327 N 
HETATM   18  H   UNL     1     -39.841  54.219 -49.463  1.00  0.00     0.169 HD
HETATM   19  O   UNL     1     -41.170  56.103 -49.303  1.00  0.00    -0.273 OA
BRANCH  17  20
HETATM   20  C   UNL     1     -40.247  53.162 -51.171  1.00  0.00     0.035 A 
HETATM   21  C   UNL     1     -40.014  51.831 -50.831  1.00  0.00     0.037 A 
HETATM   22  C   UNL     1     -39.803  50.846 -51.820  1.00  0.00    -0.054 A 
HETATM   23  C   UNL     1     -39.872  51.196 -53.180  1.00  0.00    -0.056 A 
HETATM   24  C   UNL     1     -39.548  49.422 -51.395  1.00  0.00     0.049 C 
HETATM   25  C   UNL     1     -39.665  50.184 -54.274  1.00  0.00     0.049 C 
HETATM   26  C   UNL     1     -40.109  52.530 -53.522  1.00  0.00     0.009 A 
HETATM   27  C   UNL     1     -40.295  53.497 -52.530  1.00  0.00     0.030 A 
ENDBRANCH  17  20
ENDBRANCH  15  16
ENDBRANCH   1  15
TORSDOF 3
ENDMDL
