MODEL 1
REMARK VINA RESULT:      -8.5      0.000      0.000
REMARK  4 active torsions:
REMARK  status: ('A' for Active; 'I' for Inactive)
REMARK    1  A    between atoms: C_3  and  C_4 
REMARK    2  A    between atoms: C_14  and  N_15 
REMARK       I    between atoms: N_15  and  C_16 
REMARK    3  A    between atoms: C_16  and  C_17 
REMARK    4  A    between atoms: C_19  and  N_20 
ROOT
HETATM    1  N   UNL     1     -41.372  54.838 -55.624  1.00  0.00    -0.322 N 
HETATM    2  C   UNL     1     -42.655  54.790 -56.122  1.00  0.00     0.256 C 
HETATM    3  O   UNL     1     -43.556  54.017 -55.834  1.00  0.00    -0.267 OA
HETATM    4  H   UNL     1     -40.748  55.528 -56.031  1.00  0.00     0.169 HD
ENDROOT
BRANCH   1   5
HETATM    5  C   UNL     1     -40.857  54.117 -54.514  1.00  0.00     0.049 A 
HETATM    6  C   UNL     1     -40.948  54.676 -53.218  1.00  0.00     0.037 A 
HETATM    7  C   UNL     1     -40.578  53.904 -52.103  1.00  0.00     0.017 A 
HETATM    8  C   UNL     1     -40.079  52.614 -52.263  1.00  0.00     0.001 A 
HETATM    9  C   UNL     1     -39.942  52.082 -53.540  1.00  0.00     0.002 A 
HETATM   10  C   UNL     1     -40.329  52.828 -54.658  1.00  0.00     0.030 A 
BRANCH   6  11
HETATM   11  C   UNL     1     -41.342  56.066 -52.977  1.00  0.00     0.141 A 
HETATM   12  N   UNL     1     -40.922  57.134 -53.627  1.00  0.00    -0.228 NA
HETATM   13  C   UNL     1     -41.600  58.198 -53.084  1.00  0.00     0.086 A 
HETATM   14  C   UNL     1     -42.468  57.776 -52.086  1.00  0.00     0.062 A 
HETATM   15  C   UNL     1     -41.529  59.563 -53.399  1.00  0.00     0.034 A 
HETATM   16  N   UNL     1     -42.307  56.417 -52.059  1.00  0.00    -0.338 N 
HETATM   17  C   UNL     1     -43.283  58.644 -51.358  1.00  0.00     0.032 A 
HETATM   18  H   UNL     1     -42.816  55.765 -51.478  1.00  0.00     0.167 HD
HETATM   19  C   UNL     1     -43.195  60.003 -51.681  1.00  0.00     0.002 A 
HETATM   20  C   UNL     1     -42.337  60.458 -52.685  1.00  0.00     0.002 A 
ENDBRANCH   6  11
ENDBRANCH   1   5
BRANCH   2  21
HETATM   21  C   UNL     1     -42.909  55.804 -57.162  1.00  0.00     0.034 A 
HETATM   22  C   UNL     1     -43.042  57.144 -56.780  1.00  0.00     0.047 A 
HETATM   23  C   UNL     1     -43.280  58.147 -57.733  1.00  0.00     0.046 A 
HETATM   24  C   UNL     1     -43.381  57.734 -59.075  1.00  0.00     0.030 A 
HETATM   25  C   UNL     1     -43.254  56.389 -59.452  1.00  0.00     0.003 A 
HETATM   26  C   UNL     1     -43.017  55.413 -58.493  1.00  0.00     0.017 A 
BRANCH  23  27
HETATM   27  N   UNL     1     -43.424  59.522 -57.352  1.00  0.00    -0.252 N 
HETATM   28  C   UNL     1     -42.372  60.399 -57.182  1.00  0.00     0.231 C 
HETATM   29  O   UNL     1     -41.183  60.243 -57.422  1.00  0.00    -0.273 OA
HETATM   30  C   UNL     1     -42.894  61.686 -56.619  1.00  0.00     0.113 C 
HETATM   31  C   UNL     1     -44.375  61.611 -56.869  1.00  0.00     0.113 C 
HETATM   32  C   UNL     1     -44.627  60.154 -57.118  1.00  0.00     0.231 C 
HETATM   33  O   UNL     1     -45.761  59.695 -57.112  1.00  0.00    -0.273 OA
ENDBRANCH  23  27
ENDBRANCH   2  21
TORSDOF 4
ENDMDL
MODEL 2
REMARK VINA RESULT:      -8.5      0.040      1.363
REMARK  4 active torsions:
REMARK  status: ('A' for Active; 'I' for Inactive)
REMARK    1  A    between atoms: C_3  and  C_4 
REMARK    2  A    between atoms: C_14  and  N_15 
REMARK       I    between atoms: N_15  and  C_16 
REMARK    3  A    between atoms: C_16  and  C_17 
REMARK    4  A    between atoms: C_19  and  N_20 
ROOT
HETATM    1  N   UNL     1     -41.362  54.821 -55.621  1.00  0.00    -0.322 N 
HETATM    2  C   UNL     1     -42.655  54.798 -56.096  1.00  0.00     0.256 C 
HETATM    3  O   UNL     1     -43.567  54.046 -55.785  1.00  0.00    -0.267 OA
HETATM    4  H   UNL     1     -40.732  55.495 -56.044  1.00  0.00     0.169 HD
ENDROOT
BRANCH   1   5
HETATM    5  C   UNL     1     -40.843  54.098 -54.515  1.00  0.00     0.049 A 
HETATM    6  C   UNL     1     -40.927  54.655 -53.217  1.00  0.00     0.037 A 
HETATM    7  C   UNL     1     -40.552  53.880 -52.106  1.00  0.00     0.017 A 
HETATM    8  C   UNL     1     -40.056  52.590 -52.271  1.00  0.00     0.001 A 
HETATM    9  C   UNL     1     -39.925  52.060 -53.550  1.00  0.00     0.002 A 
HETATM   10  C   UNL     1     -40.317  52.808 -54.664  1.00  0.00     0.030 A 
BRANCH   6  11
HETATM   11  C   UNL     1     -41.319  56.044 -52.972  1.00  0.00     0.141 A 
HETATM   12  N   UNL     1     -40.901  57.113 -53.623  1.00  0.00    -0.228 NA
HETATM   13  C   UNL     1     -41.575  58.177 -53.073  1.00  0.00     0.086 A 
HETATM   14  C   UNL     1     -42.438  57.753 -52.071  1.00  0.00     0.062 A 
HETATM   15  C   UNL     1     -41.505  59.542 -53.386  1.00  0.00     0.034 A 
HETATM   16  N   UNL     1     -42.278  56.394 -52.047  1.00  0.00    -0.338 N 
HETATM   17  C   UNL     1     -43.247  58.621 -51.336  1.00  0.00     0.032 A 
HETATM   18  H   UNL     1     -42.784  55.742 -51.465  1.00  0.00     0.167 HD
HETATM   19  C   UNL     1     -43.160  59.981 -51.658  1.00  0.00     0.002 A 
HETATM   20  C   UNL     1     -42.308  60.436 -52.666  1.00  0.00     0.002 A 
ENDBRANCH   6  11
ENDBRANCH   1   5
BRANCH   2  21
HETATM   21  C   UNL     1     -42.906  55.809 -57.138  1.00  0.00     0.034 A 
HETATM   22  C   UNL     1     -43.045  57.150 -56.759  1.00  0.00     0.047 A 
HETATM   23  C   UNL     1     -43.281  58.150 -57.715  1.00  0.00     0.046 A 
HETATM   24  C   UNL     1     -43.374  57.735 -59.057  1.00  0.00     0.030 A 
HETATM   25  C   UNL     1     -43.240  56.389 -59.432  1.00  0.00     0.003 A 
HETATM   26  C   UNL     1     -43.007  55.416 -58.469  1.00  0.00     0.017 A 
BRANCH  23  27
HETATM   27  N   UNL     1     -43.430  59.526 -57.337  1.00  0.00    -0.252 N 
HETATM   28  C   UNL     1     -44.640  60.142 -57.094  1.00  0.00     0.231 C 
HETATM   29  O   UNL     1     -45.761  59.657 -57.029  1.00  0.00    -0.273 OA
HETATM   30  C   UNL     1     -44.411  61.610 -56.899  1.00  0.00     0.113 C 
HETATM   31  C   UNL     1     -42.932  61.710 -56.644  1.00  0.00     0.113 C 
HETATM   32  C   UNL     1     -42.387  60.411 -57.155  1.00  0.00     0.231 C 
HETATM   33  O   UNL     1     -41.188  60.250 -57.334  1.00  0.00    -0.273 OA
ENDBRANCH  23  27
ENDBRANCH   2  21
TORSDOF 4
ENDMDL
MODEL 3
REMARK VINA RESULT:      -8.5      2.012      5.276
REMARK  4 active torsions:
REMARK  status: ('A' for Active; 'I' for Inactive)
REMARK    1  A    between atoms: C_3  and  C_4 
REMARK    2  A    between atoms: C_14  and  N_15 
REMARK       I    between atoms: N_15  and  C_16 
REMARK    3  A    between atoms: C_16  and  C_17 
REMARK    4  A    between atoms: C_19  and  N_20 
ROOT
HETATM    1  N   UNL     1     -42.208  58.972 -54.348  1.00  0.00    -0.322 N 
HETATM    2  C   UNL     1     -43.382  58.684 -55.011  1.00  0.00     0.256 C 
HETATM    3  O   UNL     1     -44.466  58.376 -54.539  1.00  0.00    -0.267 OA
HETATM    4  H   UNL     1     -41.392  59.157 -54.923  1.00  0.00     0.169 HD
ENDROOT
BRANCH   1   5
HETATM    5  C   UNL     1     -42.039  59.166 -52.952  1.00  0.00     0.049 A 
HETATM    6  C   UNL     1     -41.435  58.149 -52.175  1.00  0.00     0.037 A 
HETATM    7  C   UNL     1     -41.131  58.398 -50.826  1.00  0.00     0.017 A 
HETATM    8  C   UNL     1     -41.458  59.614 -50.233  1.00  0.00     0.001 A 
HETATM    9  C   UNL     1     -42.097  60.596 -50.982  1.00  0.00     0.002 A 
HETATM   10  C   UNL     1     -42.385  60.374 -52.333  1.00  0.00     0.030 A 
BRANCH   6  11
HETATM   11  C   UNL     1     -41.176  56.803 -52.691  1.00  0.00     0.141 A 
HETATM   12  N   UNL     1     -40.795  56.481 -53.912  1.00  0.00    -0.228 NA
HETATM   13  C   UNL     1     -40.635  55.117 -53.909  1.00  0.00     0.086 A 
HETATM   14  C   UNL     1     -40.910  54.587 -52.655  1.00  0.00     0.062 A 
HETATM   15  C   UNL     1     -40.248  54.256 -54.947  1.00  0.00     0.034 A 
HETATM   16  N   UNL     1     -41.222  55.681 -51.894  1.00  0.00    -0.338 N 
HETATM   17  C   UNL     1     -40.833  53.225 -52.362  1.00  0.00     0.032 A 
HETATM   18  H   UNL     1     -41.437  55.682 -50.906  1.00  0.00     0.167 HD
HETATM   19  C   UNL     1     -40.450  52.380 -53.411  1.00  0.00     0.002 A 
HETATM   20  C   UNL     1     -40.159  52.883 -54.681  1.00  0.00     0.002 A 
ENDBRANCH   6  11
ENDBRANCH   1   5
BRANCH   2  21
HETATM   21  C   UNL     1     -43.244  58.734 -56.477  1.00  0.00     0.034 A 
HETATM   22  C   UNL     1     -44.075  57.925 -57.262  1.00  0.00     0.047 A 
HETATM   23  C   UNL     1     -43.984  57.940 -58.662  1.00  0.00     0.046 A 
HETATM   24  C   UNL     1     -43.022  58.799 -59.226  1.00  0.00     0.030 A 
HETATM   25  C   UNL     1     -42.188  59.604 -58.436  1.00  0.00     0.003 A 
HETATM   26  C   UNL     1     -42.294  59.574 -57.051  1.00  0.00     0.017 A 
BRANCH  23  27
HETATM   27  N   UNL     1     -44.826  57.111 -59.475  1.00  0.00    -0.252 N 
HETATM   28  C   UNL     1     -46.178  57.312 -59.658  1.00  0.00     0.231 C 
HETATM   29  O   UNL     1     -46.882  58.245 -59.295  1.00  0.00    -0.273 OA
HETATM   30  C   UNL     1     -46.747  56.156 -60.422  1.00  0.00     0.113 C 
HETATM   31  C   UNL     1     -45.536  55.486 -61.011  1.00  0.00     0.113 C 
HETATM   32  C   UNL     1     -44.397  56.013 -60.191  1.00  0.00     0.231 C 
HETATM   33  O   UNL     1     -43.290  55.492 -60.232  1.00  0.00    -0.273 OA
ENDBRANCH  23  27
ENDBRANCH   2  21
TORSDOF 4
ENDMDL
MODEL 4
REMARK VINA RESULT:      -8.3      2.603      5.590
REMARK  4 active torsions:
REMARK  status: ('A' for Active; 'I' for Inactive)
REMARK    1  A    between atoms: C_3  and  C_4 
REMARK    2  A    between atoms: C_14  and  N_15 
REMARK       I    between atoms: N_15  and  C_16 
REMARK    3  A    between atoms: C_16  and  C_17 
REMARK    4  A    between atoms: C_19  and  N_20 
ROOT
HETATM    1  N   UNL     1     -41.296  55.947 -52.311  1.00  0.00    -0.322 N 
HETATM    2  C   UNL     1     -42.180  56.334 -51.327  1.00  0.00     0.256 C 
HETATM    3  O   UNL     1     -43.000  55.653 -50.729  1.00  0.00    -0.267 OA
HETATM    4  H   UNL     1     -40.725  56.677 -52.725  1.00  0.00     0.169 HD
ENDROOT
BRANCH   1   5
HETATM    5  C   UNL     1     -41.000  54.620 -52.722  1.00  0.00     0.049 A 
HETATM    6  C   UNL     1     -41.277  54.226 -54.052  1.00  0.00     0.037 A 
HETATM    7  C   UNL     1     -40.850  52.966 -54.504  1.00  0.00     0.017 A 
HETATM    8  C   UNL     1     -40.199  52.083 -53.646  1.00  0.00     0.001 A 
HETATM    9  C   UNL     1     -39.971  52.451 -52.324  1.00  0.00     0.002 A 
HETATM   10  C   UNL     1     -40.368  53.711 -51.866  1.00  0.00     0.030 A 
BRANCH   6  11
HETATM   11  C   UNL     1     -42.066  55.044 -54.976  1.00  0.00     0.141 A 
HETATM   12  N   UNL     1     -42.981  55.940 -54.660  1.00  0.00    -0.228 NA
HETATM   13  C   UNL     1     -43.409  56.479 -55.849  1.00  0.00     0.086 A 
HETATM   14  C   UNL     1     -42.733  55.912 -56.922  1.00  0.00     0.062 A 
HETATM   15  C   UNL     1     -44.374  57.467 -56.091  1.00  0.00     0.034 A 
HETATM   16  N   UNL     1     -41.867  55.027 -56.339  1.00  0.00    -0.338 N 
HETATM   17  C   UNL     1     -42.968  56.266 -58.252  1.00  0.00     0.032 A 
HETATM   18  H   UNL     1     -41.179  54.460 -56.816  1.00  0.00     0.167 HD
HETATM   19  C   UNL     1     -43.938  57.250 -58.475  1.00  0.00     0.002 A 
HETATM   20  C   UNL     1     -44.629  57.844 -57.416  1.00  0.00     0.002 A 
ENDBRANCH   6  11
ENDBRANCH   1   5
BRANCH   2  21
HETATM   21  C   UNL     1     -42.108  57.774 -51.020  1.00  0.00     0.034 A 
HETATM   22  C   UNL     1     -43.217  58.580 -51.301  1.00  0.00     0.047 A 
HETATM   23  C   UNL     1     -43.198  59.956 -51.023  1.00  0.00     0.046 A 
HETATM   24  C   UNL     1     -42.016  60.473 -50.458  1.00  0.00     0.030 A 
HETATM   25  C   UNL     1     -40.905  59.661 -50.183  1.00  0.00     0.003 A 
HETATM   26  C   UNL     1     -40.945  58.302 -50.466  1.00  0.00     0.017 A 
BRANCH  23  27
HETATM   27  N   UNL     1     -44.326  60.793 -51.312  1.00  0.00    -0.252 N 
HETATM   28  C   UNL     1     -44.377  61.707 -52.345  1.00  0.00     0.231 C 
HETATM   29  O   UNL     1     -43.578  61.902 -53.251  1.00  0.00    -0.273 OA
HETATM   30  C   UNL     1     -45.635  62.511 -52.225  1.00  0.00     0.113 C 
HETATM   31  C   UNL     1     -46.487  61.705 -51.284  1.00  0.00     0.113 C 
HETATM   32  C   UNL     1     -45.512  60.789 -50.607  1.00  0.00     0.231 C 
HETATM   33  O   UNL     1     -45.819  60.165 -49.601  1.00  0.00    -0.273 OA
ENDBRANCH  23  27
ENDBRANCH   2  21
TORSDOF 4
ENDMDL
MODEL 5
REMARK VINA RESULT:      -8.1      2.003      4.810
REMARK  4 active torsions:
REMARK  status: ('A' for Active; 'I' for Inactive)
REMARK    1  A    between atoms: C_3  and  C_4 
REMARK    2  A    between atoms: C_14  and  N_15 
REMARK       I    between atoms: N_15  and  C_16 
REMARK    3  A    between atoms: C_16  and  C_17 
REMARK    4  A    between atoms: C_19  and  N_20 
ROOT
HETATM    1  N   UNL     1     -42.755  58.146 -54.047  1.00  0.00    -0.322 N 
HETATM    2  C   UNL     1     -42.358  58.665 -55.260  1.00  0.00     0.256 C 
HETATM    3  O   UNL     1     -41.651  59.638 -55.477  1.00  0.00    -0.267 OA
HETATM    4  H   UNL     1     -43.391  57.354 -54.075  1.00  0.00     0.169 HD
ENDROOT
BRANCH   1   5
HETATM    5  C   UNL     1     -42.275  58.509 -52.761  1.00  0.00     0.049 A 
HETATM    6  C   UNL     1     -41.385  57.646 -52.080  1.00  0.00     0.037 A 
HETATM    7  C   UNL     1     -40.792  58.070 -50.879  1.00  0.00     0.017 A 
HETATM    8  C   UNL     1     -41.105  59.309 -50.328  1.00  0.00     0.001 A 
HETATM    9  C   UNL     1     -42.018  60.138 -50.970  1.00  0.00     0.002 A 
HETATM   10  C   UNL     1     -42.598  59.742 -52.180  1.00  0.00     0.030 A 
BRANCH   6  11
HETATM   11  C   UNL     1     -41.104  56.280 -52.529  1.00  0.00     0.141 A 
HETATM   12  N   UNL     1     -40.888  55.880 -53.767  1.00  0.00    -0.228 NA
HETATM   13  C   UNL     1     -40.624  54.534 -53.688  1.00  0.00     0.086 A 
HETATM   14  C   UNL     1     -40.663  54.097 -52.370  1.00  0.00     0.062 A 
HETATM   15  C   UNL     1     -40.333  53.615 -54.706  1.00  0.00     0.034 A 
HETATM   16  N   UNL     1     -40.940  55.229 -51.653  1.00  0.00    -0.338 N 
HETATM   17  C   UNL     1     -40.436  52.773 -51.992  1.00  0.00     0.032 A 
HETATM   18  H   UNL     1     -41.002  55.301 -50.647  1.00  0.00     0.167 HD
HETATM   19  C   UNL     1     -40.153  51.868 -53.022  1.00  0.00     0.002 A 
HETATM   20  C   UNL     1     -40.099  52.279 -54.356  1.00  0.00     0.002 A 
ENDBRANCH   6  11
ENDBRANCH   1   5
BRANCH   2  21
HETATM   21  C   UNL     1     -42.916  57.933 -56.412  1.00  0.00     0.034 A 
HETATM   22  C   UNL     1     -43.860  58.572 -57.224  1.00  0.00     0.047 A 
HETATM   23  C   UNL     1     -44.417  57.919 -58.334  1.00  0.00     0.046 A 
HETATM   24  C   UNL     1     -43.983  56.602 -58.579  1.00  0.00     0.030 A 
HETATM   25  C   UNL     1     -43.041  55.964 -57.758  1.00  0.00     0.003 A 
HETATM   26  C   UNL     1     -42.502  56.629 -56.665  1.00  0.00     0.017 A 
BRANCH  23  27
HETATM   27  N   UNL     1     -45.389  58.562 -59.171  1.00  0.00    -0.252 N 
HETATM   28  C   UNL     1     -45.095  59.223 -60.345  1.00  0.00     0.231 C 
HETATM   29  O   UNL     1     -44.035  59.294 -60.953  1.00  0.00    -0.273 OA
HETATM   30  C   UNL     1     -46.329  59.909 -60.845  1.00  0.00     0.113 C 
HETATM   31  C   UNL     1     -47.441  59.245 -60.079  1.00  0.00     0.113 C 
HETATM   32  C   UNL     1     -46.746  58.595 -58.921  1.00  0.00     0.231 C 
HETATM   33  O   UNL     1     -47.372  58.174 -57.958  1.00  0.00    -0.273 OA
ENDBRANCH  23  27
ENDBRANCH   2  21
TORSDOF 4
ENDMDL
MODEL 6
REMARK VINA RESULT:      -7.8      1.691      2.346
REMARK  4 active torsions:
REMARK  status: ('A' for Active; 'I' for Inactive)
REMARK    1  A    between atoms: C_3  and  C_4 
REMARK    2  A    between atoms: C_14  and  N_15 
REMARK       I    between atoms: N_15  and  C_16 
REMARK    3  A    between atoms: C_16  and  C_17 
REMARK    4  A    between atoms: C_19  and  N_20 
ROOT
HETATM    1  N   UNL     1     -41.532  55.349 -53.104  1.00  0.00    -0.322 N 
HETATM    2  C   UNL     1     -42.688  54.970 -53.751  1.00  0.00     0.256 C 
HETATM    3  O   UNL     1     -43.517  54.142 -53.406  1.00  0.00    -0.267 OA
HETATM    4  H   UNL     1     -40.942  56.023 -53.582  1.00  0.00     0.169 HD
ENDROOT
BRANCH   1   5
HETATM    5  C   UNL     1     -41.136  55.002 -51.786  1.00  0.00     0.049 A 
HETATM    6  C   UNL     1     -41.463  55.862 -50.711  1.00  0.00     0.037 A 
HETATM    7  C   UNL     1     -41.206  55.450 -49.392  1.00  0.00     0.017 A 
HETATM    8  C   UNL     1     -40.590  54.228 -49.134  1.00  0.00     0.001 A 
HETATM    9  C   UNL     1     -40.222  53.405 -50.192  1.00  0.00     0.002 A 
HETATM   10  C   UNL     1     -40.494  53.788 -51.509  1.00  0.00     0.030 A 
BRANCH   6  11
HETATM   11  C   UNL     1     -41.996  57.212 -50.907  1.00  0.00     0.141 A 
HETATM   12  N   UNL     1     -43.102  57.544 -51.544  1.00  0.00    -0.228 NA
HETATM   13  C   UNL     1     -43.210  58.908 -51.426  1.00  0.00     0.086 A 
HETATM   14  C   UNL     1     -42.155  59.428 -50.687  1.00  0.00     0.062 A 
HETATM   15  C   UNL     1     -44.193  59.777 -51.921  1.00  0.00     0.034 A 
HETATM   16  N   UNL     1     -41.416  58.328 -50.345  1.00  0.00    -0.338 N 
HETATM   17  C   UNL     1     -42.006  60.788 -50.411  1.00  0.00     0.032 A 
HETATM   18  H   UNL     1     -40.589  58.319 -49.765  1.00  0.00     0.167 HD
HETATM   19  C   UNL     1     -42.992  61.641 -50.918  1.00  0.00     0.002 A 
HETATM   20  C   UNL     1     -44.070  61.148 -51.658  1.00  0.00     0.002 A 
ENDBRANCH   6  11
ENDBRANCH   1   5
BRANCH   2  21
HETATM   21  C   UNL     1     -42.881  55.659 -55.040  1.00  0.00     0.034 A 
HETATM   22  C   UNL     1     -43.179  57.026 -55.037  1.00  0.00     0.047 A 
HETATM   23  C   UNL     1     -43.369  57.727 -56.238  1.00  0.00     0.046 A 
HETATM   24  C   UNL     1     -43.248  56.987 -57.430  1.00  0.00     0.030 A 
HETATM   25  C   UNL     1     -42.955  55.615 -57.428  1.00  0.00     0.003 A 
HETATM   26  C   UNL     1     -42.771  54.941 -56.227  1.00  0.00     0.017 A 
BRANCH  23  27
HETATM   27  N   UNL     1     -43.680  59.127 -56.247  1.00  0.00    -0.252 N 
HETATM   28  C   UNL     1     -42.766  60.132 -56.005  1.00  0.00     0.231 C 
HETATM   29  O   UNL     1     -41.553  60.063 -55.863  1.00  0.00    -0.273 OA
HETATM   30  C   UNL     1     -43.489  61.442 -55.926  1.00  0.00     0.113 C 
HETATM   31  C   UNL     1     -44.826  61.151 -56.550  1.00  0.00     0.113 C 
HETATM   32  C   UNL     1     -44.927  59.656 -56.509  1.00  0.00     0.231 C 
HETATM   33  O   UNL     1     -45.990  59.085 -56.709  1.00  0.00    -0.273 OA
ENDBRANCH  23  27
ENDBRANCH   2  21
TORSDOF 4
ENDMDL
MODEL 7
REMARK VINA RESULT:      -7.8      1.879      5.169
REMARK  4 active torsions:
REMARK  status: ('A' for Active; 'I' for Inactive)
REMARK    1  A    between atoms: C_3  and  C_4 
REMARK    2  A    between atoms: C_14  and  N_15 
REMARK       I    between atoms: N_15  and  C_16 
REMARK    3  A    between atoms: C_16  and  C_17 
REMARK    4  A    between atoms: C_19  and  N_20 
ROOT
HETATM    1  N   UNL     1     -42.924  59.177 -53.525  1.00  0.00    -0.322 N 
HETATM    2  C   UNL     1     -44.256  58.928 -53.775  1.00  0.00     0.256 C 
HETATM    3  O   UNL     1     -45.128  58.589 -52.989  1.00  0.00    -0.267 OA
HETATM    4  H   UNL     1     -42.343  59.400 -54.327  1.00  0.00     0.169 HD
ENDROOT
BRANCH   1   5
HETATM    5  C   UNL     1     -42.297  59.285 -52.256  1.00  0.00     0.049 A 
HETATM    6  C   UNL     1     -41.387  58.285 -51.841  1.00  0.00     0.037 A 
HETATM    7  C   UNL     1     -40.654  58.464 -50.656  1.00  0.00     0.017 A 
HETATM    8  C   UNL     1     -40.846  59.591 -49.862  1.00  0.00     0.001 A 
HETATM    9  C   UNL     1     -41.777  60.551 -50.243  1.00  0.00     0.002 A 
HETATM   10  C   UNL     1     -42.497  60.400 -51.432  1.00  0.00     0.030 A 
BRANCH   6  11
HETATM   11  C   UNL     1     -41.222  57.016 -52.554  1.00  0.00     0.141 A 
HETATM   12  N   UNL     1     -40.780  56.848 -53.785  1.00  0.00    -0.228 NA
HETATM   13  C   UNL     1     -40.755  55.491 -53.996  1.00  0.00     0.086 A 
HETATM   14  C   UNL     1     -41.178  54.805 -52.865  1.00  0.00     0.062 A 
HETATM   15  C   UNL     1     -40.375  54.767 -55.135  1.00  0.00     0.034 A 
HETATM   16  N   UNL     1     -41.440  55.794 -51.955  1.00  0.00    -0.338 N 
HETATM   17  C   UNL     1     -41.258  53.413 -52.795  1.00  0.00     0.032 A 
HETATM   18  H   UNL     1     -41.730  55.664 -50.996  1.00  0.00     0.167 HD
HETATM   19  C   UNL     1     -40.880  52.706 -53.942  1.00  0.00     0.002 A 
HETATM   20  C   UNL     1     -40.443  53.368 -55.093  1.00  0.00     0.002 A 
ENDBRANCH   6  11
ENDBRANCH   1   5
BRANCH   2  21
HETATM   21  C   UNL     1     -44.613  59.069 -55.198  1.00  0.00     0.034 A 
HETATM   22  C   UNL     1     -43.815  58.438 -56.161  1.00  0.00     0.047 A 
HETATM   23  C   UNL     1     -44.116  58.540 -57.528  1.00  0.00     0.046 A 
HETATM   24  C   UNL     1     -45.247  59.304 -57.873  1.00  0.00     0.030 A 
HETATM   25  C   UNL     1     -46.040  59.940 -56.905  1.00  0.00     0.003 A 
HETATM   26  C   UNL     1     -45.724  59.826 -55.557  1.00  0.00     0.017 A 
BRANCH  23  27
HETATM   27  N   UNL     1     -43.303  57.903 -58.523  1.00  0.00    -0.252 N 
HETATM   28  C   UNL     1     -43.562  56.662 -59.066  1.00  0.00     0.231 C 
HETATM   29  O   UNL     1     -44.538  55.938 -58.922  1.00  0.00    -0.273 OA
HETATM   30  C   UNL     1     -42.410  56.257 -59.934  1.00  0.00     0.113 C 
HETATM   31  C   UNL     1     -41.665  57.544 -60.164  1.00  0.00     0.113 C 
HETATM   32  C   UNL     1     -42.163  58.449 -59.077  1.00  0.00     0.231 C 
HETATM   33  O   UNL     1     -41.590  59.496 -58.809  1.00  0.00    -0.273 OA
ENDBRANCH  23  27
ENDBRANCH   2  21
TORSDOF 4
ENDMDL
MODEL 8
REMARK VINA RESULT:      -7.8      3.090      6.078
REMARK  4 active torsions:
REMARK  status: ('A' for Active; 'I' for Inactive)
REMARK    1  A    between atoms: C_3  and  C_4 
REMARK    2  A    between atoms: C_14  and  N_15 
REMARK       I    between atoms: N_15  and  C_16 
REMARK    3  A    between atoms: C_16  and  C_17 
REMARK    4  A    between atoms: C_19  and  N_20 
ROOT
HETATM    1  N   UNL     1     -42.809  56.225 -53.122  1.00  0.00    -0.322 N 
HETATM    2  C   UNL     1     -42.374  57.455 -52.679  1.00  0.00     0.256 C 
HETATM    3  O   UNL     1     -41.253  57.782 -52.322  1.00  0.00    -0.267 OA
HETATM    4  H   UNL     1     -43.800  56.137 -53.326  1.00  0.00     0.169 HD
ENDROOT
BRANCH   1   5
HETATM    5  C   UNL     1     -42.007  55.100 -53.450  1.00  0.00     0.049 A 
HETATM    6  C   UNL     1     -41.609  54.896 -54.792  1.00  0.00     0.037 A 
HETATM    7  C   UNL     1     -40.695  53.872 -55.095  1.00  0.00     0.017 A 
HETATM    8  C   UNL     1     -40.213  53.028 -54.098  1.00  0.00     0.001 A 
HETATM    9  C   UNL     1     -40.643  53.196 -52.786  1.00  0.00     0.002 A 
HETATM   10  C   UNL     1     -41.533  54.226 -52.464  1.00  0.00     0.030 A 
BRANCH   6  11
HETATM   11  C   UNL     1     -42.167  55.658 -55.911  1.00  0.00     0.141 A 
HETATM   12  N   UNL     1     -42.084  56.960 -56.104  1.00  0.00    -0.228 NA
HETATM   13  C   UNL     1     -42.711  57.205 -57.302  1.00  0.00     0.086 A 
HETATM   14  C   UNL     1     -43.179  56.026 -57.867  1.00  0.00     0.062 A 
HETATM   15  C   UNL     1     -42.915  58.417 -57.977  1.00  0.00     0.034 A 
HETATM   16  N   UNL     1     -42.795  55.057 -56.980  1.00  0.00    -0.338 N 
HETATM   17  C   UNL     1     -43.860  55.974 -59.084  1.00  0.00     0.032 A 
HETATM   18  H   UNL     1     -42.929  54.061 -57.086  1.00  0.00     0.167 HD
HETATM   19  C   UNL     1     -44.060  57.194 -59.742  1.00  0.00     0.002 A 
HETATM   20  C   UNL     1     -43.594  58.395 -59.202  1.00  0.00     0.002 A 
ENDBRANCH   6  11
ENDBRANCH   1   5
BRANCH   2  21
HETATM   21  C   UNL     1     -43.451  58.459 -52.614  1.00  0.00     0.034 A 
HETATM   22  C   UNL     1     -43.605  59.210 -51.443  1.00  0.00     0.047 A 
HETATM   23  C   UNL     1     -44.613  60.181 -51.334  1.00  0.00     0.046 A 
HETATM   24  C   UNL     1     -45.451  60.352 -52.452  1.00  0.00     0.030 A 
HETATM   25  C   UNL     1     -45.297  59.593 -53.622  1.00  0.00     0.003 A 
HETATM   26  C   UNL     1     -44.293  58.638 -53.708  1.00  0.00     0.017 A 
BRANCH  23  27
HETATM   27  N   UNL     1     -44.783  60.952 -50.136  1.00  0.00    -0.252 N 
HETATM   28  C   UNL     1     -45.518  60.543 -49.043  1.00  0.00     0.231 C 
HETATM   29  O   UNL     1     -46.044  59.462 -48.819  1.00  0.00    -0.273 OA
HETATM   30  C   UNL     1     -45.611  61.675 -48.065  1.00  0.00     0.113 C 
HETATM   31  C   UNL     1     -44.526  62.619 -48.507  1.00  0.00     0.113 C 
HETATM   32  C   UNL     1     -44.227  62.194 -49.913  1.00  0.00     0.231 C 
HETATM   33  O   UNL     1     -43.569  62.901 -50.664  1.00  0.00    -0.273 OA
ENDBRANCH  23  27
ENDBRANCH   2  21
TORSDOF 4
ENDMDL
MODEL 9
REMARK VINA RESULT:      -7.8      2.875      7.825
REMARK  4 active torsions:
REMARK  status: ('A' for Active; 'I' for Inactive)
REMARK    1  A    between atoms: C_3  and  C_4 
REMARK    2  A    between atoms: C_14  and  N_15 
REMARK       I    between atoms: N_15  and  C_16 
REMARK    3  A    between atoms: C_16  and  C_17 
REMARK    4  A    between atoms: C_19  and  N_20 
ROOT
HETATM    1  N   UNL     1     -41.561  59.918 -57.970  1.00  0.00    -0.322 N 
HETATM    2  C   UNL     1     -42.491  59.979 -56.955  1.00  0.00     0.256 C 
HETATM    3  O   UNL     1     -43.433  60.748 -56.830  1.00  0.00    -0.267 OA
HETATM    4  H   UNL     1     -40.817  59.235 -57.868  1.00  0.00     0.169 HD
ENDROOT
BRANCH   1   5
HETATM    5  C   UNL     1     -41.598  60.613 -59.208  1.00  0.00     0.049 A 
HETATM    6  C   UNL     1     -42.392  60.112 -60.265  1.00  0.00     0.037 A 
HETATM    7  C   UNL     1     -42.548  60.875 -61.435  1.00  0.00     0.017 A 
HETATM    8  C   UNL     1     -41.894  62.094 -61.584  1.00  0.00     0.001 A 
HETATM    9  C   UNL     1     -41.072  62.564 -60.566  1.00  0.00     0.002 A 
HETATM   10  C   UNL     1     -40.926  61.830 -59.385  1.00  0.00     0.030 A 
BRANCH   6  11
HETATM   11  C   UNL     1     -43.009  58.784 -60.236  1.00  0.00     0.141 A 
HETATM   12  N   UNL     1     -42.450  57.658 -59.837  1.00  0.00    -0.228 NA
HETATM   13  C   UNL     1     -43.423  56.694 -59.945  1.00  0.00     0.086 A 
HETATM   14  C   UNL     1     -44.613  57.241 -60.408  1.00  0.00     0.062 A 
HETATM   15  C   UNL     1     -43.364  55.323 -59.658  1.00  0.00     0.034 A 
HETATM   16  N   UNL     1     -44.332  58.572 -60.557  1.00  0.00    -0.338 N 
HETATM   17  C   UNL     1     -45.772  56.492 -60.618  1.00  0.00     0.032 A 
HETATM   18  H   UNL     1     -44.981  59.293 -60.838  1.00  0.00     0.167 HD
HETATM   19  C   UNL     1     -45.694  55.124 -60.332  1.00  0.00     0.002 A 
HETATM   20  C   UNL     1     -44.513  54.547 -59.858  1.00  0.00     0.002 A 
ENDBRANCH   6  11
ENDBRANCH   1   5
BRANCH   2  21
HETATM   21  C   UNL     1     -42.250  58.988 -55.891  1.00  0.00     0.034 A 
HETATM   22  C   UNL     1     -41.799  59.434 -54.643  1.00  0.00     0.047 A 
HETATM   23  C   UNL     1     -41.558  58.529 -53.597  1.00  0.00     0.046 A 
HETATM   24  C   UNL     1     -41.790  57.168 -53.870  1.00  0.00     0.030 A 
HETATM   25  C   UNL     1     -42.237  56.725 -55.124  1.00  0.00     0.003 A 
HETATM   26  C   UNL     1     -42.469  57.638 -56.146  1.00  0.00     0.017 A 
BRANCH  23  27
HETATM   27  N   UNL     1     -41.090  58.974 -52.316  1.00  0.00    -0.252 N 
HETATM   28  C   UNL     1     -39.766  59.207 -52.006  1.00  0.00     0.231 C 
HETATM   29  O   UNL     1     -38.785  59.207 -52.736  1.00  0.00    -0.273 OA
HETATM   30  C   UNL     1     -39.649  59.488 -50.539  1.00  0.00     0.113 C 
HETATM   31  C   UNL     1     -41.060  59.799 -50.121  1.00  0.00     0.113 C 
HETATM   32  C   UNL     1     -41.898  59.240 -51.230  1.00  0.00     0.231 C 
HETATM   33  O   UNL     1     -43.107  59.095 -51.103  1.00  0.00    -0.273 OA
ENDBRANCH  23  27
ENDBRANCH   2  21
TORSDOF 4
ENDMDL
MODEL 10
REMARK VINA RESULT:      -7.7      2.123      3.174
REMARK  4 active torsions:
REMARK  status: ('A' for Active; 'I' for Inactive)
REMARK    1  A    between atoms: C_3  and  C_4 
REMARK    2  A    between atoms: C_14  and  N_15 
REMARK       I    between atoms: N_15  and  C_16 
REMARK    3  A    between atoms: C_16  and  C_17 
REMARK    4  A    between atoms: C_19  and  N_20 
ROOT
HETATM    1  N   UNL     1     -41.415  55.620 -53.654  1.00  0.00    -0.322 N 
HETATM    2  C   UNL     1     -42.625  55.529 -54.305  1.00  0.00     0.256 C 
HETATM    3  O   UNL     1     -43.528  54.726 -54.125  1.00  0.00    -0.267 OA
HETATM    4  H   UNL     1     -40.770  56.331 -53.984  1.00  0.00     0.169 HD
ENDROOT
BRANCH   1   5
HETATM    5  C   UNL     1     -41.016  54.917 -52.486  1.00  0.00     0.049 A 
HETATM    6  C   UNL     1     -41.266  55.482 -51.214  1.00  0.00     0.037 A 
HETATM    7  C   UNL     1     -41.009  54.724 -50.058  1.00  0.00     0.017 A 
HETATM    8  C   UNL     1     -40.469  53.444 -50.149  1.00  0.00     0.001 A 
HETATM    9  C   UNL     1     -40.176  52.908 -51.398  1.00  0.00     0.002 A 
HETATM   10  C   UNL     1     -40.448  53.638 -52.559  1.00  0.00     0.030 A 
BRANCH   6  11
HETATM   11  C   UNL     1     -41.713  56.864 -51.031  1.00  0.00     0.141 A 
HETATM   12  N   UNL     1     -40.959  57.913 -50.760  1.00  0.00    -0.228 NA
HETATM   13  C   UNL     1     -41.810  58.991 -50.729  1.00  0.00     0.086 A 
HETATM   14  C   UNL     1     -43.116  58.601 -51.000  1.00  0.00     0.062 A 
HETATM   15  C   UNL     1     -41.537  60.343 -50.479  1.00  0.00     0.034 A 
HETATM   16  N   UNL     1     -43.021  57.253 -51.218  1.00  0.00    -0.338 N 
HETATM   17  C   UNL     1     -44.192  59.488 -51.031  1.00  0.00     0.032 A 
HETATM   18  H   UNL     1     -43.774  56.635 -51.486  1.00  0.00     0.167 HD
HETATM   19  C   UNL     1     -43.902  60.833 -50.774  1.00  0.00     0.002 A 
HETATM   20  C   UNL     1     -42.599  61.257 -50.506  1.00  0.00     0.002 A 
ENDBRANCH   6  11
ENDBRANCH   1   5
BRANCH   2  21
HETATM   21  C   UNL     1     -42.784  56.534 -55.372  1.00  0.00     0.034 A 
HETATM   22  C   UNL     1     -43.505  56.190 -56.521  1.00  0.00     0.047 A 
HETATM   23  C   UNL     1     -43.687  57.114 -57.563  1.00  0.00     0.046 A 
HETATM   24  C   UNL     1     -43.108  58.386 -57.391  1.00  0.00     0.030 A 
HETATM   25  C   UNL     1     -42.381  58.723 -56.239  1.00  0.00     0.003 A 
HETATM   26  C   UNL     1     -42.214  57.794 -55.221  1.00  0.00     0.017 A 
BRANCH  23  27
HETATM   27  N   UNL     1     -44.419  56.771 -58.748  1.00  0.00    -0.252 N 
HETATM   28  C   UNL     1     -43.889  56.091 -59.824  1.00  0.00     0.231 C 
HETATM   29  O   UNL     1     -42.793  55.559 -59.946  1.00  0.00    -0.273 OA
HETATM   30  C   UNL     1     -44.894  56.071 -60.935  1.00  0.00     0.113 C 
HETATM   31  C   UNL     1     -46.185  56.436 -60.255  1.00  0.00     0.113 C 
HETATM   32  C   UNL     1     -45.750  57.063 -58.964  1.00  0.00     0.231 C 
HETATM   33  O   UNL     1     -46.531  57.701 -58.272  1.00  0.00    -0.273 OA
ENDBRANCH  23  27
ENDBRANCH   2  21
TORSDOF 4
ENDMDL
