MODEL 1
REMARK VINA RESULT:      -8.5      0.000      0.000
REMARK  8 active torsions:
REMARK  status: ('A' for Active; 'I' for Inactive)
REMARK    1  A    between atoms: C_2  and  O_3 
REMARK    2  A    between atoms: O_3  and  C_4 
REMARK    3  A    between atoms: C_4  and  C_5 
REMARK    4  A    between atoms: C_6  and  C_8 
REMARK    5  A    between atoms: C_6  and  O_7 
REMARK    6  A    between atoms: C_16  and  C_17 
REMARK    7  A    between atoms: C_18  and  C_19 
REMARK    8  A    between atoms: N_26  and  C_27 
ROOT
HETATM    1  C   UNL     1     -43.529  58.518 -54.159  1.00  0.00     0.177 C 
HETATM    2  C   UNL     1     -42.879  58.917 -52.825  1.00  0.00     0.250 C 
HETATM    3  N   UNL     1     -43.734  58.606 -51.700  1.00  0.00    -0.303 N 
HETATM    4  C   UNL     1     -44.509  57.501 -51.644  1.00  0.00     0.319 C 
HETATM    5  O   UNL     1     -44.989  57.111 -50.589  1.00  0.00    -0.247 OA
HETATM    6  N   UNL     1     -44.777  56.880 -52.813  1.00  0.00    -0.333 N 
HETATM    7  C   UNL     1     -44.138  57.118 -54.097  1.00  0.00     0.142 C 
HETATM    8  H   UNL     1     -43.468  58.963 -50.787  1.00  0.00     0.167 HD
HETATM    9  H   UNL     1     -45.370  56.063 -52.715  1.00  0.00     0.165 HD
ENDROOT
BRANCH   7  10
HETATM   10  C   UNL     1     -43.199  55.973 -54.386  1.00  0.00     0.015 A 
HETATM   11  C   UNL     1     -42.574  55.607 -55.621  1.00  0.00     0.097 A 
HETATM   12  N   UNL     1     -41.745  54.567 -55.455  1.00  0.00    -0.167 NA
HETATM   13  N   UNL     1     -41.826  54.227 -54.151  1.00  0.00    -0.244 N 
HETATM   14  C   UNL     1     -42.745  55.011 -53.497  1.00  0.00     0.130 A 
BRANCH  11  15
HETATM   15  C   UNL     1     -42.697  56.225 -56.939  1.00  0.00    -0.005 A 
HETATM   16  C   UNL     1     -43.284  55.505 -57.991  1.00  0.00     0.014 A 
HETATM   17  C   UNL     1     -43.397  56.070 -59.263  1.00  0.00     0.001 A 
HETATM   18  C   UNL     1     -42.927  57.360 -59.495  1.00  0.00     0.000 A 
HETATM   19  C   UNL     1     -42.353  58.089 -58.454  1.00  0.00     0.001 A 
HETATM   20  C   UNL     1     -42.243  57.528 -57.178  1.00  0.00     0.014 A 
ENDBRANCH  11  15
BRANCH  13  21
HETATM   21  C   UNL     1     -41.011  53.196 -53.605  1.00  0.00     0.058 A 
HETATM   22  C   UNL     1     -40.611  53.272 -52.262  1.00  0.00     0.031 A 
HETATM   23  C   UNL     1     -39.834  52.257 -51.700  1.00  0.00     0.002 A 
HETATM   24  C   UNL     1     -39.448  51.163 -52.472  1.00  0.00     0.000 A 
HETATM   25  C   UNL     1     -39.837  51.082 -53.807  1.00  0.00     0.002 A 
HETATM   26  C   UNL     1     -40.617  52.093 -54.377  1.00  0.00     0.031 A 
ENDBRANCH  13  21
ENDBRANCH   7  10
BRANCH   1  27
HETATM   27  C   UNL     1     -44.639  59.441 -54.628  1.00  0.00     0.270 C 
HETATM   28  O   UNL     1     -45.520  59.846 -53.878  1.00  0.00    -0.265 OA
BRANCH  27  29
HETATM   29  O   UNL     1     -44.497  59.832 -55.922  1.00  0.00    -0.321 OA
BRANCH  29  30
HETATM   30  C   UNL     1     -45.661  59.753 -56.760  1.00  0.00     0.174 C 
HETATM   31  C   UNL     1     -45.947  58.300 -57.087  1.00  0.00     0.034 C 
ENDBRANCH  29  30
ENDBRANCH  27  29
ENDBRANCH   1  27
BRANCH   2  32
HETATM   32  C   UNL     1     -41.452  58.273 -52.670  1.00  0.00     0.439 C 
HETATM   33  F   UNL     1     -40.940  57.887 -53.861  1.00  0.00    -0.166 F 
HETATM   34  F   UNL     1     -40.583  59.164 -52.125  1.00  0.00    -0.166 F 
HETATM   35  F   UNL     1     -41.449  57.201 -51.852  1.00  0.00    -0.166 F 
ENDBRANCH   2  32
BRANCH   2  36
HETATM   36  O   UNL     1     -42.737  60.344 -52.765  1.00  0.00    -0.363 OA
HETATM   37  H   UNL     1     -42.082  60.561 -53.456  1.00  0.00     0.213 HD
ENDBRANCH   2  36
TORSDOF 8
ENDMDL
MODEL 2
REMARK VINA RESULT:      -8.2      2.218      6.034
REMARK  8 active torsions:
REMARK  status: ('A' for Active; 'I' for Inactive)
REMARK    1  A    between atoms: C_2  and  O_3 
REMARK    2  A    between atoms: O_3  and  C_4 
REMARK    3  A    between atoms: C_4  and  C_5 
REMARK    4  A    between atoms: C_6  and  C_8 
REMARK    5  A    between atoms: C_6  and  O_7 
REMARK    6  A    between atoms: C_16  and  C_17 
REMARK    7  A    between atoms: C_18  and  C_19 
REMARK    8  A    between atoms: N_26  and  C_27 
ROOT
HETATM    1  C   UNL     1     -41.977  57.239 -52.175  1.00  0.00     0.177 C 
HETATM    2  C   UNL     1     -43.212  58.140 -52.004  1.00  0.00     0.250 C 
HETATM    3  N   UNL     1     -42.911  59.523 -52.305  1.00  0.00    -0.303 N 
HETATM    4  C   UNL     1     -42.069  59.898 -53.293  1.00  0.00     0.319 C 
HETATM    5  O   UNL     1     -42.054  61.045 -53.717  1.00  0.00    -0.247 OA
HETATM    6  N   UNL     1     -41.208  58.964 -53.753  1.00  0.00    -0.333 N 
HETATM    7  C   UNL     1     -41.236  57.537 -53.478  1.00  0.00     0.142 C 
HETATM    8  H   UNL     1     -43.611  60.222 -52.081  1.00  0.00     0.167 HD
HETATM    9  H   UNL     1     -40.593  59.301 -54.486  1.00  0.00     0.165 HD
ENDROOT
BRANCH   7  10
HETATM   10  C   UNL     1     -41.740  56.820 -54.706  1.00  0.00     0.015 A 
HETATM   11  C   UNL     1     -41.719  55.422 -55.009  1.00  0.00     0.097 A 
HETATM   12  N   UNL     1     -42.332  55.169 -56.173  1.00  0.00    -0.167 NA
HETATM   13  N   UNL     1     -42.735  56.365 -56.653  1.00  0.00    -0.244 N 
HETATM   14  C   UNL     1     -42.332  57.384 -55.826  1.00  0.00     0.130 A 
BRANCH  11  15
HETATM   15  C   UNL     1     -41.181  54.313 -54.224  1.00  0.00    -0.005 A 
HETATM   16  C   UNL     1     -40.207  53.474 -54.787  1.00  0.00     0.014 A 
HETATM   17  C   UNL     1     -39.690  52.399 -54.061  1.00  0.00     0.001 A 
HETATM   18  C   UNL     1     -40.139  52.154 -52.766  1.00  0.00     0.000 A 
HETATM   19  C   UNL     1     -41.098  52.988 -52.193  1.00  0.00     0.001 A 
HETATM   20  C   UNL     1     -41.613  54.069 -52.915  1.00  0.00     0.014 A 
ENDBRANCH  11  15
BRANCH  13  21
HETATM   21  C   UNL     1     -43.495  56.461 -57.853  1.00  0.00     0.058 A 
HETATM   22  C   UNL     1     -44.268  57.609 -58.088  1.00  0.00     0.031 A 
HETATM   23  C   UNL     1     -44.999  57.734 -59.272  1.00  0.00     0.002 A 
HETATM   24  C   UNL     1     -44.968  56.717 -60.224  1.00  0.00     0.000 A 
HETATM   25  C   UNL     1     -44.208  55.573 -59.995  1.00  0.00     0.002 A 
HETATM   26  C   UNL     1     -43.471  55.440 -58.815  1.00  0.00     0.031 A 
ENDBRANCH  13  21
ENDBRANCH   7  10
BRANCH   1  27
HETATM   27  C   UNL     1     -40.948  57.354 -51.066  1.00  0.00     0.270 C 
HETATM   28  O   UNL     1     -40.546  58.434 -50.649  1.00  0.00    -0.265 OA
BRANCH  27  29
HETATM   29  O   UNL     1     -40.596  56.151 -50.539  1.00  0.00    -0.321 OA
BRANCH  29  30
HETATM   30  C   UNL     1     -41.409  55.645 -49.468  1.00  0.00     0.174 C 
HETATM   31  C   UNL     1     -40.687  54.497 -48.789  1.00  0.00     0.034 C 
ENDBRANCH  29  30
ENDBRANCH  27  29
ENDBRANCH   1  27
BRANCH   2  32
HETATM   32  C   UNL     1     -44.427  57.608 -52.850  1.00  0.00     0.439 C 
HETATM   33  F   UNL     1     -44.266  56.315 -53.209  1.00  0.00    -0.166 F 
HETATM   34  F   UNL     1     -45.579  57.690 -52.134  1.00  0.00    -0.166 F 
HETATM   35  F   UNL     1     -44.635  58.326 -53.973  1.00  0.00    -0.166 F 
ENDBRANCH   2  32
BRANCH   2  36
HETATM   36  O   UNL     1     -43.603  58.165 -50.623  1.00  0.00    -0.363 OA
HETATM   37  H   UNL     1     -42.765  58.125 -50.124  1.00  0.00     0.213 HD
ENDBRANCH   2  36
TORSDOF 8
ENDMDL
MODEL 3
REMARK VINA RESULT:      -7.7      2.353      6.113
REMARK  8 active torsions:
REMARK  status: ('A' for Active; 'I' for Inactive)
REMARK    1  A    between atoms: C_2  and  O_3 
REMARK    2  A    between atoms: O_3  and  C_4 
REMARK    3  A    between atoms: C_4  and  C_5 
REMARK    4  A    between atoms: C_6  and  C_8 
REMARK    5  A    between atoms: C_6  and  O_7 
REMARK    6  A    between atoms: C_16  and  C_17 
REMARK    7  A    between atoms: C_18  and  C_19 
REMARK    8  A    between atoms: N_26  and  C_27 
ROOT
HETATM    1  C   UNL     1     -42.025  58.138 -52.619  1.00  0.00     0.177 C 
HETATM    2  C   UNL     1     -43.208  58.935 -52.045  1.00  0.00     0.250 C 
HETATM    3  N   UNL     1     -43.080  60.351 -52.318  1.00  0.00    -0.303 N 
HETATM    4  C   UNL     1     -42.575  60.839 -53.472  1.00  0.00     0.319 C 
HETATM    5  O   UNL     1     -42.742  62.005 -53.799  1.00  0.00    -0.247 OA
HETATM    6  N   UNL     1     -41.829  59.997 -54.219  1.00  0.00    -0.333 N 
HETATM    7  C   UNL     1     -41.700  58.558 -54.052  1.00  0.00     0.142 C 
HETATM    8  H   UNL     1     -43.726  60.984 -51.857  1.00  0.00     0.167 HD
HETATM    9  H   UNL     1     -41.467  60.416 -55.068  1.00  0.00     0.165 HD
ENDROOT
BRANCH   7  10
HETATM   10  C   UNL     1     -42.492  57.875 -55.139  1.00  0.00     0.015 A 
HETATM   11  C   UNL     1     -42.588  56.480 -55.446  1.00  0.00     0.097 A 
HETATM   12  N   UNL     1     -43.455  56.262 -56.444  1.00  0.00    -0.167 NA
HETATM   13  N   UNL     1     -43.914  57.476 -56.814  1.00  0.00    -0.244 N 
HETATM   14  C   UNL     1     -43.300  58.472 -56.094  1.00  0.00     0.130 A 
BRANCH  11  15
HETATM   15  C   UNL     1     -41.925  55.344 -54.809  1.00  0.00    -0.005 A 
HETATM   16  C   UNL     1     -42.629  54.566 -53.877  1.00  0.00     0.014 A 
HETATM   17  C   UNL     1     -42.011  53.485 -53.243  1.00  0.00     0.001 A 
HETATM   18  C   UNL     1     -40.686  53.172 -53.537  1.00  0.00     0.000 A 
HETATM   19  C   UNL     1     -39.981  53.932 -54.470  1.00  0.00     0.001 A 
HETATM   20  C   UNL     1     -40.599  55.010 -55.109  1.00  0.00     0.014 A 
ENDBRANCH  11  15
BRANCH  13  21
HETATM   21  C   UNL     1     -44.920  57.613 -57.812  1.00  0.00     0.058 A 
HETATM   22  C   UNL     1     -46.079  58.351 -57.525  1.00  0.00     0.031 A 
HETATM   23  C   UNL     1     -47.065  58.519 -58.500  1.00  0.00     0.002 A 
HETATM   24  C   UNL     1     -46.906  57.951 -59.762  1.00  0.00     0.000 A 
HETATM   25  C   UNL     1     -45.761  57.213 -60.053  1.00  0.00     0.002 A 
HETATM   26  C   UNL     1     -44.767  57.042 -59.084  1.00  0.00     0.031 A 
ENDBRANCH  13  21
ENDBRANCH   7  10
BRANCH   1  27
HETATM   27  C   UNL     1     -40.732  58.267 -51.836  1.00  0.00     0.270 C 
HETATM   28  O   UNL     1     -39.883  59.110 -52.100  1.00  0.00    -0.265 OA
BRANCH  27  29
HETATM   29  O   UNL     1     -40.663  57.419 -50.775  1.00  0.00    -0.321 OA
BRANCH  29  30
HETATM   30  C   UNL     1     -41.228  56.109 -50.949  1.00  0.00     0.174 C 
HETATM   31  C   UNL     1     -40.515  55.130 -50.037  1.00  0.00     0.034 C 
ENDBRANCH  29  30
ENDBRANCH  27  29
ENDBRANCH   1  27
BRANCH   2  32
HETATM   32  C   UNL     1     -44.582  58.364 -52.555  1.00  0.00     0.439 C 
HETATM   33  F   UNL     1     -44.484  57.067 -52.923  1.00  0.00    -0.166 F 
HETATM   34  F   UNL     1     -45.522  58.438 -51.576  1.00  0.00    -0.166 F 
HETATM   35  F   UNL     1     -45.080  59.054 -53.601  1.00  0.00    -0.166 F 
ENDBRANCH   2  32
BRANCH   2  36
HETATM   36  O   UNL     1     -43.193  58.858 -50.612  1.00  0.00    -0.363 OA
HETATM   37  H   UNL     1     -43.205  59.786 -50.310  1.00  0.00     0.213 HD
ENDBRANCH   2  36
TORSDOF 8
ENDMDL
MODEL 4
REMARK VINA RESULT:      -7.3      2.303      6.230
REMARK  8 active torsions:
REMARK  status: ('A' for Active; 'I' for Inactive)
REMARK    1  A    between atoms: C_2  and  O_3 
REMARK    2  A    between atoms: O_3  and  C_4 
REMARK    3  A    between atoms: C_4  and  C_5 
REMARK    4  A    between atoms: C_6  and  C_8 
REMARK    5  A    between atoms: C_6  and  O_7 
REMARK    6  A    between atoms: C_16  and  C_17 
REMARK    7  A    between atoms: C_18  and  C_19 
REMARK    8  A    between atoms: N_26  and  C_27 
ROOT
HETATM    1  C   UNL     1     -42.188  57.339 -52.334  1.00  0.00     0.177 C 
HETATM    2  C   UNL     1     -43.454  58.094 -51.897  1.00  0.00     0.250 C 
HETATM    3  N   UNL     1     -43.203  59.510 -51.736  1.00  0.00    -0.303 N 
HETATM    4  C   UNL     1     -42.375  60.210 -52.541  1.00  0.00     0.319 C 
HETATM    5  O   UNL     1     -42.400  61.432 -52.575  1.00  0.00    -0.247 OA
HETATM    6  N   UNL     1     -41.480  59.503 -53.266  1.00  0.00    -0.333 N 
HETATM    7  C   UNL     1     -41.457  58.063 -53.463  1.00  0.00     0.142 C 
HETATM    8  H   UNL     1     -43.928  60.076 -51.307  1.00  0.00     0.167 HD
HETATM    9  H   UNL     1     -40.878  60.078 -53.844  1.00  0.00     0.165 HD
ENDROOT
BRANCH   7  10
HETATM   10  C   UNL     1     -41.935  57.762 -54.863  1.00  0.00     0.015 A 
HETATM   11  C   UNL     1     -42.001  56.506 -55.544  1.00  0.00     0.097 A 
HETATM   12  N   UNL     1     -42.556  56.640 -56.756  1.00  0.00    -0.167 NA
HETATM   13  N   UNL     1     -42.836  57.953 -56.897  1.00  0.00    -0.244 N 
HETATM   14  C   UNL     1     -42.410  58.664 -55.802  1.00  0.00     0.130 A 
BRANCH  11  15
HETATM   15  C   UNL     1     -41.599  55.179 -55.081  1.00  0.00    -0.005 A 
HETATM   16  C   UNL     1     -40.236  54.872 -54.955  1.00  0.00     0.014 A 
HETATM   17  C   UNL     1     -39.829  53.606 -54.529  1.00  0.00     0.001 A 
HETATM   18  C   UNL     1     -40.780  52.637 -54.222  1.00  0.00     0.000 A 
HETATM   19  C   UNL     1     -42.138  52.934 -54.332  1.00  0.00     0.001 A 
HETATM   20  C   UNL     1     -42.548  54.203 -54.754  1.00  0.00     0.014 A 
ENDBRANCH  11  15
BRANCH  13  21
HETATM   21  C   UNL     1     -43.508  58.445 -58.051  1.00  0.00     0.058 A 
HETATM   22  C   UNL     1     -43.021  58.117 -59.325  1.00  0.00     0.031 A 
HETATM   23  C   UNL     1     -43.683  58.568 -60.470  1.00  0.00     0.002 A 
HETATM   24  C   UNL     1     -44.829  59.351 -60.352  1.00  0.00     0.000 A 
HETATM   25  C   UNL     1     -45.316  59.686 -59.091  1.00  0.00     0.002 A 
HETATM   26  C   UNL     1     -44.662  59.236 -57.940  1.00  0.00     0.031 A 
ENDBRANCH  13  21
ENDBRANCH   7  10
BRANCH   1  27
HETATM   27  C   UNL     1     -41.164  57.126 -51.235  1.00  0.00     0.270 C 
HETATM   28  O   UNL     1     -40.267  57.929 -51.006  1.00  0.00    -0.265 OA
BRANCH  27  29
HETATM   29  O   UNL     1     -41.403  56.013 -50.491  1.00  0.00    -0.321 OA
BRANCH  29  30
HETATM   30  C   UNL     1     -41.435  54.756 -51.187  1.00  0.00     0.174 C 
HETATM   31  C   UNL     1     -40.203  53.950 -50.824  1.00  0.00     0.034 C 
ENDBRANCH  29  30
ENDBRANCH  27  29
ENDBRANCH   1  27
BRANCH   2  32
HETATM   32  C   UNL     1     -44.649  57.822 -52.884  1.00  0.00     0.439 C 
HETATM   33  F   UNL     1     -44.497  56.656 -53.553  1.00  0.00    -0.166 F 
HETATM   34  F   UNL     1     -45.823  57.747 -52.202  1.00  0.00    -0.166 F 
HETATM   35  F   UNL     1     -44.810  58.803 -53.794  1.00  0.00    -0.166 F 
ENDBRANCH   2  32
BRANCH   2  36
HETATM   36  O   UNL     1     -43.846  57.662 -50.586  1.00  0.00    -0.363 OA
HETATM   37  H   UNL     1     -44.081  56.720 -50.691  1.00  0.00     0.213 HD
ENDBRANCH   2  36
TORSDOF 8
ENDMDL
MODEL 5
REMARK VINA RESULT:      -7.2      1.316      1.934
REMARK  8 active torsions:
REMARK  status: ('A' for Active; 'I' for Inactive)
REMARK    1  A    between atoms: C_2  and  O_3 
REMARK    2  A    between atoms: O_3  and  C_4 
REMARK    3  A    between atoms: C_4  and  C_5 
REMARK    4  A    between atoms: C_6  and  C_8 
REMARK    5  A    between atoms: C_6  and  O_7 
REMARK    6  A    between atoms: C_16  and  C_17 
REMARK    7  A    between atoms: C_18  and  C_19 
REMARK    8  A    between atoms: N_26  and  C_27 
ROOT
HETATM    1  C   UNL     1     -43.357  59.272 -53.317  1.00  0.00     0.177 C 
HETATM    2  C   UNL     1     -42.862  59.333 -51.863  1.00  0.00     0.250 C 
HETATM    3  N   UNL     1     -43.866  58.856 -50.936  1.00  0.00    -0.303 N 
HETATM    4  C   UNL     1     -44.694  57.823 -51.210  1.00  0.00     0.319 C 
HETATM    5  O   UNL     1     -45.320  57.256 -50.327  1.00  0.00    -0.247 OA
HETATM    6  N   UNL     1     -44.841  57.483 -52.509  1.00  0.00    -0.333 N 
HETATM    7  C   UNL     1     -44.034  57.939 -53.630  1.00  0.00     0.142 C 
HETATM    8  H   UNL     1     -43.701  58.992 -49.944  1.00  0.00     0.167 HD
HETATM    9  H   UNL     1     -45.479  56.710 -52.659  1.00  0.00     0.165 HD
ENDROOT
BRANCH   7  10
HETATM   10  C   UNL     1     -43.121  56.815 -54.054  1.00  0.00     0.015 A 
HETATM   11  C   UNL     1     -42.412  56.642 -55.285  1.00  0.00     0.097 A 
HETATM   12  N   UNL     1     -41.642  55.546 -55.251  1.00  0.00    -0.167 NA
HETATM   13  N   UNL     1     -41.845  54.982 -54.041  1.00  0.00    -0.244 N 
HETATM   14  C   UNL     1     -42.783  55.685 -53.325  1.00  0.00     0.130 A 
BRANCH  11  15
HETATM   15  C   UNL     1     -42.400  57.493 -56.473  1.00  0.00    -0.005 A 
HETATM   16  C   UNL     1     -42.740  56.947 -57.720  1.00  0.00     0.014 A 
HETATM   17  C   UNL     1     -42.720  57.737 -58.871  1.00  0.00     0.001 A 
HETATM   18  C   UNL     1     -42.362  59.080 -58.786  1.00  0.00     0.000 A 
HETATM   19  C   UNL     1     -42.033  59.637 -57.550  1.00  0.00     0.001 A 
HETATM   20  C   UNL     1     -42.058  58.849 -56.395  1.00  0.00     0.014 A 
ENDBRANCH  11  15
BRANCH  13  21
HETATM   21  C   UNL     1     -41.120  53.827 -53.634  1.00  0.00     0.058 A 
HETATM   22  C   UNL     1     -40.799  52.845 -54.584  1.00  0.00     0.031 A 
HETATM   23  C   UNL     1     -40.065  51.717 -54.209  1.00  0.00     0.002 A 
HETATM   24  C   UNL     1     -39.652  51.558 -52.888  1.00  0.00     0.000 A 
HETATM   25  C   UNL     1     -39.972  52.526 -51.938  1.00  0.00     0.002 A 
HETATM   26  C   UNL     1     -40.703  53.659 -52.305  1.00  0.00     0.031 A 
ENDBRANCH  13  21
ENDBRANCH   7  10
BRANCH   1  27
HETATM   27  C   UNL     1     -44.354  60.352 -53.695  1.00  0.00     0.270 C 
HETATM   28  O   UNL     1     -44.071  61.274 -54.452  1.00  0.00    -0.265 OA
BRANCH  27  29
HETATM   29  O   UNL     1     -45.594  60.137 -53.182  1.00  0.00    -0.321 OA
BRANCH  29  30
HETATM   30  C   UNL     1     -46.104  61.123 -52.269  1.00  0.00     0.174 C 
HETATM   31  C   UNL     1     -47.480  61.565 -52.724  1.00  0.00     0.034 C 
ENDBRANCH  29  30
ENDBRANCH  27  29
ENDBRANCH   1  27
BRANCH   2  32
HETATM   32  C   UNL     1     -41.499  58.568 -51.692  1.00  0.00     0.439 C 
HETATM   33  F   UNL     1     -40.880  58.366 -52.878  1.00  0.00    -0.166 F 
HETATM   34  F   UNL     1     -40.647  59.279 -50.907  1.00  0.00    -0.166 F 
HETATM   35  F   UNL     1     -41.643  57.369 -51.092  1.00  0.00    -0.166 F 
ENDBRANCH   2  32
BRANCH   2  36
HETATM   36  O   UNL     1     -42.661  60.701 -51.478  1.00  0.00    -0.363 OA
HETATM   37  H   UNL     1     -43.408  61.187 -51.877  1.00  0.00     0.213 HD
ENDBRANCH   2  36
TORSDOF 8
ENDMDL
MODEL 6
REMARK VINA RESULT:      -7.0     16.581     19.598
REMARK  8 active torsions:
REMARK  status: ('A' for Active; 'I' for Inactive)
REMARK    1  A    between atoms: C_2  and  O_3 
REMARK    2  A    between atoms: O_3  and  C_4 
REMARK    3  A    between atoms: C_4  and  C_5 
REMARK    4  A    between atoms: C_6  and  C_8 
REMARK    5  A    between atoms: C_6  and  O_7 
REMARK    6  A    between atoms: C_16  and  C_17 
REMARK    7  A    between atoms: C_18  and  C_19 
REMARK    8  A    between atoms: N_26  and  C_27 
ROOT
HETATM    1  C   UNL     1     -35.023  40.319 -53.509  1.00  0.00     0.177 C 
HETATM    2  C   UNL     1     -35.720  41.412 -52.682  1.00  0.00     0.250 C 
HETATM    3  N   UNL     1     -36.970  40.944 -52.123  1.00  0.00    -0.303 N 
HETATM    4  C   UNL     1     -37.149  39.686 -51.664  1.00  0.00     0.319 C 
HETATM    5  O   UNL     1     -38.094  39.398 -50.943  1.00  0.00    -0.247 OA
HETATM    6  N   UNL     1     -36.271  38.749 -52.084  1.00  0.00    -0.333 N 
HETATM    7  C   UNL     1     -35.016  38.976 -52.781  1.00  0.00     0.142 C 
HETATM    8  H   UNL     1     -37.581  41.626 -51.687  1.00  0.00     0.167 HD
HETATM    9  H   UNL     1     -36.457  37.822 -51.718  1.00  0.00     0.165 HD
ENDROOT
BRANCH   7  10
HETATM   10  C   UNL     1     -33.881  38.753 -51.811  1.00  0.00     0.015 A 
HETATM   11  C   UNL     1     -32.494  38.526 -52.081  1.00  0.00     0.097 A 
HETATM   12  N   UNL     1     -31.785  38.448 -50.946  1.00  0.00    -0.167 NA
HETATM   13  N   UNL     1     -32.673  38.596 -49.940  1.00  0.00    -0.244 N 
HETATM   14  C   UNL     1     -33.951  38.711 -50.427  1.00  0.00     0.130 A 
BRANCH  11  15
HETATM   15  C   UNL     1     -31.806  38.421 -53.366  1.00  0.00    -0.005 A 
HETATM   16  C   UNL     1     -31.723  39.545 -54.201  1.00  0.00     0.014 A 
HETATM   17  C   UNL     1     -31.084  39.464 -55.441  1.00  0.00     0.001 A 
HETATM   18  C   UNL     1     -30.521  38.260 -55.855  1.00  0.00     0.000 A 
HETATM   19  C   UNL     1     -30.587  37.139 -55.028  1.00  0.00     0.001 A 
HETATM   20  C   UNL     1     -31.221  37.219 -53.785  1.00  0.00     0.014 A 
ENDBRANCH  11  15
BRANCH  13  21
HETATM   21  C   UNL     1     -32.249  38.639 -48.581  1.00  0.00     0.058 A 
HETATM   22  C   UNL     1     -31.304  39.598 -48.185  1.00  0.00     0.031 A 
HETATM   23  C   UNL     1     -30.896  39.674 -46.851  1.00  0.00     0.002 A 
HETATM   24  C   UNL     1     -31.421  38.794 -45.907  1.00  0.00     0.000 A 
HETATM   25  C   UNL     1     -32.356  37.836 -46.294  1.00  0.00     0.002 A 
HETATM   26  C   UNL     1     -32.772  37.755 -47.626  1.00  0.00     0.031 A 
ENDBRANCH  13  21
ENDBRANCH   7  10
BRANCH   1  27
HETATM   27  C   UNL     1     -35.642  40.059 -54.870  1.00  0.00     0.270 C 
HETATM   28  O   UNL     1     -36.850  39.929 -55.030  1.00  0.00    -0.265 OA
BRANCH  27  29
HETATM   29  O   UNL     1     -34.734  40.078 -55.881  1.00  0.00    -0.321 OA
BRANCH  29  30
HETATM   30  C   UNL     1     -34.190  41.356 -56.249  1.00  0.00     0.174 C 
HETATM   31  C   UNL     1     -35.236  42.146 -57.011  1.00  0.00     0.034 C 
ENDBRANCH  29  30
ENDBRANCH  27  29
ENDBRANCH   1  27
BRANCH   2  32
HETATM   32  C   UNL     1     -34.763  41.986 -51.573  1.00  0.00     0.439 C 
HETATM   33  F   UNL     1     -33.477  41.623 -51.779  1.00  0.00    -0.166 F 
HETATM   34  F   UNL     1     -34.804  43.344 -51.564  1.00  0.00    -0.166 F 
HETATM   35  F   UNL     1     -35.109  41.595 -50.330  1.00  0.00    -0.166 F 
ENDBRANCH   2  32
BRANCH   2  36
HETATM   36  O   UNL     1     -36.111  42.493 -53.542  1.00  0.00    -0.363 OA
HETATM   37  H   UNL     1     -35.413  42.537 -54.223  1.00  0.00     0.213 HD
ENDBRANCH   2  36
TORSDOF 8
ENDMDL
MODEL 7
REMARK VINA RESULT:      -7.0      2.871      6.827
REMARK  8 active torsions:
REMARK  status: ('A' for Active; 'I' for Inactive)
REMARK    1  A    between atoms: C_2  and  O_3 
REMARK    2  A    between atoms: O_3  and  C_4 
REMARK    3  A    between atoms: C_4  and  C_5 
REMARK    4  A    between atoms: C_6  and  C_8 
REMARK    5  A    between atoms: C_6  and  O_7 
REMARK    6  A    between atoms: C_16  and  C_17 
REMARK    7  A    between atoms: C_18  and  C_19 
REMARK    8  A    between atoms: N_26  and  C_27 
ROOT
HETATM    1  C   UNL     1     -42.905  56.738 -55.489  1.00  0.00     0.177 C 
HETATM    2  C   UNL     1     -42.786  57.990 -56.373  1.00  0.00     0.250 C 
HETATM    3  N   UNL     1     -44.017  58.263 -57.082  1.00  0.00    -0.303 N 
HETATM    4  C   UNL     1     -45.240  58.064 -56.543  1.00  0.00     0.319 C 
HETATM    5  O   UNL     1     -46.243  58.564 -57.033  1.00  0.00    -0.247 OA
HETATM    6  N   UNL     1     -45.313  57.243 -55.473  1.00  0.00    -0.333 N 
HETATM    7  C   UNL     1     -44.203  56.733 -54.684  1.00  0.00     0.142 C 
HETATM    8  H   UNL     1     -44.003  58.976 -57.804  1.00  0.00     0.167 HD
HETATM    9  H   UNL     1     -46.253  57.121 -55.115  1.00  0.00     0.165 HD
ENDROOT
BRANCH   7  10
HETATM   10  C   UNL     1     -44.169  57.472 -53.368  1.00  0.00     0.015 A 
HETATM   11  C   UNL     1     -43.506  57.119 -52.150  1.00  0.00     0.097 A 
HETATM   12  N   UNL     1     -43.654  58.075 -51.223  1.00  0.00    -0.167 NA
HETATM   13  N   UNL     1     -44.415  59.034 -51.791  1.00  0.00    -0.244 N 
HETATM   14  C   UNL     1     -44.799  58.668 -53.058  1.00  0.00     0.130 A 
BRANCH  11  15
HETATM   15  C   UNL     1     -42.705  55.936 -51.843  1.00  0.00    -0.005 A 
HETATM   16  C   UNL     1     -41.391  56.092 -51.375  1.00  0.00     0.014 A 
HETATM   17  C   UNL     1     -40.602  54.976 -51.090  1.00  0.00     0.001 A 
HETATM   18  C   UNL     1     -41.118  53.696 -51.266  1.00  0.00     0.000 A 
HETATM   19  C   UNL     1     -42.427  53.529 -51.719  1.00  0.00     0.001 A 
HETATM   20  C   UNL     1     -43.221  54.644 -52.000  1.00  0.00     0.014 A 
ENDBRANCH  11  15
BRANCH  13  21
HETATM   21  C   UNL     1     -44.711  60.246 -51.105  1.00  0.00     0.058 A 
HETATM   22  C   UNL     1     -45.997  60.797 -51.204  1.00  0.00     0.031 A 
HETATM   23  C   UNL     1     -46.315  61.971 -50.515  1.00  0.00     0.002 A 
HETATM   24  C   UNL     1     -45.354  62.602 -49.729  1.00  0.00     0.000 A 
HETATM   25  C   UNL     1     -44.073  62.064 -49.630  1.00  0.00     0.002 A 
HETATM   26  C   UNL     1     -43.747  60.888 -50.313  1.00  0.00     0.031 A 
ENDBRANCH  13  21
ENDBRANCH   7  10
BRANCH   1  27
HETATM   27  C   UNL     1     -42.871  55.422 -56.244  1.00  0.00     0.270 C 
HETATM   28  O   UNL     1     -43.296  55.307 -57.388  1.00  0.00    -0.265 OA
BRANCH  27  29
HETATM   29  O   UNL     1     -42.247  54.428 -55.557  1.00  0.00    -0.321 OA
BRANCH  29  30
HETATM   30  C   UNL     1     -40.946  54.722 -55.020  1.00  0.00     0.174 C 
HETATM   31  C   UNL     1     -40.199  53.425 -54.778  1.00  0.00     0.034 C 
ENDBRANCH  29  30
ENDBRANCH  27  29
ENDBRANCH   1  27
BRANCH   2  32
HETATM   32  C   UNL     1     -42.305  59.234 -55.538  1.00  0.00     0.439 C 
HETATM   33  F   UNL     1     -41.608  58.865 -54.439  1.00  0.00    -0.166 F 
HETATM   34  F   UNL     1     -41.493  60.026 -56.286  1.00  0.00    -0.166 F 
HETATM   35  F   UNL     1     -43.325  60.020 -55.136  1.00  0.00    -0.166 F 
ENDBRANCH   2  32
BRANCH   2  36
HETATM   36  O   UNL     1     -41.831  57.755 -57.419  1.00  0.00    -0.363 OA
HETATM   37  H   UNL     1     -41.058  57.363 -56.970  1.00  0.00     0.213 HD
ENDBRANCH   2  36
TORSDOF 8
ENDMDL
MODEL 8
REMARK VINA RESULT:      -6.8      2.704      6.332
REMARK  8 active torsions:
REMARK  status: ('A' for Active; 'I' for Inactive)
REMARK    1  A    between atoms: C_2  and  O_3 
REMARK    2  A    between atoms: O_3  and  C_4 
REMARK    3  A    between atoms: C_4  and  C_5 
REMARK    4  A    between atoms: C_6  and  C_8 
REMARK    5  A    between atoms: C_6  and  O_7 
REMARK    6  A    between atoms: C_16  and  C_17 
REMARK    7  A    between atoms: C_18  and  C_19 
REMARK    8  A    between atoms: N_26  and  C_27 
ROOT
HETATM    1  C   UNL     1     -42.960  57.219 -56.120  1.00  0.00     0.177 C 
HETATM    2  C   UNL     1     -42.902  58.592 -56.809  1.00  0.00     0.250 C 
HETATM    3  N   UNL     1     -44.194  58.983 -57.331  1.00  0.00    -0.303 N 
HETATM    4  C   UNL     1     -45.358  58.714 -56.701  1.00  0.00     0.319 C 
HETATM    5  O   UNL     1     -46.393  59.294 -56.998  1.00  0.00    -0.247 OA
HETATM    6  N   UNL     1     -45.340  57.738 -55.767  1.00  0.00    -0.333 N 
HETATM    7  C   UNL     1     -44.167  57.102 -55.189  1.00  0.00     0.142 C 
HETATM    8  H   UNL     1     -44.237  59.799 -57.933  1.00  0.00     0.167 HD
HETATM    9  H   UNL     1     -46.240  57.571 -55.333  1.00  0.00     0.165 HD
ENDROOT
BRANCH   7  10
HETATM   10  C   UNL     1     -43.976  57.628 -53.788  1.00  0.00     0.015 A 
HETATM   11  C   UNL     1     -43.213  57.074 -52.711  1.00  0.00     0.097 A 
HETATM   12  N   UNL     1     -43.232  57.879 -51.640  1.00  0.00    -0.167 NA
HETATM   13  N   UNL     1     -44.005  58.933 -51.976  1.00  0.00    -0.244 N 
HETATM   14  C   UNL     1     -44.523  58.777 -53.238  1.00  0.00     0.130 A 
BRANCH  11  15
HETATM   15  C   UNL     1     -42.435  55.838 -52.668  1.00  0.00    -0.005 A 
HETATM   16  C   UNL     1     -42.820  54.806 -51.799  1.00  0.00     0.014 A 
HETATM   17  C   UNL     1     -42.081  53.623 -51.731  1.00  0.00     0.001 A 
HETATM   18  C   UNL     1     -40.954  53.460 -52.531  1.00  0.00     0.000 A 
HETATM   19  C   UNL     1     -40.568  54.474 -53.406  1.00  0.00     0.001 A 
HETATM   20  C   UNL     1     -41.309  55.657 -53.481  1.00  0.00     0.014 A 
ENDBRANCH  11  15
BRANCH  13  21
HETATM   21  C   UNL     1     -44.183  60.032 -51.088  1.00  0.00     0.058 A 
HETATM   22  C   UNL     1     -45.325  60.080 -50.274  1.00  0.00     0.031 A 
HETATM   23  C   UNL     1     -45.505  61.136 -49.376  1.00  0.00     0.002 A 
HETATM   24  C   UNL     1     -44.552  62.149 -49.288  1.00  0.00     0.000 A 
HETATM   25  C   UNL     1     -43.419  62.110 -50.097  1.00  0.00     0.002 A 
HETATM   26  C   UNL     1     -43.229  61.056 -50.996  1.00  0.00     0.031 A 
ENDBRANCH  13  21
ENDBRANCH   7  10
BRANCH   1  27
HETATM   27  C   UNL     1     -43.040  56.035 -57.066  1.00  0.00     0.270 C 
HETATM   28  O   UNL     1     -42.598  54.929 -56.777  1.00  0.00    -0.265 OA
BRANCH  27  29
HETATM   29  O   UNL     1     -43.722  56.311 -58.210  1.00  0.00    -0.321 OA
BRANCH  29  30
HETATM   30  C   UNL     1     -43.333  55.593 -59.392  1.00  0.00     0.174 C 
HETATM   31  C   UNL     1     -44.482  54.715 -59.847  1.00  0.00     0.034 C 
ENDBRANCH  29  30
ENDBRANCH  27  29
ENDBRANCH   1  27
BRANCH   2  32
HETATM   32  C   UNL     1     -42.305  59.686 -55.850  1.00  0.00     0.439 C 
HETATM   33  F   UNL     1     -41.538  59.142 -54.878  1.00  0.00    -0.166 F 
HETATM   34  F   UNL     1     -41.522  60.554 -56.545  1.00  0.00    -0.166 F 
HETATM   35  F   UNL     1     -43.255  60.437 -55.256  1.00  0.00    -0.166 F 
ENDBRANCH   2  32
BRANCH   2  36
HETATM   36  O   UNL     1     -42.069  58.512 -57.975  1.00  0.00    -0.363 OA
HETATM   37  H   UNL     1     -42.432  59.179 -58.589  1.00  0.00     0.213 HD
ENDBRANCH   2  36
TORSDOF 8
ENDMDL
MODEL 9
REMARK VINA RESULT:      -6.7      2.141      5.379
REMARK  8 active torsions:
REMARK  status: ('A' for Active; 'I' for Inactive)
REMARK    1  A    between atoms: C_2  and  O_3 
REMARK    2  A    between atoms: O_3  and  C_4 
REMARK    3  A    between atoms: C_4  and  C_5 
REMARK    4  A    between atoms: C_6  and  C_8 
REMARK    5  A    between atoms: C_6  and  O_7 
REMARK    6  A    between atoms: C_16  and  C_17 
REMARK    7  A    between atoms: C_18  and  C_19 
REMARK    8  A    between atoms: N_26  and  C_27 
ROOT
HETATM    1  C   UNL     1     -43.305  58.210 -52.184  1.00  0.00     0.177 C 
HETATM    2  C   UNL     1     -41.937  58.164 -51.485  1.00  0.00     0.250 C 
HETATM    3  N   UNL     1     -41.633  56.838 -50.992  1.00  0.00    -0.303 N 
HETATM    4  C   UNL     1     -41.970  55.708 -51.652  1.00  0.00     0.319 C 
HETATM    5  O   UNL     1     -41.460  54.632 -51.376  1.00  0.00    -0.247 OA
HETATM    6  N   UNL     1     -42.936  55.812 -52.591  1.00  0.00    -0.333 N 
HETATM    7  C   UNL     1     -43.491  57.036 -53.144  1.00  0.00     0.142 C 
HETATM    8  H   UNL     1     -40.826  56.729 -50.386  1.00  0.00     0.167 HD
HETATM    9  H   UNL     1     -43.156  54.934 -53.048  1.00  0.00     0.165 HD
ENDROOT
BRANCH   7  10
HETATM   10  C   UNL     1     -42.943  57.226 -54.538  1.00  0.00     0.015 A 
HETATM   11  C   UNL     1     -42.162  56.327 -55.331  1.00  0.00     0.097 A 
HETATM   12  N   UNL     1     -41.931  56.832 -56.551  1.00  0.00    -0.167 NA
HETATM   13  N   UNL     1     -42.519  58.047 -56.571  1.00  0.00    -0.244 N 
HETATM   14  C   UNL     1     -43.076  58.341 -55.350  1.00  0.00     0.130 A 
BRANCH  11  15
HETATM   15  C   UNL     1     -41.662  54.995 -54.999  1.00  0.00    -0.005 A 
HETATM   16  C   UNL     1     -42.550  53.909 -54.968  1.00  0.00     0.014 A 
HETATM   17  C   UNL     1     -42.098  52.630 -54.638  1.00  0.00     0.001 A 
HETATM   18  C   UNL     1     -40.754  52.424 -54.338  1.00  0.00     0.000 A 
HETATM   19  C   UNL     1     -39.860  53.493 -54.376  1.00  0.00     0.001 A 
HETATM   20  C   UNL     1     -40.309  54.774 -54.712  1.00  0.00     0.014 A 
ENDBRANCH  11  15
BRANCH  13  21
HETATM   21  C   UNL     1     -42.534  58.841 -57.752  1.00  0.00     0.058 A 
HETATM   22  C   UNL     1     -41.756  60.008 -57.807  1.00  0.00     0.031 A 
HETATM   23  C   UNL     1     -41.736  60.786 -58.968  1.00  0.00     0.002 A 
HETATM   24  C   UNL     1     -42.492  60.409 -60.075  1.00  0.00     0.000 A 
HETATM   25  C   UNL     1     -43.271  59.256 -60.026  1.00  0.00     0.002 A 
HETATM   26  C   UNL     1     -43.295  58.469 -58.870  1.00  0.00     0.031 A 
ENDBRANCH  13  21
ENDBRANCH   7  10
BRANCH   1  27
HETATM   27  C   UNL     1     -44.499  58.184 -51.248  1.00  0.00     0.270 C 
HETATM   28  O   UNL     1     -44.922  57.148 -50.748  1.00  0.00    -0.265 OA
BRANCH  27  29
HETATM   29  O   UNL     1     -44.979  59.424 -50.961  1.00  0.00    -0.321 OA
BRANCH  29  30
HETATM   30  C   UNL     1     -44.734  60.459 -51.927  1.00  0.00     0.174 C 
HETATM   31  C   UNL     1     -45.945  60.604 -52.827  1.00  0.00     0.034 C 
ENDBRANCH  29  30
ENDBRANCH  27  29
ENDBRANCH   1  27
BRANCH   2  32
HETATM   32  C   UNL     1     -40.799  58.713 -52.422  1.00  0.00     0.439 C 
HETATM   33  F   UNL     1     -40.297  57.749 -53.226  1.00  0.00    -0.166 F 
HETATM   34  F   UNL     1     -41.276  59.701 -53.224  1.00  0.00    -0.166 F 
HETATM   35  F   UNL     1     -39.772  59.256 -51.736  1.00  0.00    -0.166 F 
ENDBRANCH   2  32
BRANCH   2  36
HETATM   36  O   UNL     1     -41.972  58.973 -50.300  1.00  0.00    -0.363 OA
HETATM   37  H   UNL     1     -42.889  58.900 -49.974  1.00  0.00     0.213 HD
ENDBRANCH   2  36
TORSDOF 8
ENDMDL
MODEL 10
REMARK VINA RESULT:      -6.4      3.389      6.666
REMARK  8 active torsions:
REMARK  status: ('A' for Active; 'I' for Inactive)
REMARK    1  A    between atoms: C_2  and  O_3 
REMARK    2  A    between atoms: O_3  and  C_4 
REMARK    3  A    between atoms: C_4  and  C_5 
REMARK    4  A    between atoms: C_6  and  C_8 
REMARK    5  A    between atoms: C_6  and  O_7 
REMARK    6  A    between atoms: C_16  and  C_17 
REMARK    7  A    between atoms: C_18  and  C_19 
REMARK    8  A    between atoms: N_26  and  C_27 
ROOT
HETATM    1  C   UNL     1     -43.496  56.410 -55.460  1.00  0.00     0.177 C 
HETATM    2  C   UNL     1     -43.915  57.233 -54.230  1.00  0.00     0.250 C 
HETATM    3  N   UNL     1     -42.797  57.476 -53.344  1.00  0.00    -0.303 N 
HETATM    4  C   UNL     1     -41.542  57.715 -53.785  1.00  0.00     0.319 C 
HETATM    5  O   UNL     1     -40.690  58.198 -53.053  1.00  0.00    -0.247 OA
HETATM    6  N   UNL     1     -41.256  57.344 -55.052  1.00  0.00    -0.333 N 
HETATM    7  C   UNL     1     -42.201  56.934 -56.078  1.00  0.00     0.142 C 
HETATM    8  H   UNL     1     -42.991  57.879 -52.433  1.00  0.00     0.167 HD
HETATM    9  H   UNL     1     -40.300  57.536 -55.328  1.00  0.00     0.165 HD
ENDROOT
BRANCH   7  10
HETATM   10  C   UNL     1     -42.349  58.061 -57.072  1.00  0.00     0.015 A 
HETATM   11  C   UNL     1     -43.087  58.093 -58.297  1.00  0.00     0.097 A 
HETATM   12  N   UNL     1     -43.033  59.306 -58.864  1.00  0.00    -0.167 NA
HETATM   13  N   UNL     1     -42.262  60.063 -58.056  1.00  0.00    -0.244 N 
HETATM   14  C   UNL     1     -41.779  59.322 -57.005  1.00  0.00     0.130 A 
BRANCH  11  15
HETATM   15  C   UNL     1     -43.874  57.037 -58.932  1.00  0.00    -0.005 A 
HETATM   16  C   UNL     1     -45.208  57.287 -59.288  1.00  0.00     0.014 A 
HETATM   17  C   UNL     1     -45.984  56.288 -59.881  1.00  0.00     0.001 A 
HETATM   18  C   UNL     1     -45.432  55.033 -60.125  1.00  0.00     0.000 A 
HETATM   19  C   UNL     1     -44.104  54.778 -59.786  1.00  0.00     0.001 A 
HETATM   20  C   UNL     1     -43.324  55.778 -59.198  1.00  0.00     0.014 A 
ENDBRANCH  11  15
BRANCH  13  21
HETATM   21  C   UNL     1     -42.051  61.446 -58.320  1.00  0.00     0.058 A 
HETATM   22  C   UNL     1     -43.131  62.337 -58.234  1.00  0.00     0.031 A 
HETATM   23  C   UNL     1     -42.938  63.701 -58.463  1.00  0.00     0.002 A 
HETATM   24  C   UNL     1     -41.672  64.185 -58.782  1.00  0.00     0.000 A 
HETATM   25  C   UNL     1     -40.595  63.306 -58.874  1.00  0.00     0.002 A 
HETATM   26  C   UNL     1     -40.778  61.940 -58.644  1.00  0.00     0.031 A 
ENDBRANCH  13  21
ENDBRANCH   7  10
BRANCH   1  27
HETATM   27  C   UNL     1     -43.269  54.934 -55.190  1.00  0.00     0.270 C 
HETATM   28  O   UNL     1     -43.581  54.062 -55.992  1.00  0.00    -0.265 OA
BRANCH  27  29
HETATM   29  O   UNL     1     -42.613  54.700 -54.022  1.00  0.00    -0.321 OA
BRANCH  29  30
HETATM   30  C   UNL     1     -41.777  53.533 -53.965  1.00  0.00     0.174 C 
HETATM   31  C   UNL     1     -40.423  53.856 -54.565  1.00  0.00     0.034 C 
ENDBRANCH  29  30
ENDBRANCH  27  29
ENDBRANCH   1  27
BRANCH   2  32
HETATM   32  C   UNL     1     -44.625  58.571 -54.654  1.00  0.00     0.439 C 
HETATM   33  F   UNL     1     -43.754  59.601 -54.740  1.00  0.00    -0.166 F 
HETATM   34  F   UNL     1     -45.212  58.434 -55.873  1.00  0.00    -0.166 F 
HETATM   35  F   UNL     1     -45.610  58.931 -53.807  1.00  0.00    -0.166 F 
ENDBRANCH   2  32
BRANCH   2  36
HETATM   36  O   UNL     1     -44.830  56.472 -53.428  1.00  0.00    -0.363 OA
HETATM   37  H   UNL     1     -44.267  55.990 -52.793  1.00  0.00     0.213 HD
ENDBRANCH   2  36
TORSDOF 8
ENDMDL
