MODEL 1
REMARK VINA RESULT:      -6.3      0.000      0.000
REMARK  2 active torsions:
REMARK  status: ('A' for Active; 'I' for Inactive)
REMARK    1  A    between atoms: N_6  and  C_7 
REMARK    2  A    between atoms: C_12  and  N_13 
ROOT
HETATM    1  C   UNL     1     -40.800  53.821 -51.498  1.00  0.00     0.070 A 
HETATM    2  C   UNL     1     -40.367  52.573 -50.989  1.00  0.00     0.162 A 
HETATM    3  F   UNL     1     -40.221  52.426 -49.660  1.00  0.00    -0.202 F 
HETATM    4  C   UNL     1     -40.039  51.487 -51.814  1.00  0.00     0.084 A 
HETATM    5 BR   UNL     1     -39.500  49.861 -50.995  1.00  0.00    -0.045 Br
HETATM    6  C   UNL     1     -40.145  51.652 -53.189  1.00  0.00     0.123 A 
HETATM    7  C   UNL     1     -40.581  52.857 -53.745  1.00  0.00     0.040 A 
HETATM    8  C   UNL     1     -40.907  53.923 -52.899  1.00  0.00     0.035 A 
ENDROOT
BRANCH   1   9
HETATM    9  N   UNL     1     -41.169  54.912 -50.703  1.00  0.00    -0.375 N 
HETATM   10  C   UNL     1     -42.332  54.766 -49.801  1.00  0.00     0.150 C 
HETATM   11  C   UNL     1     -43.605  55.365 -50.442  1.00  0.00     0.254 C 
HETATM   12  N   UNL     1     -43.366  56.813 -50.868  1.00  0.00    -0.072 N 
HETATM   13  C   UNL     1     -44.596  57.436 -51.458  1.00  0.00     0.269 C 
HETATM   14  H   UNL     1     -43.127  57.346 -50.020  1.00  0.00     0.279 HD
HETATM   15  C   UNL     1     -42.164  56.916 -51.813  1.00  0.00     0.254 C 
HETATM   16  C   UNL     1     -40.915  56.298 -51.150  1.00  0.00     0.150 C 
ENDBRANCH   1   9
BRANCH   6  17
HETATM   17  N   UNL     1     -39.797  50.585 -54.098  1.00  0.00    -0.114 N 
HETATM   18  O   UNL     1     -40.720  49.855 -54.479  1.00  0.00    -0.532 OA
HETATM   19  O   UNL     1     -38.598  50.459 -54.376  1.00  0.00    -0.532 OA
ENDBRANCH   6  17
TORSDOF 2
ENDMDL
MODEL 2
REMARK VINA RESULT:      -6.1      2.736      3.238
REMARK  2 active torsions:
REMARK  status: ('A' for Active; 'I' for Inactive)
REMARK    1  A    between atoms: N_6  and  C_7 
REMARK    2  A    between atoms: C_12  and  N_13 
ROOT
HETATM    1  C   UNL     1     -40.581  54.106 -53.072  1.00  0.00     0.070 A 
HETATM    2  C   UNL     1     -40.316  52.876 -53.721  1.00  0.00     0.162 A 
HETATM    3  F   UNL     1     -40.378  52.821 -55.064  1.00  0.00    -0.202 F 
HETATM    4  C   UNL     1     -40.032  51.693 -53.024  1.00  0.00     0.084 A 
HETATM    5 BR   UNL     1     -39.667  50.120 -54.022  1.00  0.00    -0.045 Br
HETATM    6  C   UNL     1     -40.014  51.739 -51.635  1.00  0.00     0.123 A 
HETATM    7  C   UNL     1     -40.253  52.929 -50.944  1.00  0.00     0.040 A 
HETATM    8  C   UNL     1     -40.529  54.096 -51.664  1.00  0.00     0.035 A 
ENDROOT
BRANCH   1   9
HETATM    9  N   UNL     1     -40.832  55.312 -53.738  1.00  0.00    -0.375 N 
HETATM   10  C   UNL     1     -41.215  56.494 -52.937  1.00  0.00     0.150 C 
HETATM   11  C   UNL     1     -42.749  56.685 -52.934  1.00  0.00     0.254 C 
HETATM   12  N   UNL     1     -43.290  56.740 -54.362  1.00  0.00    -0.072 N 
HETATM   13  C   UNL     1     -44.772  56.965 -54.393  1.00  0.00     0.269 C 
HETATM   14  H   UNL     1     -42.846  57.544 -54.827  1.00  0.00     0.279 HD
HETATM   15  C   UNL     1     -42.885  55.490 -55.151  1.00  0.00     0.254 C 
HETATM   16  C   UNL     1     -41.351  55.320 -55.122  1.00  0.00     0.150 C 
ENDBRANCH   1   9
BRANCH   6  17
HETATM   17  N   UNL     1     -39.756  50.553 -50.853  1.00  0.00    -0.114 N 
HETATM   18  O   UNL     1     -40.529  50.326 -49.914  1.00  0.00    -0.532 OA
HETATM   19  O   UNL     1     -38.754  49.894 -51.155  1.00  0.00    -0.532 OA
ENDBRANCH   6  17
TORSDOF 2
ENDMDL
MODEL 3
REMARK VINA RESULT:      -6.0      2.354      3.211
REMARK  2 active torsions:
REMARK  status: ('A' for Active; 'I' for Inactive)
REMARK    1  A    between atoms: N_6  and  C_7 
REMARK    2  A    between atoms: C_12  and  N_13 
ROOT
HETATM    1  C   UNL     1     -41.131  56.013 -53.627  1.00  0.00     0.070 A 
HETATM    2  C   UNL     1     -41.000  55.212 -52.467  1.00  0.00     0.162 A 
HETATM    3  F   UNL     1     -41.141  55.787 -51.259  1.00  0.00    -0.202 F 
HETATM    4  C   UNL     1     -40.686  53.846 -52.516  1.00  0.00     0.084 A 
HETATM    5 BR   UNL     1     -40.571  52.885 -50.883  1.00  0.00    -0.045 Br
HETATM    6  C   UNL     1     -40.495  53.262 -53.762  1.00  0.00     0.123 A 
HETATM    7  C   UNL     1     -40.626  54.002 -54.940  1.00  0.00     0.040 A 
HETATM    8  C   UNL     1     -40.945  55.361 -54.863  1.00  0.00     0.035 A 
ENDROOT
BRANCH   1   9
HETATM    9  N   UNL     1     -41.478  57.369 -53.614  1.00  0.00    -0.375 N 
HETATM   10  C   UNL     1     -40.401  58.371 -53.461  1.00  0.00     0.150 C 
HETATM   11  C   UNL     1     -40.288  58.838 -51.992  1.00  0.00     0.254 C 
HETATM   12  N   UNL     1     -41.638  59.339 -51.478  1.00  0.00    -0.072 N 
HETATM   13  C   UNL     1     -41.552  59.837 -50.066  1.00  0.00     0.269 C 
HETATM   14  H   UNL     1     -41.915  60.134 -52.070  1.00  0.00     0.279 HD
HETATM   15  C   UNL     1     -42.719  58.265 -51.641  1.00  0.00     0.254 C 
HETATM   16  C   UNL     1     -42.797  57.810 -53.114  1.00  0.00     0.150 C 
ENDBRANCH   1   9
BRANCH   6  17
HETATM   17  N   UNL     1     -40.142  51.867 -53.886  1.00  0.00    -0.114 N 
HETATM   18  O   UNL     1     -38.996  51.549 -53.545  1.00  0.00    -0.532 OA
HETATM   19  O   UNL     1     -40.998  51.117 -54.371  1.00  0.00    -0.532 OA
ENDBRANCH   6  17
TORSDOF 2
ENDMDL
MODEL 4
REMARK VINA RESULT:      -6.0      1.526      1.888
REMARK  2 active torsions:
REMARK  status: ('A' for Active; 'I' for Inactive)
REMARK    1  A    between atoms: N_6  and  C_7 
REMARK    2  A    between atoms: C_12  and  N_13 
ROOT
HETATM    1  C   UNL     1     -40.803  54.547 -52.986  1.00  0.00     0.070 A 
HETATM    2  C   UNL     1     -40.430  53.541 -52.062  1.00  0.00     0.162 A 
HETATM    3  F   UNL     1     -40.281  53.869 -50.766  1.00  0.00    -0.202 F 
HETATM    4  C   UNL     1     -40.164  52.217 -52.443  1.00  0.00     0.084 A 
HETATM    5 BR   UNL     1     -39.702  50.963 -51.095  1.00  0.00    -0.045 Br
HETATM    6  C   UNL     1     -40.272  51.889 -53.789  1.00  0.00     0.123 A 
HETATM    7  C   UNL     1     -40.651  52.838 -54.740  1.00  0.00     0.040 A 
HETATM    8  C   UNL     1     -40.916  54.150 -54.333  1.00  0.00     0.035 A 
ENDROOT
BRANCH   1   9
HETATM    9  N   UNL     1     -41.109  55.866 -52.634  1.00  0.00    -0.375 N 
HETATM   10  C   UNL     1     -42.172  56.101 -51.632  1.00  0.00     0.150 C 
HETATM   11  C   UNL     1     -43.514  56.437 -52.321  1.00  0.00     0.254 C 
HETATM   12  N   UNL     1     -43.347  57.608 -53.288  1.00  0.00    -0.072 N 
HETATM   13  C   UNL     1     -44.642  57.985 -53.943  1.00  0.00     0.269 C 
HETATM   14  H   UNL     1     -43.033  58.418 -52.737  1.00  0.00     0.279 HD
HETATM   15  C   UNL     1     -42.249  57.317 -54.318  1.00  0.00     0.254 C 
HETATM   16  C   UNL     1     -40.928  56.971 -53.599  1.00  0.00     0.150 C 
ENDBRANCH   1   9
BRANCH   6  17
HETATM   17  N   UNL     1     -39.986  50.552 -54.255  1.00  0.00    -0.114 N 
HETATM   18  O   UNL     1     -38.794  50.260 -54.411  1.00  0.00    -0.532 OA
HETATM   19  O   UNL     1     -40.958  49.832 -54.510  1.00  0.00    -0.532 OA
ENDBRANCH   6  17
TORSDOF 2
ENDMDL
MODEL 5
REMARK VINA RESULT:      -5.9      2.660      3.203
REMARK  2 active torsions:
REMARK  status: ('A' for Active; 'I' for Inactive)
REMARK    1  A    between atoms: N_6  and  C_7 
REMARK    2  A    between atoms: C_12  and  N_13 
ROOT
HETATM    1  C   UNL     1     -41.560  55.603 -51.516  1.00  0.00     0.070 A 
HETATM    2  C   UNL     1     -41.176  55.471 -52.873  1.00  0.00     0.162 A 
HETATM    3  F   UNL     1     -41.331  56.520 -53.699  1.00  0.00    -0.202 F 
HETATM    4  C   UNL     1     -40.677  54.275 -53.409  1.00  0.00     0.084 A 
HETATM    5 BR   UNL     1     -40.173  54.246 -55.239  1.00  0.00    -0.045 Br
HETATM    6  C   UNL     1     -40.560  53.177 -52.566  1.00  0.00     0.123 A 
HETATM    7  C   UNL     1     -40.911  53.256 -51.216  1.00  0.00     0.040 A 
HETATM    8  C   UNL     1     -41.400  54.463 -50.705  1.00  0.00     0.035 A 
ENDROOT
BRANCH   1   9
HETATM    9  N   UNL     1     -42.027  56.792 -50.941  1.00  0.00    -0.375 N 
HETATM   10  C   UNL     1     -43.399  57.240 -51.263  1.00  0.00     0.150 C 
HETATM   11  C   UNL     1     -43.382  58.304 -52.384  1.00  0.00     0.254 C 
HETATM   12  N   UNL     1     -42.455  59.462 -52.016  1.00  0.00    -0.072 N 
HETATM   13  C   UNL     1     -42.448  60.532 -53.066  1.00  0.00     0.269 C 
HETATM   14  H   UNL     1     -42.818  59.882 -51.150  1.00  0.00     0.279 HD
HETATM   15  C   UNL     1     -41.041  58.956 -51.707  1.00  0.00     0.254 C 
HETATM   16  C   UNL     1     -41.094  57.885 -50.596  1.00  0.00     0.150 C 
ENDBRANCH   1   9
BRANCH   6  17
HETATM   17  N   UNL     1     -40.081  51.906 -53.058  1.00  0.00    -0.114 N 
HETATM   18  O   UNL     1     -40.724  51.386 -53.978  1.00  0.00    -0.532 OA
HETATM   19  O   UNL     1     -39.100  51.421 -52.483  1.00  0.00    -0.532 OA
ENDBRANCH   6  17
TORSDOF 2
ENDMDL
MODEL 6
REMARK VINA RESULT:      -5.7      2.747      3.514
REMARK  2 active torsions:
REMARK  status: ('A' for Active; 'I' for Inactive)
REMARK    1  A    between atoms: N_6  and  C_7 
REMARK    2  A    between atoms: C_12  and  N_13 
ROOT
HETATM    1  C   UNL     1     -41.380  55.471 -52.618  1.00  0.00     0.070 A 
HETATM    2  C   UNL     1     -41.181  54.356 -53.467  1.00  0.00     0.162 A 
HETATM    3  F   UNL     1     -41.532  54.451 -54.762  1.00  0.00    -0.202 F 
HETATM    4  C   UNL     1     -40.671  53.132 -53.009  1.00  0.00     0.084 A 
HETATM    5 BR   UNL     1     -40.427  51.728 -54.262  1.00  0.00    -0.045 Br
HETATM    6  C   UNL     1     -40.352  53.019 -51.661  1.00  0.00     0.123 A 
HETATM    7  C   UNL     1     -40.515  54.092 -50.783  1.00  0.00     0.040 A 
HETATM    8  C   UNL     1     -41.020  55.303 -51.267  1.00  0.00     0.035 A 
ENDROOT
BRANCH   1   9
HETATM    9  N   UNL     1     -41.853  56.716 -53.050  1.00  0.00    -0.375 N 
HETATM   10  C   UNL     1     -40.868  57.768 -53.384  1.00  0.00     0.150 C 
HETATM   11  C   UNL     1     -40.679  58.743 -52.199  1.00  0.00     0.254 C 
HETATM   12  N   UNL     1     -42.024  59.315 -51.751  1.00  0.00    -0.072 N 
HETATM   13  C   UNL     1     -41.871  60.296 -50.628  1.00  0.00     0.269 C 
HETATM   14  H   UNL     1     -42.423  59.823 -52.552  1.00  0.00     0.279 HD
HETATM   15  C   UNL     1     -43.008  58.193 -51.399  1.00  0.00     0.254 C 
HETATM   16  C   UNL     1     -43.162  57.230 -52.596  1.00  0.00     0.150 C 
ENDBRANCH   1   9
BRANCH   6  17
HETATM   17  N   UNL     1     -39.848  51.779 -51.116  1.00  0.00    -0.114 N 
HETATM   18  O   UNL     1     -38.872  51.276 -51.685  1.00  0.00    -0.532 OA
HETATM   19  O   UNL     1     -40.468  51.300 -50.159  1.00  0.00    -0.532 OA
ENDBRANCH   6  17
TORSDOF 2
ENDMDL
MODEL 7
REMARK VINA RESULT:      -5.5      6.253      7.141
REMARK  2 active torsions:
REMARK  status: ('A' for Active; 'I' for Inactive)
REMARK    1  A    between atoms: N_6  and  C_7 
REMARK    2  A    between atoms: C_12  and  N_13 
ROOT
HETATM    1  C   UNL     1     -42.797  56.182 -56.823  1.00  0.00     0.070 A 
HETATM    2  C   UNL     1     -42.312  56.859 -55.678  1.00  0.00     0.162 A 
HETATM    3  F   UNL     1     -41.925  58.142 -55.795  1.00  0.00    -0.202 F 
HETATM    4  C   UNL     1     -42.175  56.239 -54.428  1.00  0.00     0.084 A 
HETATM    5 BR   UNL     1     -41.539  57.274 -52.969  1.00  0.00    -0.045 Br
HETATM    6  C   UNL     1     -42.532  54.900 -54.318  1.00  0.00     0.123 A 
HETATM    7  C   UNL     1     -43.030  54.188 -55.411  1.00  0.00     0.040 A 
HETATM    8  C   UNL     1     -43.162  54.833 -56.646  1.00  0.00     0.035 A 
ENDROOT
BRANCH   1   9
HETATM    9  N   UNL     1     -42.980  56.781 -58.075  1.00  0.00    -0.375 N 
HETATM   10  C   UNL     1     -43.987  57.856 -58.203  1.00  0.00     0.150 C 
HETATM   11  C   UNL     1     -45.317  57.301 -58.763  1.00  0.00     0.254 C 
HETATM   12  N   UNL     1     -45.080  56.555 -60.077  1.00  0.00    -0.072 N 
HETATM   13  C   UNL     1     -46.358  56.039 -60.667  1.00  0.00     0.269 C 
HETATM   14  H   UNL     1     -44.682  57.229 -60.744  1.00  0.00     0.279 HD
HETATM   15  C   UNL     1     -44.043  55.441 -59.896  1.00  0.00     0.254 C 
HETATM   16  C   UNL     1     -42.735  56.024 -59.321  1.00  0.00     0.150 C 
ENDBRANCH   1   9
BRANCH   6  17
HETATM   17  N   UNL     1     -42.390  54.191 -53.067  1.00  0.00    -0.114 N 
HETATM   18  O   UNL     1     -41.310  53.621 -52.869  1.00  0.00    -0.532 OA
HETATM   19  O   UNL     1     -43.379  54.169 -52.325  1.00  0.00    -0.532 OA
ENDBRANCH   6  17
TORSDOF 2
ENDMDL
MODEL 8
REMARK VINA RESULT:      -5.5      2.905      3.569
REMARK  2 active torsions:
REMARK  status: ('A' for Active; 'I' for Inactive)
REMARK    1  A    between atoms: N_6  and  C_7 
REMARK    2  A    between atoms: C_12  and  N_13 
ROOT
HETATM    1  C   UNL     1     -41.911  55.043 -53.589  1.00  0.00     0.070 A 
HETATM    2  C   UNL     1     -41.431  55.225 -52.269  1.00  0.00     0.162 A 
HETATM    3  F   UNL     1     -41.583  56.425 -51.681  1.00  0.00    -0.202 F 
HETATM    4  C   UNL     1     -40.761  54.220 -51.557  1.00  0.00     0.084 A 
HETATM    5 BR   UNL     1     -40.197  54.591 -49.783  1.00  0.00    -0.045 Br
HETATM    6  C   UNL     1     -40.563  52.995 -52.182  1.00  0.00     0.123 A 
HETATM    7  C   UNL     1     -41.028  52.756 -53.477  1.00  0.00     0.040 A 
HETATM    8  C   UNL     1     -41.698  53.774 -54.164  1.00  0.00     0.035 A 
ENDROOT
BRANCH   1   9
HETATM    9  N   UNL     1     -42.614  56.013 -54.314  1.00  0.00    -0.375 N 
HETATM   10  C   UNL     1     -41.856  57.128 -54.920  1.00  0.00     0.150 C 
HETATM   11  C   UNL     1     -41.915  58.387 -54.024  1.00  0.00     0.254 C 
HETATM   12  N   UNL     1     -43.364  58.759 -53.711  1.00  0.00    -0.072 N 
HETATM   13  C   UNL     1     -43.457  60.001 -52.875  1.00  0.00     0.269 C 
HETATM   14  H   UNL     1     -43.830  58.955 -54.607  1.00  0.00     0.279 HD
HETATM   15  C   UNL     1     -44.108  57.582 -53.070  1.00  0.00     0.254 C 
HETATM   16  C   UNL     1     -44.017  56.339 -53.981  1.00  0.00     0.150 C 
ENDBRANCH   1   9
BRANCH   6  17
HETATM   17  N   UNL     1     -39.856  51.924 -51.518  1.00  0.00    -0.114 N 
HETATM   18  O   UNL     1     -40.346  51.505 -50.462  1.00  0.00    -0.532 OA
HETATM   19  O   UNL     1     -38.795  51.554 -52.034  1.00  0.00    -0.532 OA
ENDBRANCH   6  17
TORSDOF 2
ENDMDL
MODEL 9
REMARK VINA RESULT:      -5.5      4.758      5.718
REMARK  2 active torsions:
REMARK  status: ('A' for Active; 'I' for Inactive)
REMARK    1  A    between atoms: N_6  and  C_7 
REMARK    2  A    between atoms: C_12  and  N_13 
ROOT
HETATM    1  C   UNL     1     -42.525  54.892 -53.798  1.00  0.00     0.070 A 
HETATM    2  C   UNL     1     -42.198  56.262 -53.654  1.00  0.00     0.162 A 
HETATM    3  F   UNL     1     -41.804  56.715 -52.450  1.00  0.00    -0.202 F 
HETATM    4  C   UNL     1     -42.307  57.185 -54.704  1.00  0.00     0.084 A 
HETATM    5 BR   UNL     1     -41.807  58.987 -54.380  1.00  0.00    -0.045 Br
HETATM    6  C   UNL     1     -42.759  56.726 -55.935  1.00  0.00     0.123 A 
HETATM    7  C   UNL     1     -43.081  55.382 -56.137  1.00  0.00     0.040 A 
HETATM    8  C   UNL     1     -42.958  54.481 -55.074  1.00  0.00     0.035 A 
ENDROOT
BRANCH   1   9
HETATM    9  N   UNL     1     -42.393  53.939 -52.781  1.00  0.00    -0.375 N 
HETATM   10  C   UNL     1     -43.394  53.925 -51.692  1.00  0.00     0.150 C 
HETATM   11  C   UNL     1     -42.868  54.681 -50.450  1.00  0.00     0.254 C 
HETATM   12  N   UNL     1     -41.513  54.124 -50.013  1.00  0.00    -0.072 N 
HETATM   13  C   UNL     1     -40.994  54.810 -48.785  1.00  0.00     0.269 C 
HETATM   14  H   UNL     1     -41.652  53.132 -49.777  1.00  0.00     0.279 HD
HETATM   15  C   UNL     1     -40.503  54.172 -51.164  1.00  0.00     0.254 C 
HETATM   16  C   UNL     1     -41.064  53.423 -52.392  1.00  0.00     0.150 C 
ENDBRANCH   1   9
BRANCH   6  17
HETATM   17  N   UNL     1     -42.922  57.627 -57.053  1.00  0.00    -0.114 N 
HETATM   18  O   UNL     1     -41.939  57.788 -57.787  1.00  0.00    -0.532 OA
HETATM   19  O   UNL     1     -44.013  58.200 -57.151  1.00  0.00    -0.532 OA
ENDBRANCH   6  17
TORSDOF 2
ENDMDL
MODEL 10
REMARK VINA RESULT:      -5.5      4.903      5.885
REMARK  2 active torsions:
REMARK  status: ('A' for Active; 'I' for Inactive)
REMARK    1  A    between atoms: N_6  and  C_7 
REMARK    2  A    between atoms: C_12  and  N_13 
ROOT
HETATM    1  C   UNL     1     -43.186  55.744 -53.253  1.00  0.00     0.070 A 
HETATM    2  C   UNL     1     -44.038  56.692 -53.871  1.00  0.00     0.162 A 
HETATM    3  F   UNL     1     -44.992  57.289 -53.134  1.00  0.00    -0.202 F 
HETATM    4  C   UNL     1     -43.962  57.007 -55.235  1.00  0.00     0.084 A 
HETATM    5 BR   UNL     1     -45.148  58.318 -55.926  1.00  0.00    -0.045 Br
HETATM    6  C   UNL     1     -43.008  56.356 -56.006  1.00  0.00     0.123 A 
HETATM    7  C   UNL     1     -42.132  55.424 -55.445  1.00  0.00     0.040 A 
HETATM    8  C   UNL     1     -42.225  55.132 -54.081  1.00  0.00     0.035 A 
ENDROOT
BRANCH   1   9
HETATM    9  N   UNL     1     -43.211  55.433 -51.888  1.00  0.00    -0.375 N 
HETATM   10  C   UNL     1     -42.687  56.428 -50.928  1.00  0.00     0.150 C 
HETATM   11  C   UNL     1     -41.231  56.095 -50.527  1.00  0.00     0.254 C 
HETATM   12  N   UNL     1     -41.129  54.661 -50.007  1.00  0.00    -0.072 N 
HETATM   13  C   UNL     1     -39.735  54.320 -49.573  1.00  0.00     0.269 C 
HETATM   14  H   UNL     1     -41.735  54.592 -49.179  1.00  0.00     0.279 HD
HETATM   15  C   UNL     1     -41.666  53.663 -51.039  1.00  0.00     0.254 C 
HETATM   16  C   UNL     1     -43.114  54.032 -51.428  1.00  0.00     0.150 C 
ENDBRANCH   1   9
BRANCH   6  17
HETATM   17  N   UNL     1     -42.893  56.612 -57.423  1.00  0.00    -0.114 N 
HETATM   18  O   UNL     1     -43.449  55.808 -58.182  1.00  0.00    -0.532 OA
HETATM   19  O   UNL     1     -42.204  57.583 -57.759  1.00  0.00    -0.532 OA
ENDBRANCH   6  17
TORSDOF 2
ENDMDL
