MODEL 1
REMARK VINA RESULT:      -7.5      0.000      0.000
REMARK  8 active torsions:
REMARK  status: ('A' for Active; 'I' for Inactive)
REMARK    1  A    between atoms: O_2  and  C_3 
REMARK    2  A    between atoms: C_4  and  O_5 
REMARK    3  A    between atoms: O_5  and  C_6 
REMARK    4  A    between atoms: C_6  and  C_7 
REMARK       I    between atoms: C_7  and  N_8 
REMARK    5  A    between atoms: N_8  and  C_9 
REMARK    6  A    between atoms: C_9  and  N_10 
REMARK    7  A    between atoms: N_10  and  N_11 
REMARK       I    between atoms: N_11  and  C_12 
REMARK       I    between atoms: C_12  and  N_13 
REMARK    8  A    between atoms: N_13  and  C_14 
ROOT
HETATM    1  C   UNL     1     -42.092  56.412 -50.859  1.00  0.00     0.189 C 
HETATM    2  S   UNL     1     -43.513  56.364 -51.727  1.00  0.00    -0.039 SA
ENDROOT
BRANCH   1   3
HETATM    3  N   UNL     1     -41.181  55.385 -50.679  1.00  0.00    -0.301 N 
HETATM    4  C   UNL     1     -40.930  54.620 -49.534  1.00  0.00     0.248 C 
HETATM    5  O   UNL     1     -40.979  55.042 -48.384  1.00  0.00    -0.271 OA
HETATM    6  H   UNL     1     -40.775  55.050 -51.536  1.00  0.00     0.171 HD
BRANCH   4   7
HETATM    7  C   UNL     1     -40.505  53.189 -49.890  1.00  0.00     0.278 C 
BRANCH   7   8
HETATM    8  O   UNL     1     -39.537  53.173 -50.924  1.00  0.00    -0.339 OA
BRANCH   8   9
HETATM    9  C   UNL     1     -39.741  52.356 -52.002  1.00  0.00     0.102 A 
HETATM   10  C   UNL     1     -40.306  52.913 -53.165  1.00  0.00     0.101 A 
HETATM   11  C   UNL     1     -40.564  52.088 -54.271  1.00  0.00     0.039 A 
HETATM   12  C   UNL     1     -40.258  50.729 -54.245  1.00  0.00     0.003 A 
HETATM   13  C   UNL     1     -39.698  50.176 -53.100  1.00  0.00     0.003 A 
HETATM   14  C   UNL     1     -39.449  50.982 -51.985  1.00  0.00     0.039 A 
BRANCH  10  15
HETATM   15  O   UNL     1     -40.681  54.213 -53.392  1.00  0.00    -0.353 OA
HETATM   16  C   UNL     1     -40.338  54.813 -54.634  1.00  0.00     0.210 C 
ENDBRANCH  10  15
ENDBRANCH   8   9
ENDBRANCH   7   8
ENDBRANCH   4   7
ENDBRANCH   1   3
BRANCH   1  17
HETATM   17  N   UNL     1     -41.729  57.612 -50.283  1.00  0.00    -0.289 N 
HETATM   18  H   UNL     1     -42.112  57.821 -49.360  1.00  0.00     0.183 HD
BRANCH  17  19
HETATM   19  N   UNL     1     -40.620  58.373 -50.709  1.00  0.00    -0.153 NA
HETATM   20  C   UNL     1     -40.733  59.181 -51.806  1.00  0.00     0.317 C 
HETATM   21  N   UNL     1     -41.890  59.808 -52.122  1.00  0.00    -0.312 N 
HETATM   22  O   UNL     1     -39.773  59.247 -52.578  1.00  0.00    -0.252 OA
HETATM   23  H   UNL     1     -41.883  60.112 -53.090  1.00  0.00     0.170 HD
HETATM   24  H   UNL     1     -39.761  57.844 -50.825  1.00  0.00     0.157 HD
BRANCH  21  25
HETATM   25  C   UNL     1     -42.977  60.270 -51.361  1.00  0.00     0.035 A 
HETATM   26  C   UNL     1     -42.854  61.065 -50.222  1.00  0.00     0.029 A 
HETATM   27  C   UNL     1     -43.994  61.487 -49.532  1.00  0.00     0.002 A 
HETATM   28  C   UNL     1     -45.264  61.133 -49.986  1.00  0.00     0.000 A 
HETATM   29  C   UNL     1     -45.397  60.367 -51.139  1.00  0.00     0.002 A 
HETATM   30  C   UNL     1     -44.258  59.946 -51.829  1.00  0.00     0.029 A 
ENDBRANCH  21  25
ENDBRANCH  17  19
ENDBRANCH   1  17
TORSDOF 8
ENDMDL
MODEL 2
REMARK VINA RESULT:      -7.4      2.283      3.015
REMARK  8 active torsions:
REMARK  status: ('A' for Active; 'I' for Inactive)
REMARK    1  A    between atoms: O_2  and  C_3 
REMARK    2  A    between atoms: C_4  and  O_5 
REMARK    3  A    between atoms: O_5  and  C_6 
REMARK    4  A    between atoms: C_6  and  C_7 
REMARK       I    between atoms: C_7  and  N_8 
REMARK    5  A    between atoms: N_8  and  C_9 
REMARK    6  A    between atoms: C_9  and  N_10 
REMARK    7  A    between atoms: N_10  and  N_11 
REMARK       I    between atoms: N_11  and  C_12 
REMARK       I    between atoms: C_12  and  N_13 
REMARK    8  A    between atoms: N_13  and  C_14 
ROOT
HETATM    1  C   UNL     1     -41.584  56.049 -51.056  1.00  0.00     0.189 C 
HETATM    2  S   UNL     1     -41.320  57.648 -50.668  1.00  0.00    -0.039 SA
ENDROOT
BRANCH   1   3
HETATM    3  N   UNL     1     -40.797  54.961 -50.721  1.00  0.00    -0.301 N 
HETATM    4  C   UNL     1     -40.894  54.110 -49.614  1.00  0.00     0.248 C 
HETATM    5  O   UNL     1     -41.234  54.461 -48.490  1.00  0.00    -0.271 OA
HETATM    6  H   UNL     1     -40.189  54.658 -51.463  1.00  0.00     0.171 HD
BRANCH   4   7
HETATM    7  C   UNL     1     -40.447  52.682 -49.955  1.00  0.00     0.278 C 
BRANCH   7   8
HETATM    8  O   UNL     1     -39.491  52.669 -51.000  1.00  0.00    -0.339 OA
BRANCH   8   9
HETATM    9  C   UNL     1     -39.653  51.780 -52.027  1.00  0.00     0.102 A 
HETATM   10  C   UNL     1     -40.037  52.277 -53.286  1.00  0.00     0.101 A 
HETATM   11  C   UNL     1     -40.251  51.382 -54.346  1.00  0.00     0.039 A 
HETATM   12  C   UNL     1     -40.076  50.010 -54.179  1.00  0.00     0.003 A 
HETATM   13  C   UNL     1     -39.694  49.516 -52.938  1.00  0.00     0.003 A 
HETATM   14  C   UNL     1     -39.493  50.394 -51.869  1.00  0.00     0.039 A 
BRANCH  10  15
HETATM   15  O   UNL     1     -40.264  53.578 -53.657  1.00  0.00    -0.353 OA
HETATM   16  C   UNL     1     -40.149  53.925 -55.030  1.00  0.00     0.210 C 
ENDBRANCH  10  15
ENDBRANCH   8   9
ENDBRANCH   7   8
ENDBRANCH   4   7
ENDBRANCH   1   3
BRANCH   1  17
HETATM   17  N   UNL     1     -42.737  55.736 -51.746  1.00  0.00    -0.289 N 
HETATM   18  H   UNL     1     -43.577  56.269 -51.518  1.00  0.00     0.183 HD
BRANCH  17  19
HETATM   19  N   UNL     1     -42.744  55.007 -52.954  1.00  0.00    -0.153 NA
HETATM   20  C   UNL     1     -43.610  55.357 -53.952  1.00  0.00     0.317 C 
HETATM   21  N   UNL     1     -43.975  56.642 -54.171  1.00  0.00    -0.312 N 
HETATM   22  O   UNL     1     -44.145  54.452 -54.598  1.00  0.00    -0.252 OA
HETATM   23  H   UNL     1     -44.819  56.686 -54.733  1.00  0.00     0.170 HD
HETATM   24  H   UNL     1     -42.823  54.001 -52.842  1.00  0.00     0.157 HD
BRANCH  21  25
HETATM   25  C   UNL     1     -43.345  57.877 -53.946  1.00  0.00     0.035 A 
HETATM   26  C   UNL     1     -42.115  58.240 -54.495  1.00  0.00     0.029 A 
HETATM   27  C   UNL     1     -41.566  59.496 -54.223  1.00  0.00     0.002 A 
HETATM   28  C   UNL     1     -42.251  60.405 -53.416  1.00  0.00     0.000 A 
HETATM   29  C   UNL     1     -43.492  60.063 -52.891  1.00  0.00     0.002 A 
HETATM   30  C   UNL     1     -44.040  58.808 -53.163  1.00  0.00     0.029 A 
ENDBRANCH  21  25
ENDBRANCH  17  19
ENDBRANCH   1  17
TORSDOF 8
ENDMDL
MODEL 3
REMARK VINA RESULT:      -7.3      2.514      3.447
REMARK  8 active torsions:
REMARK  status: ('A' for Active; 'I' for Inactive)
REMARK    1  A    between atoms: O_2  and  C_3 
REMARK    2  A    between atoms: C_4  and  O_5 
REMARK    3  A    between atoms: O_5  and  C_6 
REMARK    4  A    between atoms: C_6  and  C_7 
REMARK       I    between atoms: C_7  and  N_8 
REMARK    5  A    between atoms: N_8  and  C_9 
REMARK    6  A    between atoms: C_9  and  N_10 
REMARK    7  A    between atoms: N_10  and  N_11 
REMARK       I    between atoms: N_11  and  C_12 
REMARK       I    between atoms: C_12  and  N_13 
REMARK    8  A    between atoms: N_13  and  C_14 
ROOT
HETATM    1  C   UNL     1     -41.454  56.728 -50.853  1.00  0.00     0.189 C 
HETATM    2  S   UNL     1     -41.082  58.342 -50.669  1.00  0.00    -0.039 SA
ENDROOT
BRANCH   1   3
HETATM    3  N   UNL     1     -40.907  55.655 -50.171  1.00  0.00    -0.301 N 
HETATM    4  C   UNL     1     -41.503  54.440 -49.815  1.00  0.00     0.248 C 
HETATM    5  O   UNL     1     -42.676  54.306 -49.485  1.00  0.00    -0.271 OA
HETATM    6  H   UNL     1     -39.907  55.706 -50.073  1.00  0.00     0.171 HD
BRANCH   4   7
HETATM    7  C   UNL     1     -40.488  53.289 -49.813  1.00  0.00     0.278 C 
BRANCH   7   8
HETATM    8  O   UNL     1     -39.563  53.406 -50.880  1.00  0.00    -0.339 OA
BRANCH   8   9
HETATM    9  C   UNL     1     -39.757  52.647 -52.002  1.00  0.00     0.102 A 
HETATM   10  C   UNL     1     -40.287  53.270 -53.146  1.00  0.00     0.101 A 
HETATM   11  C   UNL     1     -40.535  52.505 -54.297  1.00  0.00     0.039 A 
HETATM   12  C   UNL     1     -40.250  51.142 -54.333  1.00  0.00     0.003 A 
HETATM   13  C   UNL     1     -39.724  50.524 -53.206  1.00  0.00     0.003 A 
HETATM   14  C   UNL     1     -39.488  51.269 -52.047  1.00  0.00     0.039 A 
BRANCH  10  15
HETATM   15  O   UNL     1     -40.637  54.586 -53.316  1.00  0.00    -0.353 OA
HETATM   16  C   UNL     1     -40.709  55.106 -54.637  1.00  0.00     0.210 C 
ENDBRANCH  10  15
ENDBRANCH   8   9
ENDBRANCH   7   8
ENDBRANCH   4   7
ENDBRANCH   1   3
BRANCH   1  17
HETATM   17  N   UNL     1     -42.454  56.395 -51.744  1.00  0.00    -0.289 N 
HETATM   18  H   UNL     1     -42.173  55.927 -52.607  1.00  0.00     0.183 HD
BRANCH  17  19
HETATM   19  N   UNL     1     -43.819  56.335 -51.393  1.00  0.00    -0.153 NA
HETATM   20  C   UNL     1     -44.613  57.435 -51.563  1.00  0.00     0.317 C 
HETATM   21  N   UNL     1     -44.422  58.309 -52.578  1.00  0.00    -0.312 N 
HETATM   22  O   UNL     1     -45.458  57.678 -50.699  1.00  0.00    -0.252 OA
HETATM   23  H   UNL     1     -44.889  59.189 -52.389  1.00  0.00     0.170 HD
HETATM   24  H   UNL     1     -44.001  55.989 -50.455  1.00  0.00     0.157 HD
BRANCH  21  25
HETATM   25  C   UNL     1     -43.887  58.186 -53.872  1.00  0.00     0.035 A 
HETATM   26  C   UNL     1     -44.387  57.324 -54.848  1.00  0.00     0.029 A 
HETATM   27  C   UNL     1     -43.796  57.274 -56.113  1.00  0.00     0.002 A 
HETATM   28  C   UNL     1     -42.714  58.099 -56.418  1.00  0.00     0.000 A 
HETATM   29  C   UNL     1     -42.229  58.985 -55.462  1.00  0.00     0.002 A 
HETATM   30  C   UNL     1     -42.820  59.034 -54.197  1.00  0.00     0.029 A 
ENDBRANCH  21  25
ENDBRANCH  17  19
ENDBRANCH   1  17
TORSDOF 8
ENDMDL
MODEL 4
REMARK VINA RESULT:      -7.3      4.743      6.600
REMARK  8 active torsions:
REMARK  status: ('A' for Active; 'I' for Inactive)
REMARK    1  A    between atoms: O_2  and  C_3 
REMARK    2  A    between atoms: C_4  and  O_5 
REMARK    3  A    between atoms: O_5  and  C_6 
REMARK    4  A    between atoms: C_6  and  C_7 
REMARK       I    between atoms: C_7  and  N_8 
REMARK    5  A    between atoms: N_8  and  C_9 
REMARK    6  A    between atoms: C_9  and  N_10 
REMARK    7  A    between atoms: N_10  and  N_11 
REMARK       I    between atoms: N_11  and  C_12 
REMARK       I    between atoms: C_12  and  N_13 
REMARK    8  A    between atoms: N_13  and  C_14 
ROOT
HETATM    1  C   UNL     1     -44.846  57.380 -54.514  1.00  0.00     0.189 C 
HETATM    2  S   UNL     1     -44.741  58.900 -53.838  1.00  0.00    -0.039 SA
ENDROOT
BRANCH   1   3
HETATM    3  N   UNL     1     -44.513  56.172 -53.924  1.00  0.00    -0.301 N 
HETATM    4  C   UNL     1     -43.552  55.235 -54.318  1.00  0.00     0.248 C 
HETATM    5  O   UNL     1     -43.265  54.972 -55.481  1.00  0.00    -0.271 OA
HETATM    6  H   UNL     1     -44.905  56.049 -53.007  1.00  0.00     0.171 HD
BRANCH   4   7
HETATM    7  C   UNL     1     -42.941  54.508 -53.113  1.00  0.00     0.278 C 
BRANCH   7   8
HETATM    8  O   UNL     1     -41.527  54.471 -53.186  1.00  0.00    -0.339 OA
BRANCH   8   9
HETATM    9  C   UNL     1     -40.902  53.254 -53.195  1.00  0.00     0.102 A 
HETATM   10  C   UNL     1     -40.129  52.892 -52.076  1.00  0.00     0.101 A 
HETATM   11  C   UNL     1     -39.443  51.668 -52.077  1.00  0.00     0.039 A 
HETATM   12  C   UNL     1     -39.525  50.795 -53.160  1.00  0.00     0.003 A 
HETATM   13  C   UNL     1     -40.289  51.147 -54.265  1.00  0.00     0.003 A 
HETATM   14  C   UNL     1     -40.965  52.371 -54.286  1.00  0.00     0.039 A 
BRANCH  10  15
HETATM   15  O   UNL     1     -39.916  53.602 -50.921  1.00  0.00    -0.353 OA
HETATM   16  C   UNL     1     -40.422  53.082 -49.700  1.00  0.00     0.210 C 
ENDBRANCH  10  15
ENDBRANCH   8   9
ENDBRANCH   7   8
ENDBRANCH   4   7
ENDBRANCH   1   3
BRANCH   1  17
HETATM   17  N   UNL     1     -45.368  57.276 -55.787  1.00  0.00    -0.289 N 
HETATM   18  H   UNL     1     -45.167  56.419 -56.305  1.00  0.00     0.183 HD
BRANCH  17  19
HETATM   19  N   UNL     1     -46.422  58.085 -56.262  1.00  0.00    -0.153 NA
HETATM   20  C   UNL     1     -46.211  58.917 -57.326  1.00  0.00     0.317 C 
HETATM   21  N   UNL     1     -45.365  58.598 -58.333  1.00  0.00    -0.312 N 
HETATM   22  O   UNL     1     -46.735  60.033 -57.300  1.00  0.00    -0.252 OA
HETATM   23  H   UNL     1     -45.110  59.423 -58.865  1.00  0.00     0.170 HD
HETATM   24  H   UNL     1     -46.888  58.638 -55.549  1.00  0.00     0.157 HD
BRANCH  21  25
HETATM   25  C   UNL     1     -44.935  57.378 -58.883  1.00  0.00     0.035 A 
HETATM   26  C   UNL     1     -43.648  56.861 -58.732  1.00  0.00     0.029 A 
HETATM   27  C   UNL     1     -43.311  55.633 -59.309  1.00  0.00     0.002 A 
HETATM   28  C   UNL     1     -44.262  54.906 -60.024  1.00  0.00     0.000 A 
HETATM   29  C   UNL     1     -45.555  55.399 -60.152  1.00  0.00     0.002 A 
HETATM   30  C   UNL     1     -45.892  56.626 -59.576  1.00  0.00     0.029 A 
ENDBRANCH  21  25
ENDBRANCH  17  19
ENDBRANCH   1  17
TORSDOF 8
ENDMDL
MODEL 5
REMARK VINA RESULT:      -7.2      1.723      2.537
REMARK  8 active torsions:
REMARK  status: ('A' for Active; 'I' for Inactive)
REMARK    1  A    between atoms: O_2  and  C_3 
REMARK    2  A    between atoms: C_4  and  O_5 
REMARK    3  A    between atoms: O_5  and  C_6 
REMARK    4  A    between atoms: C_6  and  C_7 
REMARK       I    between atoms: C_7  and  N_8 
REMARK    5  A    between atoms: N_8  and  C_9 
REMARK    6  A    between atoms: C_9  and  N_10 
REMARK    7  A    between atoms: N_10  and  N_11 
REMARK       I    between atoms: N_11  and  C_12 
REMARK       I    between atoms: C_12  and  N_13 
REMARK    8  A    between atoms: N_13  and  C_14 
ROOT
HETATM    1  C   UNL     1     -41.885  55.908 -50.797  1.00  0.00     0.189 C 
HETATM    2  S   UNL     1     -43.541  55.834 -50.963  1.00  0.00    -0.039 SA
ENDROOT
BRANCH   1   3
HETATM    3  N   UNL     1     -41.012  54.852 -50.596  1.00  0.00    -0.301 N 
HETATM    4  C   UNL     1     -40.901  53.998 -49.493  1.00  0.00     0.248 C 
HETATM    5  O   UNL     1     -41.076  54.334 -48.327  1.00  0.00    -0.271 OA
HETATM    6  H   UNL     1     -40.515  54.574 -51.425  1.00  0.00     0.171 HD
BRANCH   4   7
HETATM    7  C   UNL     1     -40.455  52.589 -49.908  1.00  0.00     0.278 C 
BRANCH   7   8
HETATM    8  O   UNL     1     -39.510  52.630 -50.963  1.00  0.00    -0.339 OA
BRANCH   8   9
HETATM    9  C   UNL     1     -39.711  51.832 -52.055  1.00  0.00     0.102 A 
HETATM   10  C   UNL     1     -40.252  52.413 -53.217  1.00  0.00     0.101 A 
HETATM   11  C   UNL     1     -40.507  51.607 -54.338  1.00  0.00     0.039 A 
HETATM   12  C   UNL     1     -40.220  50.244 -54.328  1.00  0.00     0.003 A 
HETATM   13  C   UNL     1     -39.683  49.668 -53.184  1.00  0.00     0.003 A 
HETATM   14  C   UNL     1     -39.439  50.454 -52.054  1.00  0.00     0.039 A 
BRANCH  10  15
HETATM   15  O   UNL     1     -40.606  53.721 -53.431  1.00  0.00    -0.353 OA
HETATM   16  C   UNL     1     -41.843  53.995 -54.073  1.00  0.00     0.210 C 
ENDBRANCH  10  15
ENDBRANCH   8   9
ENDBRANCH   7   8
ENDBRANCH   4   7
ENDBRANCH   1   3
BRANCH   1  17
HETATM   17  N   UNL     1     -41.279  57.141 -50.919  1.00  0.00    -0.289 N 
HETATM   18  H   UNL     1     -40.649  57.275 -51.712  1.00  0.00     0.183 HD
BRANCH  17  19
HETATM   19  N   UNL     1     -41.734  58.299 -50.254  1.00  0.00    -0.153 NA
HETATM   20  C   UNL     1     -41.698  59.507 -50.893  1.00  0.00     0.317 C 
HETATM   21  N   UNL     1     -41.886  59.621 -52.228  1.00  0.00    -0.312 N 
HETATM   22  O   UNL     1     -41.380  60.500 -50.235  1.00  0.00    -0.252 OA
HETATM   23  H   UNL     1     -41.542  60.514 -52.566  1.00  0.00     0.170 HD
HETATM   24  H   UNL     1     -41.332  58.446 -49.333  1.00  0.00     0.157 HD
BRANCH  21  25
HETATM   25  C   UNL     1     -42.602  58.864 -53.171  1.00  0.00     0.035 A 
HETATM   26  C   UNL     1     -43.990  58.728 -53.175  1.00  0.00     0.029 A 
HETATM   27  C   UNL     1     -44.619  57.960 -54.159  1.00  0.00     0.002 A 
HETATM   28  C   UNL     1     -43.867  57.340 -55.157  1.00  0.00     0.000 A 
HETATM   29  C   UNL     1     -42.486  57.497 -55.179  1.00  0.00     0.002 A 
HETATM   30  C   UNL     1     -41.858  58.264 -54.195  1.00  0.00     0.029 A 
ENDBRANCH  21  25
ENDBRANCH  17  19
ENDBRANCH   1  17
TORSDOF 8
ENDMDL
MODEL 6
REMARK VINA RESULT:      -7.1      4.376      6.463
REMARK  8 active torsions:
REMARK  status: ('A' for Active; 'I' for Inactive)
REMARK    1  A    between atoms: O_2  and  C_3 
REMARK    2  A    between atoms: C_4  and  O_5 
REMARK    3  A    between atoms: O_5  and  C_6 
REMARK    4  A    between atoms: C_6  and  C_7 
REMARK       I    between atoms: C_7  and  N_8 
REMARK    5  A    between atoms: N_8  and  C_9 
REMARK    6  A    between atoms: C_9  and  N_10 
REMARK    7  A    between atoms: N_10  and  N_11 
REMARK       I    between atoms: N_11  and  C_12 
REMARK       I    between atoms: C_12  and  N_13 
REMARK    8  A    between atoms: N_13  and  C_14 
ROOT
HETATM    1  C   UNL     1     -44.265  56.952 -54.870  1.00  0.00     0.189 C 
HETATM    2  S   UNL     1     -44.716  58.070 -53.721  1.00  0.00    -0.039 SA
ENDROOT
BRANCH   1   3
HETATM    3  N   UNL     1     -43.858  55.645 -54.659  1.00  0.00    -0.301 N 
HETATM    4  C   UNL     1     -42.618  55.054 -54.928  1.00  0.00     0.248 C 
HETATM    5  O   UNL     1     -41.903  55.331 -55.884  1.00  0.00    -0.271 OA
HETATM    6  H   UNL     1     -44.490  55.112 -54.088  1.00  0.00     0.171 HD
BRANCH   4   7
HETATM    7  C   UNL     1     -42.285  53.949 -53.916  1.00  0.00     0.278 C 
BRANCH   7   8
HETATM    8  O   UNL     1     -40.894  53.685 -53.870  1.00  0.00    -0.339 OA
BRANCH   8   9
HETATM    9  C   UNL     1     -40.476  52.426 -53.539  1.00  0.00     0.102 A 
HETATM   10  C   UNL     1     -39.931  52.218 -52.258  1.00  0.00     0.101 A 
HETATM   11  C   UNL     1     -39.455  50.945 -51.908  1.00  0.00     0.039 A 
HETATM   12  C   UNL     1     -39.527  49.877 -52.800  1.00  0.00     0.003 A 
HETATM   13  C   UNL     1     -40.067  50.077 -54.064  1.00  0.00     0.003 A 
HETATM   14  C   UNL     1     -40.529  51.344 -54.433  1.00  0.00     0.039 A 
BRANCH  10  15
HETATM   15  O   UNL     1     -39.767  53.127 -51.243  1.00  0.00    -0.353 OA
HETATM   16  C   UNL     1     -40.822  53.300 -50.308  1.00  0.00     0.210 C 
ENDBRANCH  10  15
ENDBRANCH   8   9
ENDBRANCH   7   8
ENDBRANCH   4   7
ENDBRANCH   1   3
BRANCH   1  17
HETATM   17  N   UNL     1     -44.343  57.324 -56.197  1.00  0.00    -0.289 N 
HETATM   18  H   UNL     1     -45.090  56.908 -56.755  1.00  0.00     0.183 HD
BRANCH  17  19
HETATM   19  N   UNL     1     -43.708  58.470 -56.720  1.00  0.00    -0.153 NA
HETATM   20  C   UNL     1     -42.623  58.330 -57.538  1.00  0.00     0.317 C 
HETATM   21  N   UNL     1     -42.492  57.285 -58.389  1.00  0.00    -0.312 N 
HETATM   22  O   UNL     1     -41.695  59.133 -57.412  1.00  0.00    -0.252 OA
HETATM   23  H   UNL     1     -41.529  57.183 -58.690  1.00  0.00     0.170 HD
HETATM   24  H   UNL     1     -43.462  59.172 -56.028  1.00  0.00     0.157 HD
BRANCH  21  25
HETATM   25  C   UNL     1     -43.415  56.463 -59.058  1.00  0.00     0.035 A 
HETATM   26  C   UNL     1     -43.481  55.078 -58.909  1.00  0.00     0.029 A 
HETATM   27  C   UNL     1     -44.440  54.340 -59.610  1.00  0.00     0.002 A 
HETATM   28  C   UNL     1     -45.350  54.983 -60.448  1.00  0.00     0.000 A 
HETATM   29  C   UNL     1     -45.311  56.367 -60.577  1.00  0.00     0.002 A 
HETATM   30  C   UNL     1     -44.354  57.104 -59.877  1.00  0.00     0.029 A 
ENDBRANCH  21  25
ENDBRANCH  17  19
ENDBRANCH   1  17
TORSDOF 8
ENDMDL
MODEL 7
REMARK VINA RESULT:      -7.1      4.808      7.679
REMARK  8 active torsions:
REMARK  status: ('A' for Active; 'I' for Inactive)
REMARK    1  A    between atoms: O_2  and  C_3 
REMARK    2  A    between atoms: C_4  and  O_5 
REMARK    3  A    between atoms: O_5  and  C_6 
REMARK    4  A    between atoms: C_6  and  C_7 
REMARK       I    between atoms: C_7  and  N_8 
REMARK    5  A    between atoms: N_8  and  C_9 
REMARK    6  A    between atoms: C_9  and  N_10 
REMARK    7  A    between atoms: N_10  and  N_11 
REMARK       I    between atoms: N_11  and  C_12 
REMARK       I    between atoms: C_12  and  N_13 
REMARK    8  A    between atoms: N_13  and  C_14 
ROOT
HETATM    1  C   UNL     1     -44.527  57.810 -54.283  1.00  0.00     0.189 C 
HETATM    2  S   UNL     1     -44.664  57.778 -52.623  1.00  0.00    -0.039 SA
ENDROOT
BRANCH   1   3
HETATM    3  N   UNL     1     -45.476  58.234 -55.198  1.00  0.00    -0.301 N 
HETATM    4  C   UNL     1     -45.336  59.139 -56.255  1.00  0.00     0.248 C 
HETATM    5  O   UNL     1     -44.623  60.136 -56.235  1.00  0.00    -0.271 OA
HETATM    6  H   UNL     1     -46.319  57.687 -55.188  1.00  0.00     0.171 HD
BRANCH   4   7
HETATM    7  C   UNL     1     -46.250  58.779 -57.435  1.00  0.00     0.278 C 
BRANCH   7   8
HETATM    8  O   UNL     1     -45.514  58.607 -58.633  1.00  0.00    -0.339 OA
BRANCH   8   9
HETATM    9  C   UNL     1     -45.162  57.341 -59.011  1.00  0.00     0.102 A 
HETATM   10  C   UNL     1     -43.897  56.856 -58.628  1.00  0.00     0.101 A 
HETATM   11  C   UNL     1     -43.495  55.576 -59.038  1.00  0.00     0.039 A 
HETATM   12  C   UNL     1     -44.330  54.767 -59.805  1.00  0.00     0.003 A 
HETATM   13  C   UNL     1     -45.580  55.241 -60.183  1.00  0.00     0.003 A 
HETATM   14  C   UNL     1     -45.989  56.520 -59.796  1.00  0.00     0.039 A 
BRANCH  10  15
HETATM   15  O   UNL     1     -42.932  57.487 -57.884  1.00  0.00    -0.353 OA
HETATM   16  C   UNL     1     -42.042  58.379 -58.540  1.00  0.00     0.210 C 
ENDBRANCH  10  15
ENDBRANCH   8   9
ENDBRANCH   7   8
ENDBRANCH   4   7
ENDBRANCH   1   3
BRANCH   1  17
HETATM   17  N   UNL     1     -43.325  57.422 -54.837  1.00  0.00    -0.289 N 
HETATM   18  H   UNL     1     -43.323  56.569 -55.400  1.00  0.00     0.183 HD
BRANCH  17  19
HETATM   19  N   UNL     1     -42.218  58.286 -54.974  1.00  0.00    -0.153 NA
HETATM   20  C   UNL     1     -41.238  58.290 -54.021  1.00  0.00     0.317 C 
HETATM   21  N   UNL     1     -40.886  57.170 -53.348  1.00  0.00    -0.312 N 
HETATM   22  O   UNL     1     -40.741  59.373 -53.705  1.00  0.00    -0.252 OA
HETATM   23  H   UNL     1     -40.374  57.402 -52.503  1.00  0.00     0.170 HD
HETATM   24  H   UNL     1     -42.457  59.258 -55.147  1.00  0.00     0.157 HD
BRANCH  21  25
HETATM   25  C   UNL     1     -40.919  55.801 -53.664  1.00  0.00     0.035 A 
HETATM   26  C   UNL     1     -40.277  55.236 -54.766  1.00  0.00     0.029 A 
HETATM   27  C   UNL     1     -40.358  53.860 -54.998  1.00  0.00     0.002 A 
HETATM   28  C   UNL     1     -41.065  53.037 -54.121  1.00  0.00     0.000 A 
HETATM   29  C   UNL     1     -41.681  53.588 -53.003  1.00  0.00     0.002 A 
HETATM   30  C   UNL     1     -41.600  54.963 -52.771  1.00  0.00     0.029 A 
ENDBRANCH  21  25
ENDBRANCH  17  19
ENDBRANCH   1  17
TORSDOF 8
ENDMDL
MODEL 8
REMARK VINA RESULT:      -7.1      5.489      7.131
REMARK  8 active torsions:
REMARK  status: ('A' for Active; 'I' for Inactive)
REMARK    1  A    between atoms: O_2  and  C_3 
REMARK    2  A    between atoms: C_4  and  O_5 
REMARK    3  A    between atoms: O_5  and  C_6 
REMARK    4  A    between atoms: C_6  and  C_7 
REMARK       I    between atoms: C_7  and  N_8 
REMARK    5  A    between atoms: N_8  and  C_9 
REMARK    6  A    between atoms: C_9  and  N_10 
REMARK    7  A    between atoms: N_10  and  N_11 
REMARK       I    between atoms: N_11  and  C_12 
REMARK       I    between atoms: C_12  and  N_13 
REMARK    8  A    between atoms: N_13  and  C_14 
ROOT
HETATM    1  C   UNL     1     -43.533  56.948 -56.542  1.00  0.00     0.189 C 
HETATM    2  S   UNL     1     -42.535  58.264 -56.765  1.00  0.00    -0.039 SA
ENDROOT
BRANCH   1   3
HETATM    3  N   UNL     1     -43.742  56.240 -55.371  1.00  0.00    -0.301 N 
HETATM    4  C   UNL     1     -43.341  54.940 -55.045  1.00  0.00     0.248 C 
HETATM    5  O   UNL     1     -43.289  54.003 -55.835  1.00  0.00    -0.271 OA
HETATM    6  H   UNL     1     -44.081  56.805 -54.611  1.00  0.00     0.171 HD
BRANCH   4   7
HETATM    7  C   UNL     1     -43.041  54.797 -53.546  1.00  0.00     0.278 C 
BRANCH   7   8
HETATM    8  O   UNL     1     -41.653  54.887 -53.281  1.00  0.00    -0.339 OA
BRANCH   8   9
HETATM    9  C   UNL     1     -40.963  53.739 -53.001  1.00  0.00     0.102 A 
HETATM   10  C   UNL     1     -40.783  53.380 -51.652  1.00  0.00     0.101 A 
HETATM   11  C   UNL     1     -40.043  52.229 -51.336  1.00  0.00     0.039 A 
HETATM   12  C   UNL     1     -39.496  51.426 -52.335  1.00  0.00     0.003 A 
HETATM   13  C   UNL     1     -39.674  51.776 -53.667  1.00  0.00     0.003 A 
HETATM   14  C   UNL     1     -40.394  52.928 -53.997  1.00  0.00     0.039 A 
BRANCH  10  15
HETATM   15  O   UNL     1     -41.232  54.029 -50.530  1.00  0.00    -0.353 OA
HETATM   16  C   UNL     1     -40.381  54.982 -49.909  1.00  0.00     0.210 C 
ENDBRANCH  10  15
ENDBRANCH   8   9
ENDBRANCH   7   8
ENDBRANCH   4   7
ENDBRANCH   1   3
BRANCH   1  17
HETATM   17  N   UNL     1     -44.289  56.524 -57.615  1.00  0.00    -0.289 N 
HETATM   18  H   UNL     1     -45.011  57.160 -57.959  1.00  0.00     0.183 HD
BRANCH  17  19
HETATM   19  N   UNL     1     -43.905  55.465 -58.465  1.00  0.00    -0.153 NA
HETATM   20  C   UNL     1     -44.320  55.455 -59.767  1.00  0.00     0.317 C 
HETATM   21  N   UNL     1     -44.492  56.595 -60.476  1.00  0.00    -0.312 N 
HETATM   22  O   UNL     1     -44.643  54.374 -60.264  1.00  0.00    -0.252 OA
HETATM   23  H   UNL     1     -45.067  56.428 -61.295  1.00  0.00     0.170 HD
HETATM   24  H   UNL     1     -44.087  54.537 -58.096  1.00  0.00     0.157 HD
BRANCH  21  25
HETATM   25  C   UNL     1     -43.904  57.870 -60.413  1.00  0.00     0.035 A 
HETATM   26  C   UNL     1     -44.611  59.047 -60.166  1.00  0.00     0.029 A 
HETATM   27  C   UNL     1     -43.941  60.273 -60.112  1.00  0.00     0.002 A 
HETATM   28  C   UNL     1     -42.558  60.328 -60.285  1.00  0.00     0.000 A 
HETATM   29  C   UNL     1     -41.842  59.155 -60.499  1.00  0.00     0.002 A 
HETATM   30  C   UNL     1     -42.511  57.931 -60.553  1.00  0.00     0.029 A 
ENDBRANCH  21  25
ENDBRANCH  17  19
ENDBRANCH   1  17
TORSDOF 8
ENDMDL
MODEL 9
REMARK VINA RESULT:      -6.9      3.339      6.524
REMARK  8 active torsions:
REMARK  status: ('A' for Active; 'I' for Inactive)
REMARK    1  A    between atoms: O_2  and  C_3 
REMARK    2  A    between atoms: C_4  and  O_5 
REMARK    3  A    between atoms: O_5  and  C_6 
REMARK    4  A    between atoms: C_6  and  C_7 
REMARK       I    between atoms: C_7  and  N_8 
REMARK    5  A    between atoms: N_8  and  C_9 
REMARK    6  A    between atoms: C_9  and  N_10 
REMARK    7  A    between atoms: N_10  and  N_11 
REMARK       I    between atoms: N_11  and  C_12 
REMARK       I    between atoms: C_12  and  N_13 
REMARK    8  A    between atoms: N_13  and  C_14 
ROOT
HETATM    1  C   UNL     1     -42.885  58.697 -55.378  1.00  0.00     0.189 C 
HETATM    2  S   UNL     1     -43.426  59.964 -56.315  1.00  0.00    -0.039 SA
ENDROOT
BRANCH   1   3
HETATM    3  N   UNL     1     -41.759  58.667 -54.571  1.00  0.00    -0.301 N 
HETATM    4  C   UNL     1     -41.481  59.411 -53.420  1.00  0.00     0.248 C 
HETATM    5  O   UNL     1     -41.822  60.575 -53.238  1.00  0.00    -0.271 OA
HETATM    6  H   UNL     1     -41.150  57.889 -54.757  1.00  0.00     0.171 HD
BRANCH   4   7
HETATM    7  C   UNL     1     -40.620  58.619 -52.426  1.00  0.00     0.278 C 
BRANCH   7   8
HETATM    8  O   UNL     1     -41.294  58.416 -51.197  1.00  0.00    -0.339 OA
BRANCH   8   9
HETATM    9  C   UNL     1     -41.768  57.166 -50.907  1.00  0.00     0.102 A 
HETATM   10  C   UNL     1     -43.015  56.785 -51.436  1.00  0.00     0.101 A 
HETATM   11  C   UNL     1     -43.544  55.524 -51.119  1.00  0.00     0.039 A 
HETATM   12  C   UNL     1     -42.849  54.634 -50.302  1.00  0.00     0.003 A 
HETATM   13  C   UNL     1     -41.617  55.006 -49.780  1.00  0.00     0.003 A 
HETATM   14  C   UNL     1     -41.085  56.265 -50.073  1.00  0.00     0.039 A 
BRANCH  10  15
HETATM   15  O   UNL     1     -43.852  57.506 -52.250  1.00  0.00    -0.353 OA
HETATM   16  C   UNL     1     -44.786  58.393 -51.650  1.00  0.00     0.210 C 
ENDBRANCH  10  15
ENDBRANCH   8   9
ENDBRANCH   7   8
ENDBRANCH   4   7
ENDBRANCH   1   3
BRANCH   1  17
HETATM   17  N   UNL     1     -43.651  57.550 -55.340  1.00  0.00    -0.289 N 
HETATM   18  H   UNL     1     -44.078  57.303 -54.446  1.00  0.00     0.183 HD
BRANCH  17  19
HETATM   19  N   UNL     1     -44.160  56.919 -56.495  1.00  0.00    -0.153 NA
HETATM   20  C   UNL     1     -43.307  56.280 -57.351  1.00  0.00     0.317 C 
HETATM   21  N   UNL     1     -42.192  55.648 -56.917  1.00  0.00    -0.312 N 
HETATM   22  O   UNL     1     -43.520  56.379 -58.561  1.00  0.00    -0.252 OA
HETATM   23  H   UNL     1     -41.544  55.492 -57.682  1.00  0.00     0.170 HD
HETATM   24  H   UNL     1     -44.762  57.503 -57.068  1.00  0.00     0.157 HD
BRANCH  21  25
HETATM   25  C   UNL     1     -41.845  55.022 -55.707  1.00  0.00     0.035 A 
HETATM   26  C   UNL     1     -40.766  55.402 -54.910  1.00  0.00     0.029 A 
HETATM   27  C   UNL     1     -40.500  54.726 -53.716  1.00  0.00     0.002 A 
HETATM   28  C   UNL     1     -41.322  53.679 -53.301  1.00  0.00     0.000 A 
HETATM   29  C   UNL     1     -42.419  53.314 -54.074  1.00  0.00     0.002 A 
HETATM   30  C   UNL     1     -42.684  53.989 -55.267  1.00  0.00     0.029 A 
ENDBRANCH  21  25
ENDBRANCH  17  19
ENDBRANCH   1  17
TORSDOF 8
ENDMDL
MODEL 10
REMARK VINA RESULT:      -6.9      4.286      7.592
REMARK  8 active torsions:
REMARK  status: ('A' for Active; 'I' for Inactive)
REMARK    1  A    between atoms: O_2  and  C_3 
REMARK    2  A    between atoms: C_4  and  O_5 
REMARK    3  A    between atoms: O_5  and  C_6 
REMARK    4  A    between atoms: C_6  and  C_7 
REMARK       I    between atoms: C_7  and  N_8 
REMARK    5  A    between atoms: N_8  and  C_9 
REMARK    6  A    between atoms: C_9  and  N_10 
REMARK    7  A    between atoms: N_10  and  N_11 
REMARK       I    between atoms: N_11  and  C_12 
REMARK       I    between atoms: C_12  and  N_13 
REMARK    8  A    between atoms: N_13  and  C_14 
ROOT
HETATM    1  C   UNL     1     -42.130  58.246 -53.161  1.00  0.00     0.189 C 
HETATM    2  S   UNL     1     -42.048  59.853 -52.726  1.00  0.00    -0.039 SA
ENDROOT
BRANCH   1   3
HETATM    3  N   UNL     1     -42.336  57.727 -54.427  1.00  0.00    -0.301 N 
HETATM    4  C   UNL     1     -43.487  57.135 -54.961  1.00  0.00     0.248 C 
HETATM    5  O   UNL     1     -44.270  56.434 -54.331  1.00  0.00    -0.271 OA
HETATM    6  H   UNL     1     -41.612  57.963 -55.084  1.00  0.00     0.171 HD
BRANCH   4   7
HETATM    7  C   UNL     1     -43.618  57.406 -56.466  1.00  0.00     0.278 C 
BRANCH   7   8
HETATM    8  O   UNL     1     -42.352  57.450 -57.101  1.00  0.00    -0.339 OA
BRANCH   8   9
HETATM    9  C   UNL     1     -42.159  58.344 -58.118  1.00  0.00     0.102 A 
HETATM   10  C   UNL     1     -41.876  59.682 -57.787  1.00  0.00     0.101 A 
HETATM   11  C   UNL     1     -41.715  60.628 -58.812  1.00  0.00     0.039 A 
HETATM   12  C   UNL     1     -41.815  60.264 -60.153  1.00  0.00     0.003 A 
HETATM   13  C   UNL     1     -42.092  58.944 -60.484  1.00  0.00     0.003 A 
HETATM   14  C   UNL     1     -42.272  57.993 -59.474  1.00  0.00     0.039 A 
BRANCH  10  15
HETATM   15  O   UNL     1     -41.740  60.242 -56.542  1.00  0.00    -0.353 OA
HETATM   16  C   UNL     1     -42.772  61.092 -56.062  1.00  0.00     0.210 C 
ENDBRANCH  10  15
ENDBRANCH   8   9
ENDBRANCH   7   8
ENDBRANCH   4   7
ENDBRANCH   1   3
BRANCH   1  17
HETATM   17  N   UNL     1     -41.922  57.301 -52.177  1.00  0.00    -0.289 N 
HETATM   18  H   UNL     1     -40.999  56.868 -52.133  1.00  0.00     0.183 HD
BRANCH  17  19
HETATM   19  N   UNL     1     -42.754  57.163 -51.045  1.00  0.00    -0.153 NA
HETATM   20  C   UNL     1     -43.748  56.225 -51.044  1.00  0.00     0.317 C 
HETATM   21  N   UNL     1     -43.620  55.041 -51.687  1.00  0.00    -0.312 N 
HETATM   22  O   UNL     1     -44.825  56.523 -50.524  1.00  0.00    -0.252 OA
HETATM   23  H   UNL     1     -44.526  54.608 -51.829  1.00  0.00     0.170 HD
HETATM   24  H   UNL     1     -43.172  58.029 -50.718  1.00  0.00     0.157 HD
BRANCH  21  25
HETATM   25  C   UNL     1     -42.517  54.234 -52.016  1.00  0.00     0.035 A 
HETATM   26  C   UNL     1     -42.152  53.901 -53.320  1.00  0.00     0.029 A 
HETATM   27  C   UNL     1     -41.032  53.098 -53.554  1.00  0.00     0.002 A 
HETATM   28  C   UNL     1     -40.259  52.639 -52.488  1.00  0.00     0.000 A 
HETATM   29  C   UNL     1     -40.597  52.994 -51.187  1.00  0.00     0.002 A 
HETATM   30  C   UNL     1     -41.716  53.795 -50.953  1.00  0.00     0.029 A 
ENDBRANCH  21  25
ENDBRANCH  17  19
ENDBRANCH   1  17
TORSDOF 8
ENDMDL
