MODEL 1
REMARK VINA RESULT:      -8.3      0.000      0.000
REMARK  5 active torsions:
REMARK  status: ('A' for Active; 'I' for Inactive)
REMARK    1  A    between atoms: C_5  and  C_6 
REMARK    2  A    between atoms: C_6  and  N_7 
REMARK       I    between atoms: N_7  and  C_8 
REMARK       I    between atoms: C_8  and  N_9 
REMARK    3  A    between atoms: N_9  and  C_10 
REMARK    4  A    between atoms: C_10  and  C_11 
REMARK    5  A    between atoms: N_14  and  C_15 
ROOT
HETATM    1  N   UNL     1     -42.493  54.799 -51.486  1.00  0.00    -0.339 N 
HETATM    2  C   UNL     1     -42.584  56.118 -51.828  1.00  0.00     0.316 C 
HETATM    3  N   UNL     1     -43.789  56.424 -52.393  1.00  0.00    -0.339 N 
HETATM    4  O   UNL     1     -41.680  56.927 -51.667  1.00  0.00    -0.247 OA
HETATM    5  H   UNL     1     -43.261  54.178 -51.685  1.00  0.00     0.164 HD
HETATM    6  H   UNL     1     -44.563  55.796 -52.249  1.00  0.00     0.164 HD
ENDROOT
BRANCH   3   7
HETATM    7  C   UNL     1     -44.104  57.777 -52.789  1.00  0.00     0.165 C 
BRANCH   7   8
HETATM    8  C   UNL     1     -44.315  57.867 -54.272  1.00  0.00    -0.016 A 
HETATM    9  C   UNL     1     -43.350  57.622 -55.245  1.00  0.00     0.021 A 
HETATM   10  C   UNL     1     -41.897  57.340 -55.028  1.00  0.00     0.069 C 
HETATM   11  N   UNL     1     -43.936  57.734 -56.506  1.00  0.00    -0.319 N 
HETATM   12  C   UNL     1     -45.264  58.111 -56.326  1.00  0.00     0.014 A 
HETATM   13  C   UNL     1     -46.263  58.261 -57.422  1.00  0.00     0.068 C 
HETATM   14  C   UNL     1     -45.507  58.188 -54.968  1.00  0.00     0.035 A 
BRANCH  11  15
HETATM   15  C   UNL     1     -43.300  57.477 -57.756  1.00  0.00     0.039 A 
HETATM   16  C   UNL     1     -43.347  56.193 -58.314  1.00  0.00     0.030 A 
HETATM   17  C   UNL     1     -42.734  55.941 -59.543  1.00  0.00     0.002 A 
HETATM   18  C   UNL     1     -42.073  56.966 -60.217  1.00  0.00     0.000 A 
HETATM   19  C   UNL     1     -42.024  58.246 -59.666  1.00  0.00     0.002 A 
HETATM   20  C   UNL     1     -42.638  58.504 -58.437  1.00  0.00     0.030 A 
ENDBRANCH  11  15
ENDBRANCH   7   8
ENDBRANCH   3   7
BRANCH   1  21
HETATM   21  C   UNL     1     -41.261  54.223 -50.994  1.00  0.00     0.162 C 
BRANCH  21  22
HETATM   22  C   UNL     1     -40.706  53.156 -51.903  1.00  0.00    -0.040 A 
HETATM   23  C   UNL     1     -39.972  52.087 -51.367  1.00  0.00     0.009 A 
HETATM   24  C   UNL     1     -39.526  51.045 -52.186  1.00  0.00     0.007 A 
HETATM   25  C   UNL     1     -39.808  51.048 -53.555  1.00  0.00    -0.062 A 
HETATM   26  C   UNL     1     -39.367  49.917 -54.436  1.00  0.00     0.048 C 
HETATM   27  C   UNL     1     -40.544  52.109 -54.093  1.00  0.00     0.007 A 
HETATM   28  C   UNL     1     -40.995  53.148 -53.276  1.00  0.00     0.009 A 
ENDBRANCH  21  22
ENDBRANCH   1  21
TORSDOF 5
ENDMDL
MODEL 2
REMARK VINA RESULT:      -8.1      1.309      1.924
REMARK  5 active torsions:
REMARK  status: ('A' for Active; 'I' for Inactive)
REMARK    1  A    between atoms: C_5  and  C_6 
REMARK    2  A    between atoms: C_6  and  N_7 
REMARK       I    between atoms: N_7  and  C_8 
REMARK       I    between atoms: C_8  and  N_9 
REMARK    3  A    between atoms: N_9  and  C_10 
REMARK    4  A    between atoms: C_10  and  C_11 
REMARK    5  A    between atoms: N_14  and  C_15 
ROOT
HETATM    1  N   UNL     1     -40.985  55.567 -51.498  1.00  0.00    -0.339 N 
HETATM    2  C   UNL     1     -42.111  56.180 -51.967  1.00  0.00     0.316 C 
HETATM    3  N   UNL     1     -41.870  57.459 -52.382  1.00  0.00    -0.339 N 
HETATM    4  O   UNL     1     -43.214  55.651 -51.991  1.00  0.00    -0.247 OA
HETATM    5  H   UNL     1     -40.116  56.076 -51.467  1.00  0.00     0.164 HD
HETATM    6  H   UNL     1     -40.921  57.729 -52.586  1.00  0.00     0.164 HD
ENDROOT
BRANCH   3   7
HETATM    7  C   UNL     1     -42.921  58.268 -52.952  1.00  0.00     0.165 C 
BRANCH   7   8
HETATM    8  C   UNL     1     -42.829  58.293 -54.449  1.00  0.00    -0.016 A 
HETATM    9  C   UNL     1     -43.474  57.415 -55.316  1.00  0.00     0.021 A 
HETATM   10  C   UNL     1     -44.281  56.211 -54.949  1.00  0.00     0.069 C 
HETATM   11  N   UNL     1     -43.206  57.796 -56.631  1.00  0.00    -0.319 N 
HETATM   12  C   UNL     1     -42.339  58.885 -56.591  1.00  0.00     0.014 A 
HETATM   13  C   UNL     1     -41.870  59.644 -57.785  1.00  0.00     0.068 C 
HETATM   14  C   UNL     1     -42.109  59.200 -55.266  1.00  0.00     0.035 A 
BRANCH  11  15
HETATM   15  C   UNL     1     -43.748  57.199 -57.807  1.00  0.00     0.039 A 
HETATM   16  C   UNL     1     -43.074  56.140 -58.429  1.00  0.00     0.030 A 
HETATM   17  C   UNL     1     -43.609  55.547 -59.575  1.00  0.00     0.002 A 
HETATM   18  C   UNL     1     -44.813  56.008 -60.104  1.00  0.00     0.000 A 
HETATM   19  C   UNL     1     -45.487  57.062 -59.488  1.00  0.00     0.002 A 
HETATM   20  C   UNL     1     -44.958  57.657 -58.339  1.00  0.00     0.030 A 
ENDBRANCH  11  15
ENDBRANCH   7   8
ENDBRANCH   3   7
BRANCH   1  21
HETATM   21  C   UNL     1     -41.028  54.258 -50.885  1.00  0.00     0.162 C 
BRANCH  21  22
HETATM   22  C   UNL     1     -40.563  53.161 -51.808  1.00  0.00    -0.040 A 
HETATM   23  C   UNL     1     -39.849  52.068 -51.296  1.00  0.00     0.009 A 
HETATM   24  C   UNL     1     -39.487  51.000 -52.123  1.00  0.00     0.007 A 
HETATM   25  C   UNL     1     -39.834  51.002 -53.477  1.00  0.00    -0.062 A 
HETATM   26  C   UNL     1     -39.484  49.846 -54.366  1.00  0.00     0.048 C 
HETATM   27  C   UNL     1     -40.552  52.087 -53.991  1.00  0.00     0.007 A 
HETATM   28  C   UNL     1     -40.919  53.152 -53.164  1.00  0.00     0.009 A 
ENDBRANCH  21  22
ENDBRANCH   1  21
TORSDOF 5
ENDMDL
MODEL 3
REMARK VINA RESULT:      -7.9      5.209      9.115
REMARK  5 active torsions:
REMARK  status: ('A' for Active; 'I' for Inactive)
REMARK    1  A    between atoms: C_5  and  C_6 
REMARK    2  A    between atoms: C_6  and  N_7 
REMARK       I    between atoms: N_7  and  C_8 
REMARK       I    between atoms: C_8  and  N_9 
REMARK    3  A    between atoms: N_9  and  C_10 
REMARK    4  A    between atoms: C_10  and  C_11 
REMARK    5  A    between atoms: N_14  and  C_15 
ROOT
HETATM    1  N   UNL     1     -44.263  60.702 -49.085  1.00  0.00    -0.339 N 
HETATM    2  C   UNL     1     -44.257  60.246 -50.372  1.00  0.00     0.316 C 
HETATM    3  N   UNL     1     -43.084  59.626 -50.697  1.00  0.00    -0.339 N 
HETATM    4  O   UNL     1     -45.187  60.397 -51.152  1.00  0.00    -0.247 OA
HETATM    5  H   UNL     1     -43.446  60.580 -48.509  1.00  0.00     0.164 HD
HETATM    6  H   UNL     1     -42.488  59.303 -49.953  1.00  0.00     0.164 HD
ENDROOT
BRANCH   3   7
HETATM    7  C   UNL     1     -42.889  59.037 -52.000  1.00  0.00     0.165 C 
BRANCH   7   8
HETATM    8  C   UNL     1     -42.892  57.538 -51.919  1.00  0.00    -0.016 A 
HETATM    9  C   UNL     1     -41.993  56.689 -52.557  1.00  0.00     0.021 A 
HETATM   10  C   UNL     1     -40.929  57.069 -53.537  1.00  0.00     0.069 C 
HETATM   11  N   UNL     1     -42.268  55.373 -52.186  1.00  0.00    -0.319 N 
HETATM   12  C   UNL     1     -43.385  55.390 -51.355  1.00  0.00     0.014 A 
HETATM   13  C   UNL     1     -43.958  54.193 -50.675  1.00  0.00     0.068 C 
HETATM   14  C   UNL     1     -43.768  56.705 -51.180  1.00  0.00     0.035 A 
BRANCH  11  15
HETATM   15  C   UNL     1     -41.520  54.218 -52.562  1.00  0.00     0.039 A 
HETATM   16  C   UNL     1     -41.747  53.611 -53.804  1.00  0.00     0.030 A 
HETATM   17  C   UNL     1     -41.009  52.487 -54.179  1.00  0.00     0.002 A 
HETATM   18  C   UNL     1     -40.045  51.965 -53.318  1.00  0.00     0.000 A 
HETATM   19  C   UNL     1     -39.816  52.566 -52.081  1.00  0.00     0.002 A 
HETATM   20  C   UNL     1     -40.550  53.693 -51.702  1.00  0.00     0.030 A 
ENDBRANCH  11  15
ENDBRANCH   7   8
ENDBRANCH   3   7
BRANCH   1  21
HETATM   21  C   UNL     1     -45.348  61.504 -48.566  1.00  0.00     0.162 C 
BRANCH  21  22
HETATM   22  C   UNL     1     -45.078  62.034 -47.181  1.00  0.00    -0.040 A 
HETATM   23  C   UNL     1     -45.188  63.408 -46.920  1.00  0.00     0.009 A 
HETATM   24  C   UNL     1     -45.026  63.905 -45.623  1.00  0.00     0.007 A 
HETATM   25  C   UNL     1     -44.754  63.038 -44.561  1.00  0.00    -0.062 A 
HETATM   26  C   UNL     1     -44.615  63.554 -43.159  1.00  0.00     0.048 C 
HETATM   27  C   UNL     1     -44.649  61.666 -44.814  1.00  0.00     0.007 A 
HETATM   28  C   UNL     1     -44.815  61.169 -46.109  1.00  0.00     0.009 A 
ENDBRANCH  21  22
ENDBRANCH   1  21
TORSDOF 5
ENDMDL
MODEL 4
REMARK VINA RESULT:      -7.9      3.747      6.505
REMARK  5 active torsions:
REMARK  status: ('A' for Active; 'I' for Inactive)
REMARK    1  A    between atoms: C_5  and  C_6 
REMARK    2  A    between atoms: C_6  and  N_7 
REMARK       I    between atoms: N_7  and  C_8 
REMARK       I    between atoms: C_8  and  N_9 
REMARK    3  A    between atoms: N_9  and  C_10 
REMARK    4  A    between atoms: C_10  and  C_11 
REMARK    5  A    between atoms: N_14  and  C_15 
ROOT
HETATM    1  N   UNL     1     -41.795  55.549 -52.290  1.00  0.00    -0.339 N 
HETATM    2  C   UNL     1     -41.519  56.880 -52.166  1.00  0.00     0.316 C 
HETATM    3  N   UNL     1     -42.147  57.630 -53.120  1.00  0.00    -0.339 N 
HETATM    4  O   UNL     1     -40.777  57.345 -51.312  1.00  0.00    -0.247 OA
HETATM    5  H   UNL     1     -42.382  55.229 -53.044  1.00  0.00     0.164 HD
HETATM    6  H   UNL     1     -42.935  57.233 -53.605  1.00  0.00     0.164 HD
ENDROOT
BRANCH   3   7
HETATM    7  C   UNL     1     -42.019  59.069 -53.140  1.00  0.00     0.165 C 
BRANCH   7   8
HETATM    8  C   UNL     1     -43.121  59.717 -52.356  1.00  0.00    -0.016 A 
HETATM    9  C   UNL     1     -42.975  60.360 -51.130  1.00  0.00     0.021 A 
HETATM   10  C   UNL     1     -41.739  60.437 -50.290  1.00  0.00     0.069 C 
HETATM   11  N   UNL     1     -44.204  60.898 -50.749  1.00  0.00    -0.319 N 
HETATM   12  C   UNL     1     -45.143  60.540 -51.712  1.00  0.00     0.014 A 
HETATM   13  C   UNL     1     -46.566  60.984 -51.721  1.00  0.00     0.068 C 
HETATM   14  C   UNL     1     -44.492  59.826 -52.699  1.00  0.00     0.035 A 
BRANCH  11  15
HETATM   15  C   UNL     1     -44.451  61.700 -49.595  1.00  0.00     0.039 A 
HETATM   16  C   UNL     1     -44.216  63.081 -49.640  1.00  0.00     0.030 A 
HETATM   17  C   UNL     1     -44.466  63.870 -48.516  1.00  0.00     0.002 A 
HETATM   18  C   UNL     1     -44.949  63.286 -47.346  1.00  0.00     0.000 A 
HETATM   19  C   UNL     1     -45.185  61.913 -47.297  1.00  0.00     0.002 A 
HETATM   20  C   UNL     1     -44.939  61.119 -48.421  1.00  0.00     0.030 A 
ENDBRANCH  11  15
ENDBRANCH   7   8
ENDBRANCH   3   7
BRANCH   1  21
HETATM   21  C   UNL     1     -41.137  54.555 -51.472  1.00  0.00     0.162 C 
BRANCH  21  22
HETATM   22  C   UNL     1     -40.634  53.377 -52.267  1.00  0.00    -0.040 A 
HETATM   23  C   UNL     1     -39.876  52.377 -51.640  1.00  0.00     0.009 A 
HETATM   24  C   UNL     1     -39.477  51.236 -52.343  1.00  0.00     0.007 A 
HETATM   25  C   UNL     1     -39.830  51.070 -53.685  1.00  0.00    -0.062 A 
HETATM   26  C   UNL     1     -39.440  49.833 -54.439  1.00  0.00     0.048 C 
HETATM   27  C   UNL     1     -40.590  52.062 -54.314  1.00  0.00     0.007 A 
HETATM   28  C   UNL     1     -40.994  53.200 -53.611  1.00  0.00     0.009 A 
ENDBRANCH  21  22
ENDBRANCH   1  21
TORSDOF 5
ENDMDL
MODEL 5
REMARK VINA RESULT:      -7.7      1.623      2.339
REMARK  5 active torsions:
REMARK  status: ('A' for Active; 'I' for Inactive)
REMARK    1  A    between atoms: C_5  and  C_6 
REMARK    2  A    between atoms: C_6  and  N_7 
REMARK       I    between atoms: N_7  and  C_8 
REMARK       I    between atoms: C_8  and  N_9 
REMARK    3  A    between atoms: N_9  and  C_10 
REMARK    4  A    between atoms: C_10  and  C_11 
REMARK    5  A    between atoms: N_14  and  C_15 
ROOT
HETATM    1  N   UNL     1     -41.183  55.848 -52.450  1.00  0.00    -0.339 N 
HETATM    2  C   UNL     1     -42.384  56.313 -52.903  1.00  0.00     0.316 C 
HETATM    3  N   UNL     1     -42.261  57.494 -53.578  1.00  0.00    -0.339 N 
HETATM    4  O   UNL     1     -43.451  55.748 -52.706  1.00  0.00    -0.247 OA
HETATM    5  H   UNL     1     -40.347  56.385 -52.612  1.00  0.00     0.164 HD
HETATM    6  H   UNL     1     -41.355  57.756 -53.931  1.00  0.00     0.164 HD
ENDROOT
BRANCH   3   7
HETATM    7  C   UNL     1     -43.410  58.136 -54.173  1.00  0.00     0.165 C 
BRANCH   7   8
HETATM    8  C   UNL     1     -43.446  57.905 -55.655  1.00  0.00    -0.016 A 
HETATM    9  C   UNL     1     -43.500  58.897 -56.630  1.00  0.00     0.021 A 
HETATM   10  C   UNL     1     -43.653  60.370 -56.414  1.00  0.00     0.069 C 
HETATM   11  N   UNL     1     -43.446  58.302 -57.890  1.00  0.00    -0.319 N 
HETATM   12  C   UNL     1     -43.418  56.922 -57.707  1.00  0.00     0.014 A 
HETATM   13  C   UNL     1     -43.279  55.921 -58.803  1.00  0.00     0.068 C 
HETATM   14  C   UNL     1     -43.410  56.670 -56.349  1.00  0.00     0.035 A 
BRANCH  11  15
HETATM   15  C   UNL     1     -43.395  58.983 -59.142  1.00  0.00     0.039 A 
HETATM   16  C   UNL     1     -42.159  59.355 -59.686  1.00  0.00     0.030 A 
HETATM   17  C   UNL     1     -42.107  60.012 -60.917  1.00  0.00     0.002 A 
HETATM   18  C   UNL     1     -43.283  60.302 -61.606  1.00  0.00     0.000 A 
HETATM   19  C   UNL     1     -44.515  59.934 -61.068  1.00  0.00     0.002 A 
HETATM   20  C   UNL     1     -44.574  59.272 -59.838  1.00  0.00     0.030 A 
ENDBRANCH  11  15
ENDBRANCH   7   8
ENDBRANCH   3   7
BRANCH   1  21
HETATM   21  C   UNL     1     -41.089  54.683 -51.598  1.00  0.00     0.162 C 
BRANCH  21  22
HETATM   22  C   UNL     1     -40.608  53.456 -52.330  1.00  0.00    -0.040 A 
HETATM   23  C   UNL     1     -39.863  52.480 -51.652  1.00  0.00     0.009 A 
HETATM   24  C   UNL     1     -39.485  51.296 -52.294  1.00  0.00     0.007 A 
HETATM   25  C   UNL     1     -39.847  51.063 -53.623  1.00  0.00    -0.062 A 
HETATM   26  C   UNL     1     -39.480  49.781 -54.310  1.00  0.00     0.048 C 
HETATM   27  C   UNL     1     -40.595  52.031 -54.302  1.00  0.00     0.007 A 
HETATM   28  C   UNL     1     -40.978  53.211 -53.661  1.00  0.00     0.009 A 
ENDBRANCH  21  22
ENDBRANCH   1  21
TORSDOF 5
ENDMDL
MODEL 6
REMARK VINA RESULT:      -7.6     15.477     17.613
REMARK  5 active torsions:
REMARK  status: ('A' for Active; 'I' for Inactive)
REMARK    1  A    between atoms: C_5  and  C_6 
REMARK    2  A    between atoms: C_6  and  N_7 
REMARK       I    between atoms: N_7  and  C_8 
REMARK       I    between atoms: C_8  and  N_9 
REMARK    3  A    between atoms: N_9  and  C_10 
REMARK    4  A    between atoms: C_10  and  C_11 
REMARK    5  A    between atoms: N_14  and  C_15 
ROOT
HETATM    1  N   UNL     1     -34.682  41.679 -53.212  1.00  0.00    -0.339 N 
HETATM    2  C   UNL     1     -35.348  41.996 -54.361  1.00  0.00     0.316 C 
HETATM    3  N   UNL     1     -34.520  42.027 -55.447  1.00  0.00    -0.339 N 
HETATM    4  O   UNL     1     -36.544  42.246 -54.408  1.00  0.00    -0.247 OA
HETATM    5  H   UNL     1     -33.687  41.525 -53.238  1.00  0.00     0.164 HD
HETATM    6  H   UNL     1     -33.631  41.557 -55.389  1.00  0.00     0.164 HD
ENDROOT
BRANCH   3   7
HETATM    7  C   UNL     1     -35.034  42.303 -56.768  1.00  0.00     0.165 C 
BRANCH   7   8
HETATM    8  C   UNL     1     -35.483  41.042 -57.445  1.00  0.00    -0.016 A 
HETATM    9  C   UNL     1     -36.439  40.958 -58.453  1.00  0.00     0.021 A 
HETATM   10  C   UNL     1     -37.293  42.065 -58.985  1.00  0.00     0.069 C 
HETATM   11  N   UNL     1     -36.536  39.634 -58.880  1.00  0.00    -0.319 N 
HETATM   12  C   UNL     1     -35.678  38.869 -58.094  1.00  0.00     0.014 A 
HETATM   13  C   UNL     1     -35.424  37.412 -58.280  1.00  0.00     0.068 C 
HETATM   14  C   UNL     1     -35.027  39.719 -57.221  1.00  0.00     0.035 A 
BRANCH  11  15
HETATM   15  C   UNL     1     -37.343  39.151 -59.952  1.00  0.00     0.039 A 
HETATM   16  C   UNL     1     -36.854  39.183 -61.265  1.00  0.00     0.030 A 
HETATM   17  C   UNL     1     -37.639  38.701 -62.315  1.00  0.00     0.002 A 
HETATM   18  C   UNL     1     -38.910  38.190 -62.060  1.00  0.00     0.000 A 
HETATM   19  C   UNL     1     -39.400  38.157 -60.755  1.00  0.00     0.002 A 
HETATM   20  C   UNL     1     -38.618  38.634 -59.700  1.00  0.00     0.030 A 
ENDBRANCH  11  15
ENDBRANCH   7   8
ENDBRANCH   3   7
BRANCH   1  21
HETATM   21  C   UNL     1     -35.332  41.716 -51.920  1.00  0.00     0.162 C 
BRANCH  21  22
HETATM   22  C   UNL     1     -34.674  40.817 -50.904  1.00  0.00    -0.040 A 
HETATM   23  C   UNL     1     -35.413  39.801 -50.282  1.00  0.00     0.009 A 
HETATM   24  C   UNL     1     -34.797  38.904 -49.404  1.00  0.00     0.007 A 
HETATM   25  C   UNL     1     -33.429  39.002 -49.134  1.00  0.00    -0.062 A 
HETATM   26  C   UNL     1     -32.749  38.023 -48.224  1.00  0.00     0.048 C 
HETATM   27  C   UNL     1     -32.686  40.010 -49.757  1.00  0.00     0.007 A 
HETATM   28  C   UNL     1     -33.300  40.904 -50.638  1.00  0.00     0.009 A 
ENDBRANCH  21  22
ENDBRANCH   1  21
TORSDOF 5
ENDMDL
MODEL 7
REMARK VINA RESULT:      -7.6      3.914      6.958
REMARK  5 active torsions:
REMARK  status: ('A' for Active; 'I' for Inactive)
REMARK    1  A    between atoms: C_5  and  C_6 
REMARK    2  A    between atoms: C_6  and  N_7 
REMARK       I    between atoms: N_7  and  C_8 
REMARK       I    between atoms: C_8  and  N_9 
REMARK    3  A    between atoms: N_9  and  C_10 
REMARK    4  A    between atoms: C_10  and  C_11 
REMARK    5  A    between atoms: N_14  and  C_15 
ROOT
HETATM    1  N   UNL     1     -41.398  56.182 -52.180  1.00  0.00    -0.339 N 
HETATM    2  C   UNL     1     -42.616  56.799 -52.185  1.00  0.00     0.316 C 
HETATM    3  N   UNL     1     -42.625  57.921 -52.964  1.00  0.00    -0.339 N 
HETATM    4  O   UNL     1     -43.582  56.404 -51.547  1.00  0.00    -0.247 OA
HETATM    5  H   UNL     1     -40.633  56.585 -52.696  1.00  0.00     0.164 HD
HETATM    6  H   UNL     1     -41.903  58.033 -53.657  1.00  0.00     0.164 HD
ENDROOT
BRANCH   3   7
HETATM    7  C   UNL     1     -43.829  58.699 -53.137  1.00  0.00     0.165 C 
BRANCH   7   8
HETATM    8  C   UNL     1     -43.895  59.817 -52.139  1.00  0.00    -0.016 A 
HETATM    9  C   UNL     1     -44.806  59.917 -51.091  1.00  0.00     0.021 A 
HETATM   10  C   UNL     1     -45.967  59.015 -50.812  1.00  0.00     0.069 C 
HETATM   11  N   UNL     1     -44.511  61.053 -50.338  1.00  0.00    -0.319 N 
HETATM   12  C   UNL     1     -43.443  61.704 -50.950  1.00  0.00     0.014 A 
HETATM   13  C   UNL     1     -42.767  62.920 -50.414  1.00  0.00     0.068 C 
HETATM   14  C   UNL     1     -43.056  60.955 -52.044  1.00  0.00     0.035 A 
BRANCH  11  15
HETATM   15  C   UNL     1     -45.162  61.459 -49.136  1.00  0.00     0.039 A 
HETATM   16  C   UNL     1     -44.673  61.028 -47.895  1.00  0.00     0.030 A 
HETATM   17  C   UNL     1     -45.303  61.433 -46.717  1.00  0.00     0.002 A 
HETATM   18  C   UNL     1     -46.420  62.265 -46.771  1.00  0.00     0.000 A 
HETATM   19  C   UNL     1     -46.910  62.696 -48.003  1.00  0.00     0.002 A 
HETATM   20  C   UNL     1     -46.281  62.296 -49.186  1.00  0.00     0.030 A 
ENDBRANCH  11  15
ENDBRANCH   7   8
ENDBRANCH   3   7
BRANCH   1  21
HETATM   21  C   UNL     1     -41.121  55.051 -51.322  1.00  0.00     0.162 C 
BRANCH  21  22
HETATM   22  C   UNL     1     -40.794  53.796 -52.090  1.00  0.00    -0.040 A 
HETATM   23  C   UNL     1     -41.118  53.701 -53.452  1.00  0.00     0.009 A 
HETATM   24  C   UNL     1     -40.744  52.579 -54.199  1.00  0.00     0.007 A 
HETATM   25  C   UNL     1     -40.036  51.533 -53.601  1.00  0.00    -0.062 A 
HETATM   26  C   UNL     1     -39.597  50.342 -54.400  1.00  0.00     0.048 C 
HETATM   27  C   UNL     1     -39.706  51.625 -52.244  1.00  0.00     0.007 A 
HETATM   28  C   UNL     1     -40.075  52.747 -51.499  1.00  0.00     0.009 A 
ENDBRANCH  21  22
ENDBRANCH   1  21
TORSDOF 5
ENDMDL
MODEL 8
REMARK VINA RESULT:      -7.6      1.286      2.023
REMARK  5 active torsions:
REMARK  status: ('A' for Active; 'I' for Inactive)
REMARK    1  A    between atoms: C_5  and  C_6 
REMARK    2  A    between atoms: C_6  and  N_7 
REMARK       I    between atoms: N_7  and  C_8 
REMARK       I    between atoms: C_8  and  N_9 
REMARK    3  A    between atoms: N_9  and  C_10 
REMARK    4  A    between atoms: C_10  and  C_11 
REMARK    5  A    between atoms: N_14  and  C_15 
ROOT
HETATM    1  N   UNL     1     -41.730  54.897 -50.512  1.00  0.00    -0.339 N 
HETATM    2  C   UNL     1     -41.595  56.241 -50.712  1.00  0.00     0.316 C 
HETATM    3  N   UNL     1     -42.769  56.828 -51.090  1.00  0.00    -0.339 N 
HETATM    4  O   UNL     1     -40.538  56.845 -50.589  1.00  0.00    -0.247 OA
HETATM    5  H   UNL     1     -42.621  54.455 -50.672  1.00  0.00     0.164 HD
HETATM    6  H   UNL     1     -43.632  56.341 -50.911  1.00  0.00     0.164 HD
ENDROOT
BRANCH   3   7
HETATM    7  C   UNL     1     -42.851  58.252 -51.313  1.00  0.00     0.165 C 
BRANCH   7   8
HETATM    8  C   UNL     1     -43.250  58.553 -52.728  1.00  0.00    -0.016 A 
HETATM    9  C   UNL     1     -42.524  58.210 -53.865  1.00  0.00     0.021 A 
HETATM   10  C   UNL     1     -41.164  57.590 -53.918  1.00  0.00     0.069 C 
HETATM   11  N   UNL     1     -43.245  58.590 -54.997  1.00  0.00    -0.319 N 
HETATM   12  C   UNL     1     -44.404  59.230 -54.568  1.00  0.00     0.014 A 
HETATM   13  C   UNL     1     -45.489  59.720 -55.467  1.00  0.00     0.068 C 
HETATM   14  C   UNL     1     -44.420  59.206 -53.187  1.00  0.00     0.035 A 
BRANCH  11  15
HETATM   15  C   UNL     1     -42.878  58.340 -56.352  1.00  0.00     0.039 A 
HETATM   16  C   UNL     1     -42.183  59.314 -57.081  1.00  0.00     0.030 A 
HETATM   17  C   UNL     1     -41.813  59.067 -58.404  1.00  0.00     0.002 A 
HETATM   18  C   UNL     1     -42.137  57.852 -59.005  1.00  0.00     0.000 A 
HETATM   19  C   UNL     1     -42.828  56.879 -58.284  1.00  0.00     0.002 A 
HETATM   20  C   UNL     1     -43.198  57.120 -56.958  1.00  0.00     0.030 A 
ENDBRANCH  11  15
ENDBRANCH   7   8
ENDBRANCH   3   7
BRANCH   1  21
HETATM   21  C   UNL     1     -40.591  54.050 -50.235  1.00  0.00     0.162 C 
BRANCH  21  22
HETATM   22  C   UNL     1     -40.379  52.987 -51.283  1.00  0.00    -0.040 A 
HETATM   23  C   UNL     1     -40.599  53.281 -52.637  1.00  0.00     0.009 A 
HETATM   24  C   UNL     1     -40.323  52.334 -53.628  1.00  0.00     0.007 A 
HETATM   25  C   UNL     1     -39.819  51.076 -53.286  1.00  0.00    -0.062 A 
HETATM   26  C   UNL     1     -39.483  50.066 -54.343  1.00  0.00     0.048 C 
HETATM   27  C   UNL     1     -39.592  50.780 -51.938  1.00  0.00     0.007 A 
HETATM   28  C   UNL     1     -39.862  51.727 -50.948  1.00  0.00     0.009 A 
ENDBRANCH  21  22
ENDBRANCH   1  21
TORSDOF 5
ENDMDL
MODEL 9
REMARK VINA RESULT:      -7.5      1.593      2.323
REMARK  5 active torsions:
REMARK  status: ('A' for Active; 'I' for Inactive)
REMARK    1  A    between atoms: C_5  and  C_6 
REMARK    2  A    between atoms: C_6  and  N_7 
REMARK       I    between atoms: N_7  and  C_8 
REMARK       I    between atoms: C_8  and  N_9 
REMARK    3  A    between atoms: N_9  and  C_10 
REMARK    4  A    between atoms: C_10  and  C_11 
REMARK    5  A    between atoms: N_14  and  C_15 
ROOT
HETATM    1  N   UNL     1     -42.551  55.111 -51.737  1.00  0.00    -0.339 N 
HETATM    2  C   UNL     1     -42.821  56.380 -52.165  1.00  0.00     0.316 C 
HETATM    3  N   UNL     1     -44.116  56.524 -52.572  1.00  0.00    -0.339 N 
HETATM    4  O   UNL     1     -41.990  57.277 -52.200  1.00  0.00    -0.247 OA
HETATM    5  H   UNL     1     -43.272  54.409 -51.774  1.00  0.00     0.164 HD
HETATM    6  H   UNL     1     -44.796  55.846 -52.268  1.00  0.00     0.164 HD
ENDROOT
BRANCH   3   7
HETATM    7  C   UNL     1     -44.617  57.801 -53.024  1.00  0.00     0.165 C 
BRANCH   7   8
HETATM    8  C   UNL     1     -44.296  58.022 -54.473  1.00  0.00    -0.016 A 
HETATM    9  C   UNL     1     -43.910  59.232 -55.043  1.00  0.00     0.021 A 
HETATM   10  C   UNL     1     -43.850  60.569 -54.374  1.00  0.00     0.069 C 
HETATM   11  N   UNL     1     -43.629  59.029 -56.394  1.00  0.00    -0.319 N 
HETATM   12  C   UNL     1     -43.897  57.696 -56.689  1.00  0.00     0.014 A 
HETATM   13  C   UNL     1     -43.651  57.050 -58.010  1.00  0.00     0.068 C 
HETATM   14  C   UNL     1     -44.298  57.072 -55.523  1.00  0.00     0.035 A 
BRANCH  11  15
HETATM   15  C   UNL     1     -43.124  60.004 -57.304  1.00  0.00     0.039 A 
HETATM   16  C   UNL     1     -41.743  60.214 -57.409  1.00  0.00     0.030 A 
HETATM   17  C   UNL     1     -41.246  61.161 -58.308  1.00  0.00     0.002 A 
HETATM   18  C   UNL     1     -42.123  61.900 -59.100  1.00  0.00     0.000 A 
HETATM   19  C   UNL     1     -43.498  61.694 -58.999  1.00  0.00     0.002 A 
HETATM   20  C   UNL     1     -44.001  60.745 -58.104  1.00  0.00     0.030 A 
ENDBRANCH  11  15
ENDBRANCH   7   8
ENDBRANCH   3   7
BRANCH   1  21
HETATM   21  C   UNL     1     -41.212  54.695 -51.385  1.00  0.00     0.162 C 
BRANCH  21  22
HETATM   22  C   UNL     1     -40.723  53.528 -52.205  1.00  0.00    -0.040 A 
HETATM   23  C   UNL     1     -39.909  52.548 -51.619  1.00  0.00     0.009 A 
HETATM   24  C   UNL     1     -39.520  51.416 -52.342  1.00  0.00     0.007 A 
HETATM   25  C   UNL     1     -39.939  51.240 -53.663  1.00  0.00    -0.062 A 
HETATM   26  C   UNL     1     -39.560  50.012 -54.437  1.00  0.00     0.048 C 
HETATM   27  C   UNL     1     -40.756  52.212 -54.251  1.00  0.00     0.007 A 
HETATM   28  C   UNL     1     -41.149  53.340 -53.528  1.00  0.00     0.009 A 
ENDBRANCH  21  22
ENDBRANCH   1  21
TORSDOF 5
ENDMDL
MODEL 10
REMARK VINA RESULT:      -7.5      2.218      3.526
REMARK  5 active torsions:
REMARK  status: ('A' for Active; 'I' for Inactive)
REMARK    1  A    between atoms: C_5  and  C_6 
REMARK    2  A    between atoms: C_6  and  N_7 
REMARK       I    between atoms: N_7  and  C_8 
REMARK       I    between atoms: C_8  and  N_9 
REMARK    3  A    between atoms: N_9  and  C_10 
REMARK    4  A    between atoms: C_10  and  C_11 
REMARK    5  A    between atoms: N_14  and  C_15 
ROOT
HETATM    1  N   UNL     1     -44.055  55.842 -53.597  1.00  0.00    -0.339 N 
HETATM    2  C   UNL     1     -44.222  57.052 -54.207  1.00  0.00     0.316 C 
HETATM    3  N   UNL     1     -45.099  56.988 -55.253  1.00  0.00    -0.339 N 
HETATM    4  O   UNL     1     -43.636  58.071 -53.870  1.00  0.00    -0.247 OA
HETATM    5  H   UNL     1     -44.538  55.033 -53.954  1.00  0.00     0.164 HD
HETATM    6  H   UNL     1     -45.734  56.208 -55.303  1.00  0.00     0.164 HD
ENDROOT
BRANCH   3   7
HETATM    7  C   UNL     1     -45.446  58.169 -56.007  1.00  0.00     0.165 C 
BRANCH   7   8
HETATM    8  C   UNL     1     -44.431  58.441 -57.078  1.00  0.00    -0.016 A 
HETATM    9  C   UNL     1     -43.922  59.692 -57.415  1.00  0.00     0.021 A 
HETATM   10  C   UNL     1     -44.354  61.019 -56.878  1.00  0.00     0.069 C 
HETATM   11  N   UNL     1     -42.951  59.536 -58.405  1.00  0.00    -0.319 N 
HETATM   12  C   UNL     1     -42.891  58.185 -58.734  1.00  0.00     0.014 A 
HETATM   13  C   UNL     1     -41.922  57.585 -59.696  1.00  0.00     0.068 C 
HETATM   14  C   UNL     1     -43.785  57.508 -57.927  1.00  0.00     0.035 A 
BRANCH  11  15
HETATM   15  C   UNL     1     -42.139  60.570 -58.957  1.00  0.00     0.039 A 
HETATM   16  C   UNL     1     -41.104  61.130 -58.196  1.00  0.00     0.030 A 
HETATM   17  C   UNL     1     -40.301  62.135 -58.739  1.00  0.00     0.002 A 
HETATM   18  C   UNL     1     -40.528  62.586 -60.038  1.00  0.00     0.000 A 
HETATM   19  C   UNL     1     -41.556  62.032 -60.799  1.00  0.00     0.002 A 
HETATM   20  C   UNL     1     -42.361  61.023 -60.262  1.00  0.00     0.030 A 
ENDBRANCH  11  15
ENDBRANCH   7   8
ENDBRANCH   3   7
BRANCH   1  21
HETATM   21  C   UNL     1     -43.076  55.644 -52.552  1.00  0.00     0.162 C 
BRANCH  21  22
HETATM   22  C   UNL     1     -42.076  54.564 -52.878  1.00  0.00    -0.040 A 
HETATM   23  C   UNL     1     -41.324  53.969 -51.854  1.00  0.00     0.009 A 
HETATM   24  C   UNL     1     -40.458  52.907 -52.129  1.00  0.00     0.007 A 
HETATM   25  C   UNL     1     -40.328  52.416 -53.431  1.00  0.00    -0.062 A 
HETATM   26  C   UNL     1     -39.430  51.252 -53.731  1.00  0.00     0.048 C 
HETATM   27  C   UNL     1     -41.080  53.001 -54.455  1.00  0.00     0.007 A 
HETATM   28  C   UNL     1     -41.950  54.059 -54.181  1.00  0.00     0.009 A 
ENDBRANCH  21  22
ENDBRANCH   1  21
TORSDOF 5
ENDMDL
