MODEL 1
REMARK VINA RESULT:      -8.1      0.000      0.000
REMARK  11 active torsions:
REMARK  status: ('A' for Active; 'I' for Inactive)
REMARK    1  A    between atoms: C_2  and  O_3 
REMARK    2  A    between atoms: O_3  and  C_4 
REMARK    3  A    between atoms: C_4  and  C_5 
REMARK    4  A    between atoms: C_5  and  C_6 
REMARK    5  A    between atoms: C_6  and  C_7 
REMARK    6  A    between atoms: C_13  and  C_14 
REMARK    7  A    between atoms: C_14  and  N_15 
REMARK    8  A    between atoms: N_15  and  C_18 
REMARK    9  A    between atoms: N_21  and  C_23 
REMARK   10  A    between atoms: C_23  and  C_24 
REMARK   11  A    between atoms: C_32  and  O_33 
ROOT
HETATM    1  C   UNL     1     -43.029  56.912 -58.846  1.00  0.00     0.025 A 
HETATM    2  C   UNL     1     -42.653  56.608 -57.438  1.00  0.00     0.295 A 
HETATM    3  O   UNL     1     -42.464  55.470 -57.027  1.00  0.00    -0.259 OA
HETATM    4  O   UNL     1     -42.564  57.673 -56.559  1.00  0.00    -0.274 OA
HETATM    5  C   UNL     1     -42.677  59.006 -56.982  1.00  0.00     0.101 A 
HETATM    6  C   UNL     1     -42.934  59.301 -58.320  1.00  0.00     0.005 A 
HETATM    7  C   UNL     1     -42.530  59.990 -55.991  1.00  0.00     0.035 A 
HETATM    8  C   UNL     1     -42.632  61.326 -56.382  1.00  0.00     0.076 A 
HETATM    9  C   UNL     1     -42.856  61.668 -57.709  1.00  0.00     0.038 A 
HETATM   10  C   UNL     1     -43.005  60.658 -58.669  1.00  0.00     0.017 A 
HETATM   11  C   UNL     1     -43.151  58.190 -59.276  1.00  0.00    -0.037 A 
HETATM   12  C   UNL     1     -43.542  58.579 -60.683  1.00  0.00     0.050 C 
ENDROOT
BRANCH   7  13
HETATM   13  C   UNL     1     -42.283  59.631 -54.556  1.00  0.00     0.276 C 
BRANCH  13  14
HETATM   14  N   UNL     1     -43.399  58.751 -54.034  1.00  0.00    -0.067 N 
HETATM   15  H   UNL     1     -44.161  59.445 -53.906  1.00  0.00     0.277 HD
HETATM   16  H   UNL     1     -43.706  58.175 -54.826  1.00  0.00     0.277 HD
BRANCH  14  17
HETATM   17  C   UNL     1     -43.130  58.010 -52.759  1.00  0.00     0.189 C 
HETATM   18  C   UNL     1     -41.640  57.746 -52.542  1.00  0.00     0.060 C 
HETATM   19  C   UNL     1     -41.058  56.675 -53.456  1.00  0.00     0.237 C 
HETATM   20  N   UNL     1     -41.878  55.412 -53.364  1.00  0.00    -0.067 N 
HETATM   21  H   UNL     1     -41.768  55.033 -52.411  1.00  0.00     0.280 HD
HETATM   22  C   UNL     1     -43.340  55.617 -53.646  1.00  0.00     0.237 C 
HETATM   23  C   UNL     1     -43.915  56.696 -52.737  1.00  0.00     0.060 C 
BRANCH  20  24
HETATM   24  C   UNL     1     -41.318  54.293 -54.257  1.00  0.00     0.273 C 
BRANCH  24  25
HETATM   25  C   UNL     1     -40.687  53.174 -53.480  1.00  0.00    -0.033 A 
HETATM   26  C   UNL     1     -40.523  53.276 -52.089  1.00  0.00     0.009 A 
HETATM   27  C   UNL     1     -39.910  52.245 -51.375  1.00  0.00     0.001 A 
HETATM   28  C   UNL     1     -39.456  51.108 -52.039  1.00  0.00     0.000 A 
HETATM   29  C   UNL     1     -39.618  50.994 -53.417  1.00  0.00     0.001 A 
HETATM   30  C   UNL     1     -40.233  52.019 -54.136  1.00  0.00     0.009 A 
ENDBRANCH  24  25
ENDBRANCH  20  24
ENDBRANCH  14  17
ENDBRANCH  13  14
ENDBRANCH   7  13
BRANCH   8  31
HETATM   31  O   UNL     1     -42.551  62.291 -55.413  1.00  0.00    -0.360 OA
HETATM   32  H   UNL     1     -43.241  62.961 -55.609  1.00  0.00     0.217 HD
ENDBRANCH   8  31
BRANCH   1  33
HETATM   33  C   UNL     1     -43.249  55.664 -59.687  1.00  0.00     0.055 C 
BRANCH  33  34
HETATM   34  C   UNL     1     -44.688  55.141 -59.703  1.00  0.00     0.116 C 
BRANCH  34  35
HETATM   35  C   UNL     1     -45.337  55.260 -61.058  1.00  0.00     0.259 C 
HETATM   36  O   UNL     1     -44.890  54.742 -62.075  1.00  0.00    -0.265 OA
BRANCH  35  37
HETATM   37  O   UNL     1     -46.473  56.000 -60.976  1.00  0.00    -0.322 OA
BRANCH  37  38
HETATM   38  C   UNL     1     -46.732  56.639 -59.717  1.00  0.00     0.174 C 
HETATM   39  C   UNL     1     -46.999  58.116 -59.930  1.00  0.00     0.034 C 
ENDBRANCH  37  38
ENDBRANCH  35  37
ENDBRANCH  34  35
ENDBRANCH  33  34
ENDBRANCH   1  33
TORSDOF 11
ENDMDL
MODEL 2
REMARK VINA RESULT:      -8.0      1.645      2.621
REMARK  11 active torsions:
REMARK  status: ('A' for Active; 'I' for Inactive)
REMARK    1  A    between atoms: C_2  and  O_3 
REMARK    2  A    between atoms: O_3  and  C_4 
REMARK    3  A    between atoms: C_4  and  C_5 
REMARK    4  A    between atoms: C_5  and  C_6 
REMARK    5  A    between atoms: C_6  and  C_7 
REMARK    6  A    between atoms: C_13  and  C_14 
REMARK    7  A    between atoms: C_14  and  N_15 
REMARK    8  A    between atoms: N_15  and  C_18 
REMARK    9  A    between atoms: N_21  and  C_23 
REMARK   10  A    between atoms: C_23  and  C_24 
REMARK   11  A    between atoms: C_32  and  O_33 
ROOT
HETATM    1  C   UNL     1     -42.439  58.266 -57.607  1.00  0.00     0.025 A 
HETATM    2  C   UNL     1     -43.151  57.185 -56.871  1.00  0.00     0.295 A 
HETATM    3  O   UNL     1     -43.296  56.055 -57.318  1.00  0.00    -0.259 OA
HETATM    4  O   UNL     1     -43.709  57.510 -55.647  1.00  0.00    -0.274 OA
HETATM    5  C   UNL     1     -43.504  58.756 -55.036  1.00  0.00     0.101 A 
HETATM    6  C   UNL     1     -42.754  59.741 -55.679  1.00  0.00     0.005 A 
HETATM    7  C   UNL     1     -44.098  58.940 -53.777  1.00  0.00     0.035 A 
HETATM    8  C   UNL     1     -43.907  60.168 -53.141  1.00  0.00     0.076 A 
HETATM    9  C   UNL     1     -43.142  61.167 -53.729  1.00  0.00     0.038 A 
HETATM   10  C   UNL     1     -42.571  60.949 -54.991  1.00  0.00     0.017 A 
HETATM   11  C   UNL     1     -42.234  59.479 -57.041  1.00  0.00    -0.037 A 
HETATM   12  C   UNL     1     -41.533  60.629 -57.727  1.00  0.00     0.050 C 
ENDROOT
BRANCH   7  13
HETATM   13  C   UNL     1     -44.922  57.865 -53.131  1.00  0.00     0.276 C 
BRANCH  13  14
HETATM   14  N   UNL     1     -44.192  56.541 -53.182  1.00  0.00    -0.067 N 
HETATM   15  H   UNL     1     -44.986  55.871 -53.166  1.00  0.00     0.277 HD
HETATM   16  H   UNL     1     -43.806  56.460 -54.129  1.00  0.00     0.277 HD
BRANCH  14  17
HETATM   17  C   UNL     1     -43.233  56.259 -52.065  1.00  0.00     0.189 C 
HETATM   18  C   UNL     1     -41.815  56.737 -52.381  1.00  0.00     0.060 C 
HETATM   19  C   UNL     1     -41.087  55.887 -53.414  1.00  0.00     0.237 C 
HETATM   20  N   UNL     1     -41.119  54.435 -53.007  1.00  0.00    -0.067 N 
HETATM   21  H   UNL     1     -40.561  54.337 -52.144  1.00  0.00     0.280 HD
HETATM   22  C   UNL     1     -42.503  53.905 -52.760  1.00  0.00     0.237 C 
HETATM   23  C   UNL     1     -43.232  54.765 -51.734  1.00  0.00     0.060 C 
BRANCH  20  24
HETATM   24  C   UNL     1     -40.378  53.536 -54.011  1.00  0.00     0.273 C 
BRANCH  24  25
HETATM   25  C   UNL     1     -40.105  52.158 -53.485  1.00  0.00    -0.033 A 
HETATM   26  C   UNL     1     -39.738  51.966 -52.143  1.00  0.00     0.009 A 
HETATM   27  C   UNL     1     -39.458  50.685 -51.666  1.00  0.00     0.001 A 
HETATM   28  C   UNL     1     -39.541  49.587 -52.519  1.00  0.00     0.000 A 
HETATM   29  C   UNL     1     -39.909  49.764 -53.849  1.00  0.00     0.001 A 
HETATM   30  C   UNL     1     -40.194  51.042 -54.332  1.00  0.00     0.009 A 
ENDBRANCH  24  25
ENDBRANCH  20  24
ENDBRANCH  14  17
ENDBRANCH  13  14
ENDBRANCH   7  13
BRANCH   8  31
HETATM   31  O   UNL     1     -44.533  60.378 -51.941  1.00  0.00    -0.360 OA
HETATM   32  H   UNL     1     -44.340  59.602 -51.371  1.00  0.00     0.217 HD
ENDBRANCH   8  31
BRANCH   1  33
HETATM   33  C   UNL     1     -42.000  57.848 -59.002  1.00  0.00     0.055 C 
BRANCH  33  34
HETATM   34  C   UNL     1     -42.863  58.395 -60.141  1.00  0.00     0.116 C 
BRANCH  34  35
HETATM   35  C   UNL     1     -44.112  57.582 -60.369  1.00  0.00     0.259 C 
HETATM   36  O   UNL     1     -45.247  58.036 -60.273  1.00  0.00    -0.265 OA
BRANCH  35  37
HETATM   37  O   UNL     1     -43.792  56.305 -60.701  1.00  0.00    -0.322 OA
BRANCH  37  38
HETATM   38  C   UNL     1     -44.882  55.375 -60.801  1.00  0.00     0.174 C 
HETATM   39  C   UNL     1     -44.674  54.228 -59.833  1.00  0.00     0.034 C 
ENDBRANCH  37  38
ENDBRANCH  35  37
ENDBRANCH  34  35
ENDBRANCH  33  34
ENDBRANCH   1  33
TORSDOF 11
ENDMDL
MODEL 3
REMARK VINA RESULT:      -8.0      2.354      3.411
REMARK  11 active torsions:
REMARK  status: ('A' for Active; 'I' for Inactive)
REMARK    1  A    between atoms: C_2  and  O_3 
REMARK    2  A    between atoms: O_3  and  C_4 
REMARK    3  A    between atoms: C_4  and  C_5 
REMARK    4  A    between atoms: C_5  and  C_6 
REMARK    5  A    between atoms: C_6  and  C_7 
REMARK    6  A    between atoms: C_13  and  C_14 
REMARK    7  A    between atoms: C_14  and  N_15 
REMARK    8  A    between atoms: N_15  and  C_18 
REMARK    9  A    between atoms: N_21  and  C_23 
REMARK   10  A    between atoms: C_23  and  C_24 
REMARK   11  A    between atoms: C_32  and  O_33 
ROOT
HETATM    1  C   UNL     1     -43.349  57.618 -56.122  1.00  0.00     0.025 A 
HETATM    2  C   UNL     1     -43.099  56.650 -55.019  1.00  0.00     0.295 A 
HETATM    3  O   UNL     1     -42.428  55.635 -55.157  1.00  0.00    -0.259 OA
HETATM    4  O   UNL     1     -43.704  56.905 -53.800  1.00  0.00    -0.274 OA
HETATM    5  C   UNL     1     -44.408  58.091 -53.546  1.00  0.00     0.101 A 
HETATM    6  C   UNL     1     -44.563  59.047 -54.549  1.00  0.00     0.005 A 
HETATM    7  C   UNL     1     -44.941  58.238 -52.255  1.00  0.00     0.035 A 
HETATM    8  C   UNL     1     -45.643  59.410 -51.970  1.00  0.00     0.076 A 
HETATM    9  C   UNL     1     -45.794  60.404 -52.928  1.00  0.00     0.038 A 
HETATM   10  C   UNL     1     -45.256  60.219 -54.208  1.00  0.00     0.017 A 
HETATM   11  C   UNL     1     -44.031  58.766 -55.903  1.00  0.00    -0.037 A 
HETATM   12  C   UNL     1     -44.336  59.791 -56.972  1.00  0.00     0.050 C 
ENDROOT
BRANCH   7  13
HETATM   13  C   UNL     1     -44.778  57.172 -51.211  1.00  0.00     0.276 C 
BRANCH  13  14
HETATM   14  N   UNL     1     -43.311  56.952 -50.908  1.00  0.00    -0.067 N 
HETATM   15  H   UNL     1     -42.908  56.931 -51.866  1.00  0.00     0.277 HD
HETATM   16  H   UNL     1     -42.965  57.829 -50.503  1.00  0.00     0.277 HD
BRANCH  14  17
HETATM   17  C   UNL     1     -42.961  55.707 -50.153  1.00  0.00     0.189 C 
HETATM   18  C   UNL     1     -41.454  55.564 -49.932  1.00  0.00     0.060 C 
HETATM   19  C   UNL     1     -40.673  55.196 -51.188  1.00  0.00     0.237 C 
HETATM   20  N   UNL     1     -41.272  53.969 -51.830  1.00  0.00    -0.067 N 
HETATM   21  H   UNL     1     -41.128  53.175 -51.188  1.00  0.00     0.280 HD
HETATM   22  C   UNL     1     -42.738  54.098 -52.132  1.00  0.00     0.237 C 
HETATM   23  C   UNL     1     -43.514  54.476 -50.877  1.00  0.00     0.060 C 
BRANCH  20  24
HETATM   24  C   UNL     1     -40.505  53.546 -53.094  1.00  0.00     0.273 C 
BRANCH  24  25
HETATM   25  C   UNL     1     -40.138  52.090 -53.105  1.00  0.00    -0.033 A 
HETATM   26  C   UNL     1     -40.221  51.343 -54.292  1.00  0.00     0.009 A 
HETATM   27  C   UNL     1     -39.906  49.984 -54.291  1.00  0.00     0.001 A 
HETATM   28  C   UNL     1     -39.506  49.359 -53.112  1.00  0.00     0.000 A 
HETATM   29  C   UNL     1     -39.414  50.091 -51.932  1.00  0.00     0.001 A 
HETATM   30  C   UNL     1     -39.725  51.451 -51.926  1.00  0.00     0.009 A 
ENDBRANCH  24  25
ENDBRANCH  20  24
ENDBRANCH  14  17
ENDBRANCH  13  14
ENDBRANCH   7  13
BRANCH   8  31
HETATM   31  O   UNL     1     -46.217  59.535 -50.732  1.00  0.00    -0.360 OA
HETATM   32  H   UNL     1     -47.190  59.553 -50.863  1.00  0.00     0.217 HD
ENDBRANCH   8  31
BRANCH   1  33
HETATM   33  C   UNL     1     -42.768  57.166 -57.453  1.00  0.00     0.055 C 
BRANCH  33  34
HETATM   34  C   UNL     1     -43.713  56.328 -58.318  1.00  0.00     0.116 C 
BRANCH  34  35
HETATM   35  C   UNL     1     -43.850  56.864 -59.720  1.00  0.00     0.259 C 
HETATM   36  O   UNL     1     -43.087  56.577 -60.637  1.00  0.00    -0.265 OA
BRANCH  35  37
HETATM   37  O   UNL     1     -44.930  57.681 -59.811  1.00  0.00    -0.322 OA
BRANCH  37  38
HETATM   38  C   UNL     1     -46.157  57.188 -59.251  1.00  0.00     0.174 C 
HETATM   39  C   UNL     1     -46.891  56.345 -60.274  1.00  0.00     0.034 C 
ENDBRANCH  37  38
ENDBRANCH  35  37
ENDBRANCH  34  35
ENDBRANCH  33  34
ENDBRANCH   1  33
TORSDOF 11
ENDMDL
MODEL 4
REMARK VINA RESULT:      -7.8      2.384      7.851
REMARK  11 active torsions:
REMARK  status: ('A' for Active; 'I' for Inactive)
REMARK    1  A    between atoms: C_2  and  O_3 
REMARK    2  A    between atoms: O_3  and  C_4 
REMARK    3  A    between atoms: C_4  and  C_5 
REMARK    4  A    between atoms: C_5  and  C_6 
REMARK    5  A    between atoms: C_6  and  C_7 
REMARK    6  A    between atoms: C_13  and  C_14 
REMARK    7  A    between atoms: C_14  and  N_15 
REMARK    8  A    between atoms: N_15  and  C_18 
REMARK    9  A    between atoms: N_21  and  C_23 
REMARK   10  A    between atoms: C_23  and  C_24 
REMARK   11  A    between atoms: C_32  and  O_33 
ROOT
HETATM    1  C   UNL     1     -41.405  54.027 -53.655  1.00  0.00     0.025 A 
HETATM    2  C   UNL     1     -41.636  54.998 -54.759  1.00  0.00     0.295 A 
HETATM    3  O   UNL     1     -41.874  54.657 -55.911  1.00  0.00    -0.259 OA
HETATM    4  O   UNL     1     -41.526  56.345 -54.457  1.00  0.00    -0.274 OA
HETATM    5  C   UNL     1     -41.347  56.806 -53.144  1.00  0.00     0.101 A 
HETATM    6  C   UNL     1     -41.226  55.901 -52.090  1.00  0.00     0.005 A 
HETATM    7  C   UNL     1     -41.287  58.198 -52.974  1.00  0.00     0.035 A 
HETATM    8  C   UNL     1     -41.115  58.689 -51.679  1.00  0.00     0.076 A 
HETATM    9  C   UNL     1     -41.022  57.826 -50.594  1.00  0.00     0.038 A 
HETATM   10  C   UNL     1     -41.078  56.442 -50.804  1.00  0.00     0.017 A 
HETATM   11  C   UNL     1     -41.223  54.449 -52.381  1.00  0.00    -0.037 A 
HETATM   12  C   UNL     1     -40.971  53.528 -51.210  1.00  0.00     0.050 C 
ENDROOT
BRANCH   7  13
HETATM   13  C   UNL     1     -41.392  59.139 -54.139  1.00  0.00     0.276 C 
BRANCH  13  14
HETATM   14  N   UNL     1     -42.653  58.860 -54.928  1.00  0.00    -0.067 N 
HETATM   15  H   UNL     1     -42.339  58.082 -55.543  1.00  0.00     0.277 HD
HETATM   16  H   UNL     1     -43.312  58.421 -54.275  1.00  0.00     0.277 HD
BRANCH  14  17
HETATM   17  C   UNL     1     -43.202  59.993 -55.739  1.00  0.00     0.189 C 
HETATM   18  C   UNL     1     -44.457  59.597 -56.519  1.00  0.00     0.060 C 
HETATM   19  C   UNL     1     -44.188  58.686 -57.709  1.00  0.00     0.237 C 
HETATM   20  N   UNL     1     -43.134  59.293 -58.601  1.00  0.00    -0.067 N 
HETATM   21  H   UNL     1     -43.527  60.155 -59.012  1.00  0.00     0.280 HD
HETATM   22  C   UNL     1     -41.855  59.629 -57.886  1.00  0.00     0.237 C 
HETATM   23  C   UNL     1     -42.130  60.532 -56.690  1.00  0.00     0.060 C 
BRANCH  20  24
HETATM   24  C   UNL     1     -42.841  58.417 -59.830  1.00  0.00     0.273 C 
BRANCH  24  25
HETATM   25  C   UNL     1     -43.714  57.199 -59.913  1.00  0.00    -0.033 A 
HETATM   26  C   UNL     1     -43.210  55.936 -59.564  1.00  0.00     0.009 A 
HETATM   27  C   UNL     1     -44.018  54.803 -59.669  1.00  0.00     0.001 A 
HETATM   28  C   UNL     1     -45.330  54.918 -60.122  1.00  0.00     0.000 A 
HETATM   29  C   UNL     1     -45.841  56.166 -60.466  1.00  0.00     0.001 A 
HETATM   30  C   UNL     1     -45.041  57.304 -60.360  1.00  0.00     0.009 A 
ENDBRANCH  24  25
ENDBRANCH  20  24
ENDBRANCH  14  17
ENDBRANCH  13  14
ENDBRANCH   7  13
BRANCH   8  31
HETATM   31  O   UNL     1     -40.995  60.043 -51.511  1.00  0.00    -0.360 OA
HETATM   32  H   UNL     1     -40.095  60.215 -51.159  1.00  0.00     0.217 HD
ENDBRANCH   8  31
BRANCH   1  33
HETATM   33  C   UNL     1     -41.398  52.581 -54.124  1.00  0.00     0.055 C 
BRANCH  33  34
HETATM   34  C   UNL     1     -40.016  52.024 -54.477  1.00  0.00     0.116 C 
BRANCH  34  35
HETATM   35  C   UNL     1     -39.772  50.656 -53.892  1.00  0.00     0.259 C 
HETATM   36  O   UNL     1     -39.939  49.611 -54.511  1.00  0.00    -0.265 OA
BRANCH  35  37
HETATM   37  O   UNL     1     -39.337  50.760 -52.610  1.00  0.00    -0.322 OA
BRANCH  37  38
HETATM   38  C   UNL     1     -39.518  49.606 -51.775  1.00  0.00     0.174 C 
HETATM   39  C   UNL     1     -40.121  50.016 -50.447  1.00  0.00     0.034 C 
ENDBRANCH  37  38
ENDBRANCH  35  37
ENDBRANCH  34  35
ENDBRANCH  33  34
ENDBRANCH   1  33
TORSDOF 11
ENDMDL
MODEL 5
REMARK VINA RESULT:      -7.4      2.223      3.869
REMARK  11 active torsions:
REMARK  status: ('A' for Active; 'I' for Inactive)
REMARK    1  A    between atoms: C_2  and  O_3 
REMARK    2  A    between atoms: O_3  and  C_4 
REMARK    3  A    between atoms: C_4  and  C_5 
REMARK    4  A    between atoms: C_5  and  C_6 
REMARK    5  A    between atoms: C_6  and  C_7 
REMARK    6  A    between atoms: C_13  and  C_14 
REMARK    7  A    between atoms: C_14  and  N_15 
REMARK    8  A    between atoms: N_15  and  C_18 
REMARK    9  A    between atoms: N_21  and  C_23 
REMARK   10  A    between atoms: C_23  and  C_24 
REMARK   11  A    between atoms: C_32  and  O_33 
ROOT
HETATM    1  C   UNL     1     -44.712  59.824 -56.405  1.00  0.00     0.025 A 
HETATM    2  C   UNL     1     -45.373  58.684 -55.713  1.00  0.00     0.295 A 
HETATM    3  O   UNL     1     -46.105  57.887 -56.285  1.00  0.00    -0.259 OA
HETATM    4  O   UNL     1     -45.174  58.568 -54.348  1.00  0.00    -0.274 OA
HETATM    5  C   UNL     1     -44.278  59.389 -53.648  1.00  0.00     0.101 A 
HETATM    6  C   UNL     1     -43.582  60.398 -54.312  1.00  0.00     0.005 A 
HETATM    7  C   UNL     1     -44.146  59.139 -52.272  1.00  0.00     0.035 A 
HETATM    8  C   UNL     1     -43.258  59.937 -51.549  1.00  0.00     0.076 A 
HETATM    9  C   UNL     1     -42.520  60.933 -52.174  1.00  0.00     0.038 A 
HETATM   10  C   UNL     1     -42.684  61.159 -53.547  1.00  0.00     0.017 A 
HETATM   11  C   UNL     1     -43.849  60.635 -55.749  1.00  0.00    -0.037 A 
HETATM   12  C   UNL     1     -43.150  61.818 -56.378  1.00  0.00     0.050 C 
ENDROOT
BRANCH   7  13
HETATM   13  C   UNL     1     -44.936  58.062 -51.589  1.00  0.00     0.276 C 
BRANCH  13  14
HETATM   14  N   UNL     1     -44.389  56.698 -51.952  1.00  0.00    -0.067 N 
HETATM   15  H   UNL     1     -45.266  56.169 -52.130  1.00  0.00     0.277 HD
HETATM   16  H   UNL     1     -43.956  56.798 -52.878  1.00  0.00     0.277 HD
BRANCH  14  17
HETATM   17  C   UNL     1     -43.552  56.011 -50.916  1.00  0.00     0.189 C 
HETATM   18  C   UNL     1     -42.088  56.452 -50.964  1.00  0.00     0.060 C 
HETATM   19  C   UNL     1     -41.314  55.909 -52.158  1.00  0.00     0.237 C 
HETATM   20  N   UNL     1     -41.458  54.409 -52.233  1.00  0.00    -0.067 N 
HETATM   21  H   UNL     1     -40.987  54.006 -51.407  1.00  0.00     0.280 HD
HETATM   22  C   UNL     1     -42.885  53.938 -52.263  1.00  0.00     0.237 C 
HETATM   23  C   UNL     1     -43.659  54.493 -51.073  1.00  0.00     0.060 C 
BRANCH  20  24
HETATM   24  C   UNL     1     -40.676  53.811 -53.413  1.00  0.00     0.273 C 
BRANCH  24  25
HETATM   25  C   UNL     1     -40.257  52.387 -53.187  1.00  0.00    -0.033 A 
HETATM   26  C   UNL     1     -40.261  51.466 -54.247  1.00  0.00     0.009 A 
HETATM   27  C   UNL     1     -39.897  50.137 -54.025  1.00  0.00     0.001 A 
HETATM   28  C   UNL     1     -39.528  49.716 -52.750  1.00  0.00     0.000 A 
HETATM   29  C   UNL     1     -39.516  50.622 -51.693  1.00  0.00     0.001 A 
HETATM   30  C   UNL     1     -39.875  51.953 -51.908  1.00  0.00     0.009 A 
ENDBRANCH  24  25
ENDBRANCH  20  24
ENDBRANCH  14  17
ENDBRANCH  13  14
ENDBRANCH   7  13
BRANCH   8  31
HETATM   31  O   UNL     1     -43.167  59.740 -50.196  1.00  0.00    -0.360 OA
HETATM   32  H   UNL     1     -43.003  58.783 -50.050  1.00  0.00     0.217 HD
ENDBRANCH   8  31
BRANCH   1  33
HETATM   33  C   UNL     1     -45.117  59.950 -57.866  1.00  0.00     0.055 C 
BRANCH  33  34
HETATM   34  C   UNL     1     -44.626  58.818 -58.772  1.00  0.00     0.116 C 
BRANCH  34  35
HETATM   35  C   UNL     1     -43.134  58.852 -58.990  1.00  0.00     0.259 C 
HETATM   36  O   UNL     1     -42.492  59.886 -59.142  1.00  0.00    -0.265 OA
BRANCH  35  37
HETATM   37  O   UNL     1     -42.625  57.594 -58.980  1.00  0.00    -0.322 OA
BRANCH  37  38
HETATM   38  C   UNL     1     -43.444  56.575 -58.386  1.00  0.00     0.174 C 
HETATM   39  C   UNL     1     -43.564  55.393 -59.326  1.00  0.00     0.034 C 
ENDBRANCH  37  38
ENDBRANCH  35  37
ENDBRANCH  34  35
ENDBRANCH  33  34
ENDBRANCH   1  33
TORSDOF 11
ENDMDL
MODEL 6
REMARK VINA RESULT:      -7.4     16.281     20.718
REMARK  11 active torsions:
REMARK  status: ('A' for Active; 'I' for Inactive)
REMARK    1  A    between atoms: C_2  and  O_3 
REMARK    2  A    between atoms: O_3  and  C_4 
REMARK    3  A    between atoms: C_4  and  C_5 
REMARK    4  A    between atoms: C_5  and  C_6 
REMARK    5  A    between atoms: C_6  and  C_7 
REMARK    6  A    between atoms: C_13  and  C_14 
REMARK    7  A    between atoms: C_14  and  N_15 
REMARK    8  A    between atoms: N_15  and  C_18 
REMARK    9  A    between atoms: N_21  and  C_23 
REMARK   10  A    between atoms: C_23  and  C_24 
REMARK   11  A    between atoms: C_32  and  O_33 
ROOT
HETATM    1  C   UNL     1     -33.257  39.640 -50.261  1.00  0.00     0.025 A 
HETATM    2  C   UNL     1     -32.952  40.565 -51.387  1.00  0.00     0.295 A 
HETATM    3  O   UNL     1     -31.813  40.890 -51.697  1.00  0.00    -0.259 OA
HETATM    4  O   UNL     1     -34.025  41.109 -52.072  1.00  0.00    -0.274 OA
HETATM    5  C   UNL     1     -35.348  40.711 -51.831  1.00  0.00     0.101 A 
HETATM    6  C   UNL     1     -35.632  39.771 -50.840  1.00  0.00     0.005 A 
HETATM    7  C   UNL     1     -36.337  41.317 -52.623  1.00  0.00     0.035 A 
HETATM    8  C   UNL     1     -37.664  40.938 -52.410  1.00  0.00     0.076 A 
HETATM    9  C   UNL     1     -37.990  39.983 -51.456  1.00  0.00     0.038 A 
HETATM   10  C   UNL     1     -36.977  39.406 -50.679  1.00  0.00     0.017 A 
HETATM   11  C   UNL     1     -34.527  39.248 -50.004  1.00  0.00    -0.037 A 
HETATM   12  C   UNL     1     -34.918  38.323 -48.874  1.00  0.00     0.050 C 
ENDROOT
BRANCH   7  13
HETATM   13  C   UNL     1     -35.994  42.347 -53.659  1.00  0.00     0.276 C 
BRANCH  13  14
HETATM   14  N   UNL     1     -35.408  41.683 -54.886  1.00  0.00    -0.067 N 
HETATM   15  H   UNL     1     -34.390  41.821 -54.724  1.00  0.00     0.277 HD
HETATM   16  H   UNL     1     -35.553  40.674 -54.766  1.00  0.00     0.277 HD
BRANCH  14  17
HETATM   17  C   UNL     1     -35.819  42.243 -56.214  1.00  0.00     0.189 C 
HETATM   18  C   UNL     1     -37.337  42.250 -56.398  1.00  0.00     0.060 C 
HETATM   19  C   UNL     1     -37.942  40.872 -56.629  1.00  0.00     0.237 C 
HETATM   20  N   UNL     1     -37.236  40.178 -57.767  1.00  0.00    -0.067 N 
HETATM   21  H   UNL     1     -37.439  40.704 -58.632  1.00  0.00     0.280 HD
HETATM   22  C   UNL     1     -35.747  40.084 -57.589  1.00  0.00     0.237 C 
HETATM   23  C   UNL     1     -35.147  41.464 -57.347  1.00  0.00     0.060 C 
BRANCH  20  24
HETATM   24  C   UNL     1     -37.825  38.787 -58.052  1.00  0.00     0.273 C 
BRANCH  24  25
HETATM   25  C   UNL     1     -38.242  38.601 -59.482  1.00  0.00    -0.033 A 
HETATM   26  C   UNL     1     -39.436  37.931 -59.795  1.00  0.00     0.009 A 
HETATM   27  C   UNL     1     -39.804  37.736 -61.127  1.00  0.00     0.001 A 
HETATM   28  C   UNL     1     -38.990  38.205 -62.155  1.00  0.00     0.000 A 
HETATM   29  C   UNL     1     -37.807  38.875 -61.856  1.00  0.00     0.001 A 
HETATM   30  C   UNL     1     -37.434  39.077 -60.527  1.00  0.00     0.009 A 
ENDBRANCH  24  25
ENDBRANCH  20  24
ENDBRANCH  14  17
ENDBRANCH  13  14
ENDBRANCH   7  13
BRANCH   8  31
HETATM   31  O   UNL     1     -38.640  41.568 -53.135  1.00  0.00    -0.360 OA
HETATM   32  H   UNL     1     -38.192  42.169 -53.769  1.00  0.00     0.217 HD
ENDBRANCH   8  31
BRANCH   1  33
HETATM   33  C   UNL     1     -32.020  39.223 -49.481  1.00  0.00     0.055 C 
BRANCH  33  34
HETATM   34  C   UNL     1     -31.716  40.077 -48.248  1.00  0.00     0.116 C 
BRANCH  34  35
HETATM   35  C   UNL     1     -30.696  39.442 -47.336  1.00  0.00     0.259 C 
HETATM   36  O   UNL     1     -30.673  38.246 -47.069  1.00  0.00    -0.265 OA
BRANCH  35  37
HETATM   37  O   UNL     1     -29.822  40.376 -46.881  1.00  0.00    -0.322 OA
BRANCH  37  38
HETATM   38  C   UNL     1     -29.203  40.111 -45.612  1.00  0.00     0.174 C 
HETATM   39  C   UNL     1     -30.066  40.655 -44.491  1.00  0.00     0.034 C 
ENDBRANCH  37  38
ENDBRANCH  35  37
ENDBRANCH  34  35
ENDBRANCH  33  34
ENDBRANCH   1  33
TORSDOF 11
ENDMDL
MODEL 7
REMARK VINA RESULT:      -7.3      2.637      4.460
REMARK  11 active torsions:
REMARK  status: ('A' for Active; 'I' for Inactive)
REMARK    1  A    between atoms: C_2  and  O_3 
REMARK    2  A    between atoms: O_3  and  C_4 
REMARK    3  A    between atoms: C_4  and  C_5 
REMARK    4  A    between atoms: C_5  and  C_6 
REMARK    5  A    between atoms: C_6  and  C_7 
REMARK    6  A    between atoms: C_13  and  C_14 
REMARK    7  A    between atoms: C_14  and  N_15 
REMARK    8  A    between atoms: N_15  and  C_18 
REMARK    9  A    between atoms: N_21  and  C_23 
REMARK   10  A    between atoms: C_23  and  C_24 
REMARK   11  A    between atoms: C_32  and  O_33 
ROOT
HETATM    1  C   UNL     1     -43.792  60.855 -55.691  1.00  0.00     0.025 A 
HETATM    2  C   UNL     1     -42.749  60.037 -55.012  1.00  0.00     0.295 A 
HETATM    3  O   UNL     1     -41.657  59.797 -55.510  1.00  0.00    -0.259 OA
HETATM    4  O   UNL     1     -43.070  59.494 -53.780  1.00  0.00    -0.274 OA
HETATM    5  C   UNL     1     -44.264  59.803 -53.112  1.00  0.00     0.101 A 
HETATM    6  C   UNL     1     -45.203  60.647 -53.703  1.00  0.00     0.005 A 
HETATM    7  C   UNL     1     -44.446  59.210 -51.852  1.00  0.00     0.035 A 
HETATM    8  C   UNL     1     -45.623  59.502 -51.160  1.00  0.00     0.076 A 
HETATM    9  C   UNL     1     -46.572  60.363 -51.695  1.00  0.00     0.038 A 
HETATM   10  C   UNL     1     -46.359  60.929 -52.959  1.00  0.00     0.017 A 
HETATM   11  C   UNL     1     -44.955  61.161 -55.069  1.00  0.00    -0.037 A 
HETATM   12  C   UNL     1     -46.065  61.973 -55.696  1.00  0.00     0.050 C 
ENDROOT
BRANCH   7  13
HETATM   13  C   UNL     1     -43.424  58.282 -51.263  1.00  0.00     0.276 C 
BRANCH  13  14
HETATM   14  N   UNL     1     -43.870  56.844 -51.414  1.00  0.00    -0.067 N 
HETATM   15  H   UNL     1     -44.888  56.926 -51.221  1.00  0.00     0.277 HD
HETATM   16  H   UNL     1     -43.815  56.628 -52.416  1.00  0.00     0.277 HD
BRANCH  14  17
HETATM   17  C   UNL     1     -43.232  55.843 -50.500  1.00  0.00     0.189 C 
HETATM   18  C   UNL     1     -41.719  56.039 -50.386  1.00  0.00     0.060 C 
HETATM   19  C   UNL     1     -40.942  55.619 -51.627  1.00  0.00     0.237 C 
HETATM   20  N   UNL     1     -41.303  54.205 -52.011  1.00  0.00    -0.067 N 
HETATM   21  H   UNL     1     -40.966  53.579 -51.263  1.00  0.00     0.280 HD
HETATM   22  C   UNL     1     -42.778  53.988 -52.206  1.00  0.00     0.237 C 
HETATM   23  C   UNL     1     -43.553  54.421 -50.968  1.00  0.00     0.060 C 
BRANCH  20  24
HETATM   24  C   UNL     1     -40.528  53.727 -53.250  1.00  0.00     0.273 C 
BRANCH  24  25
HETATM   25  C   UNL     1     -40.186  52.266 -53.208  1.00  0.00    -0.033 A 
HETATM   26  C   UNL     1     -40.299  51.474 -54.362  1.00  0.00     0.009 A 
HETATM   27  C   UNL     1     -40.006  50.110 -54.310  1.00  0.00     0.001 A 
HETATM   28  C   UNL     1     -39.600  49.526 -53.113  1.00  0.00     0.000 A 
HETATM   29  C   UNL     1     -39.479  50.303 -51.964  1.00  0.00     0.001 A 
HETATM   30  C   UNL     1     -39.767  51.667 -52.009  1.00  0.00     0.009 A 
ENDBRANCH  24  25
ENDBRANCH  20  24
ENDBRANCH  14  17
ENDBRANCH  13  14
ENDBRANCH   7  13
BRANCH   8  31
HETATM   31  O   UNL     1     -45.837  58.881 -49.958  1.00  0.00    -0.360 OA
HETATM   32  H   UNL     1     -45.748  59.563 -49.257  1.00  0.00     0.217 HD
ENDBRANCH   8  31
BRANCH   1  33
HETATM   33  C   UNL     1     -43.397  61.274 -57.099  1.00  0.00     0.055 C 
BRANCH  33  34
HETATM   34  C   UNL     1     -43.305  60.130 -58.111  1.00  0.00     0.116 C 
BRANCH  34  35
HETATM   35  C   UNL     1     -44.597  59.363 -58.244  1.00  0.00     0.259 C 
HETATM   36  O   UNL     1     -45.559  59.758 -58.894  1.00  0.00    -0.265 OA
BRANCH  35  37
HETATM   37  O   UNL     1     -44.525  58.192 -57.560  1.00  0.00    -0.322 OA
BRANCH  37  38
HETATM   38  C   UNL     1     -43.470  57.294 -57.937  1.00  0.00     0.174 C 
HETATM   39  C   UNL     1     -42.961  56.553 -56.717  1.00  0.00     0.034 C 
ENDBRANCH  37  38
ENDBRANCH  35  37
ENDBRANCH  34  35
ENDBRANCH  33  34
ENDBRANCH   1  33
TORSDOF 11
ENDMDL
MODEL 8
REMARK VINA RESULT:      -7.2      3.652      5.169
REMARK  11 active torsions:
REMARK  status: ('A' for Active; 'I' for Inactive)
REMARK    1  A    between atoms: C_2  and  O_3 
REMARK    2  A    between atoms: O_3  and  C_4 
REMARK    3  A    between atoms: C_4  and  C_5 
REMARK    4  A    between atoms: C_5  and  C_6 
REMARK    5  A    between atoms: C_6  and  C_7 
REMARK    6  A    between atoms: C_13  and  C_14 
REMARK    7  A    between atoms: C_14  and  N_15 
REMARK    8  A    between atoms: N_15  and  C_18 
REMARK    9  A    between atoms: N_21  and  C_23 
REMARK   10  A    between atoms: C_23  and  C_24 
REMARK   11  A    between atoms: C_32  and  O_33 
ROOT
HETATM    1  C   UNL     1     -43.809  60.498 -55.807  1.00  0.00     0.025 A 
HETATM    2  C   UNL     1     -42.826  59.615 -55.121  1.00  0.00     0.295 A 
HETATM    3  O   UNL     1     -41.774  59.258 -55.636  1.00  0.00    -0.259 OA
HETATM    4  O   UNL     1     -43.160  59.149 -53.861  1.00  0.00    -0.274 OA
HETATM    5  C   UNL     1     -44.303  59.589 -53.178  1.00  0.00     0.101 A 
HETATM    6  C   UNL     1     -45.179  60.493 -53.779  1.00  0.00     0.005 A 
HETATM    7  C   UNL     1     -44.503  59.063 -51.892  1.00  0.00     0.035 A 
HETATM    8  C   UNL     1     -45.630  59.486 -51.184  1.00  0.00     0.076 A 
HETATM    9  C   UNL     1     -46.512  60.409 -51.729  1.00  0.00     0.038 A 
HETATM   10  C   UNL     1     -46.284  60.906 -53.020  1.00  0.00     0.017 A 
HETATM   11  C   UNL     1     -44.923  60.931 -55.170  1.00  0.00    -0.037 A 
HETATM   12  C   UNL     1     -45.972  61.817 -55.802  1.00  0.00     0.050 C 
ENDROOT
BRANCH   7  13
HETATM   13  C   UNL     1     -43.553  58.069 -51.291  1.00  0.00     0.276 C 
BRANCH  13  14
HETATM   14  N   UNL     1     -44.118  56.669 -51.400  1.00  0.00    -0.067 N 
HETATM   15  H   UNL     1     -45.120  56.838 -51.181  1.00  0.00     0.277 HD
HETATM   16  H   UNL     1     -44.110  56.431 -52.398  1.00  0.00     0.277 HD
BRANCH  14  17
HETATM   17  C   UNL     1     -43.537  55.637 -50.482  1.00  0.00     0.189 C 
HETATM   18  C   UNL     1     -42.051  55.873 -50.206  1.00  0.00     0.060 C 
HETATM   19  C   UNL     1     -41.140  55.550 -51.383  1.00  0.00     0.237 C 
HETATM   20  N   UNL     1     -41.409  54.151 -51.880  1.00  0.00    -0.067 N 
HETATM   21  H   UNL     1     -41.125  53.493 -51.137  1.00  0.00     0.280 HD
HETATM   22  C   UNL     1     -42.848  53.900 -52.234  1.00  0.00     0.237 C 
HETATM   23  C   UNL     1     -43.757  54.235 -51.057  1.00  0.00     0.060 C 
BRANCH  20  24
HETATM   24  C   UNL     1     -40.498  53.770 -53.058  1.00  0.00     0.273 C 
BRANCH  24  25
HETATM   25  C   UNL     1     -40.172  52.306 -53.107  1.00  0.00    -0.033 A 
HETATM   26  C   UNL     1     -39.776  51.625 -51.945  1.00  0.00     0.009 A 
HETATM   27  C   UNL     1     -39.448  50.270 -52.001  1.00  0.00     0.001 A 
HETATM   28  C   UNL     1     -39.509  49.584 -53.212  1.00  0.00     0.000 A 
HETATM   29  C   UNL     1     -39.906  50.248 -54.369  1.00  0.00     0.001 A 
HETATM   30  C   UNL     1     -40.239  51.602 -54.320  1.00  0.00     0.009 A 
ENDBRANCH  24  25
ENDBRANCH  20  24
ENDBRANCH  14  17
ENDBRANCH  13  14
ENDBRANCH   7  13
BRANCH   8  31
HETATM   31  O   UNL     1     -45.866  58.932 -49.953  1.00  0.00    -0.360 OA
HETATM   32  H   UNL     1     -45.397  58.069 -49.927  1.00  0.00     0.217 HD
ENDBRANCH   8  31
BRANCH   1  33
HETATM   33  C   UNL     1     -43.416  60.827 -57.239  1.00  0.00     0.055 C 
BRANCH  33  34
HETATM   34  C   UNL     1     -42.716  62.175 -57.423  1.00  0.00     0.116 C 
BRANCH  34  35
HETATM   35  C   UNL     1     -41.388  62.052 -58.127  1.00  0.00     0.259 C 
HETATM   36  O   UNL     1     -40.524  61.240 -57.813  1.00  0.00    -0.265 OA
BRANCH  35  37
HETATM   37  O   UNL     1     -41.306  62.947 -59.144  1.00  0.00    -0.322 OA
BRANCH  37  38
HETATM   38  C   UNL     1     -40.955  62.422 -60.434  1.00  0.00     0.174 C 
HETATM   39  C   UNL     1     -39.685  63.082 -60.933  1.00  0.00     0.034 C 
ENDBRANCH  37  38
ENDBRANCH  35  37
ENDBRANCH  34  35
ENDBRANCH  33  34
ENDBRANCH   1  33
TORSDOF 11
ENDMDL
MODEL 9
REMARK VINA RESULT:      -7.2      1.844      4.453
REMARK  11 active torsions:
REMARK  status: ('A' for Active; 'I' for Inactive)
REMARK    1  A    between atoms: C_2  and  O_3 
REMARK    2  A    between atoms: O_3  and  C_4 
REMARK    3  A    between atoms: C_4  and  C_5 
REMARK    4  A    between atoms: C_5  and  C_6 
REMARK    5  A    between atoms: C_6  and  C_7 
REMARK    6  A    between atoms: C_13  and  C_14 
REMARK    7  A    between atoms: C_14  and  N_15 
REMARK    8  A    between atoms: N_15  and  C_18 
REMARK    9  A    between atoms: N_21  and  C_23 
REMARK   10  A    between atoms: C_23  and  C_24 
REMARK   11  A    between atoms: C_32  and  O_33 
ROOT
HETATM    1  C   UNL     1     -41.878  60.105 -58.390  1.00  0.00     0.025 A 
HETATM    2  C   UNL     1     -41.846  59.431 -57.063  1.00  0.00     0.295 A 
HETATM    3  O   UNL     1     -41.440  59.977 -56.045  1.00  0.00    -0.259 OA
HETATM    4  O   UNL     1     -42.256  58.110 -57.010  1.00  0.00    -0.274 OA
HETATM    5  C   UNL     1     -42.818  57.454 -58.115  1.00  0.00     0.101 A 
HETATM    6  C   UNL     1     -42.939  58.113 -59.338  1.00  0.00     0.005 A 
HETATM    7  C   UNL     1     -43.224  56.126 -57.912  1.00  0.00     0.035 A 
HETATM    8  C   UNL     1     -43.792  55.447 -58.992  1.00  0.00     0.076 A 
HETATM    9  C   UNL     1     -43.962  56.073 -60.220  1.00  0.00     0.038 A 
HETATM   10  C   UNL     1     -43.537  57.398 -60.387  1.00  0.00     0.017 A 
HETATM   11  C   UNL     1     -42.409  59.489 -59.473  1.00  0.00    -0.037 A 
HETATM   12  C   UNL     1     -42.467  60.101 -60.854  1.00  0.00     0.050 C 
ENDROOT
BRANCH   7  13
HETATM   13  C   UNL     1     -43.049  55.442 -56.588  1.00  0.00     0.276 C 
BRANCH  13  14
HETATM   14  N   UNL     1     -43.826  56.171 -55.513  1.00  0.00    -0.067 N 
HETATM   15  H   UNL     1     -43.846  57.137 -55.898  1.00  0.00     0.277 HD
HETATM   16  H   UNL     1     -44.796  55.845 -55.586  1.00  0.00     0.277 HD
BRANCH  14  17
HETATM   17  C   UNL     1     -43.240  56.157 -54.134  1.00  0.00     0.189 C 
HETATM   18  C   UNL     1     -41.757  56.532 -54.127  1.00  0.00     0.060 C 
HETATM   19  C   UNL     1     -40.839  55.452 -54.685  1.00  0.00     0.237 C 
HETATM   20  N   UNL     1     -41.096  54.140 -53.987  1.00  0.00    -0.067 N 
HETATM   21  H   UNL     1     -40.809  54.247 -53.001  1.00  0.00     0.280 HD
HETATM   22  C   UNL     1     -42.531  53.698 -54.035  1.00  0.00     0.237 C 
HETATM   23  C   UNL     1     -43.447  54.785 -53.487  1.00  0.00     0.060 C 
BRANCH  20  24
HETATM   24  C   UNL     1     -40.177  53.021 -54.503  1.00  0.00     0.273 C 
BRANCH  24  25
HETATM   25  C   UNL     1     -39.977  51.913 -53.511  1.00  0.00    -0.033 A 
HETATM   26  C   UNL     1     -39.921  52.189 -52.135  1.00  0.00     0.009 A 
HETATM   27  C   UNL     1     -39.706  51.159 -51.219  1.00  0.00     0.001 A 
HETATM   28  C   UNL     1     -39.545  49.849 -51.663  1.00  0.00     0.000 A 
HETATM   29  C   UNL     1     -39.605  49.562 -53.024  1.00  0.00     0.001 A 
HETATM   30  C   UNL     1     -39.822  50.587 -53.946  1.00  0.00     0.009 A 
ENDBRANCH  24  25
ENDBRANCH  20  24
ENDBRANCH  14  17
ENDBRANCH  13  14
ENDBRANCH   7  13
BRANCH   8  31
HETATM   31  O   UNL     1     -44.135  54.132 -58.822  1.00  0.00    -0.360 OA
HETATM   32  H   UNL     1     -44.539  54.049 -57.930  1.00  0.00     0.217 HD
ENDBRANCH   8  31
BRANCH   1  33
HETATM   33  C   UNL     1     -41.266  61.497 -58.367  1.00  0.00     0.055 C 
BRANCH  33  34
HETATM   34  C   UNL     1     -42.155  62.583 -57.758  1.00  0.00     0.116 C 
BRANCH  34  35
HETATM   35  C   UNL     1     -43.253  63.029 -58.690  1.00  0.00     0.259 C 
HETATM   36  O   UNL     1     -43.069  63.331 -59.864  1.00  0.00    -0.265 OA
BRANCH  35  37
HETATM   37  O   UNL     1     -44.449  63.031 -58.047  1.00  0.00    -0.322 OA
BRANCH  37  38
HETATM   38  C   UNL     1     -44.662  61.985 -57.086  1.00  0.00     0.174 C 
HETATM   39  C   UNL     1     -45.439  60.849 -57.721  1.00  0.00     0.034 C 
ENDBRANCH  37  38
ENDBRANCH  35  37
ENDBRANCH  34  35
ENDBRANCH  33  34
ENDBRANCH   1  33
TORSDOF 11
ENDMDL
MODEL 10
REMARK VINA RESULT:      -7.2      4.056      8.240
REMARK  11 active torsions:
REMARK  status: ('A' for Active; 'I' for Inactive)
REMARK    1  A    between atoms: C_2  and  O_3 
REMARK    2  A    between atoms: O_3  and  C_4 
REMARK    3  A    between atoms: C_4  and  C_5 
REMARK    4  A    between atoms: C_5  and  C_6 
REMARK    5  A    between atoms: C_6  and  C_7 
REMARK    6  A    between atoms: C_13  and  C_14 
REMARK    7  A    between atoms: C_14  and  N_15 
REMARK    8  A    between atoms: N_15  and  C_18 
REMARK    9  A    between atoms: N_21  and  C_23 
REMARK   10  A    between atoms: C_23  and  C_24 
REMARK   11  A    between atoms: C_32  and  O_33 
ROOT
HETATM    1  C   UNL     1     -41.695  55.038 -53.036  1.00  0.00     0.025 A 
HETATM    2  C   UNL     1     -41.431  56.462 -52.690  1.00  0.00     0.295 A 
HETATM    3  O   UNL     1     -40.995  56.817 -51.603  1.00  0.00    -0.259 OA
HETATM    4  O   UNL     1     -41.747  57.416 -53.642  1.00  0.00    -0.274 OA
HETATM    5  C   UNL     1     -42.163  57.075 -54.937  1.00  0.00     0.101 A 
HETATM    6  C   UNL     1     -42.319  55.736 -55.297  1.00  0.00     0.005 A 
HETATM    7  C   UNL     1     -42.416  58.142 -55.814  1.00  0.00     0.035 A 
HETATM    8  C   UNL     1     -42.827  57.834 -57.112  1.00  0.00     0.076 A 
HETATM    9  C   UNL     1     -42.965  56.515 -57.524  1.00  0.00     0.038 A 
HETATM   10  C   UNL     1     -42.711  55.476 -56.618  1.00  0.00     0.017 A 
HETATM   11  C   UNL     1     -42.103  54.684 -54.277  1.00  0.00    -0.037 A 
HETATM   12  C   UNL     1     -42.403  53.264 -54.700  1.00  0.00     0.050 C 
ENDROOT
BRANCH   7  13
HETATM   13  C   UNL     1     -42.265  59.570 -55.379  1.00  0.00     0.276 C 
BRANCH  13  14
HETATM   14  N   UNL     1     -43.083  59.830 -54.132  1.00  0.00    -0.067 N 
HETATM   15  H   UNL     1     -43.998  60.102 -54.544  1.00  0.00     0.277 HD
HETATM   16  H   UNL     1     -43.256  58.913 -53.704  1.00  0.00     0.277 HD
BRANCH  14  17
HETATM   17  C   UNL     1     -42.577  60.892 -53.205  1.00  0.00     0.189 C 
HETATM   18  C   UNL     1     -42.067  60.317 -51.883  1.00  0.00     0.060 C 
HETATM   19  C   UNL     1     -43.168  59.826 -50.952  1.00  0.00     0.237 C 
HETATM   20  N   UNL     1     -44.193  60.913 -50.741  1.00  0.00    -0.067 N 
HETATM   21  H   UNL     1     -43.735  61.682 -50.226  1.00  0.00     0.280 HD
HETATM   22  C   UNL     1     -44.774  61.454 -52.016  1.00  0.00     0.237 C 
HETATM   23  C   UNL     1     -43.669  61.934 -52.949  1.00  0.00     0.060 C 
BRANCH  20  24
HETATM   24  C   UNL     1     -45.317  60.471 -49.790  1.00  0.00     0.273 C 
BRANCH  24  25
HETATM   25  C   UNL     1     -45.316  61.211 -48.484  1.00  0.00    -0.033 A 
HETATM   26  C   UNL     1     -45.686  60.560 -47.296  1.00  0.00     0.009 A 
HETATM   27  C   UNL     1     -45.710  61.260 -46.089  1.00  0.00     0.001 A 
HETATM   28  C   UNL     1     -45.366  62.609 -46.055  1.00  0.00     0.000 A 
HETATM   29  C   UNL     1     -44.991  63.262 -47.225  1.00  0.00     0.001 A 
HETATM   30  C   UNL     1     -44.962  62.568 -48.436  1.00  0.00     0.009 A 
ENDBRANCH  24  25
ENDBRANCH  20  24
ENDBRANCH  14  17
ENDBRANCH  13  14
ENDBRANCH   7  13
BRANCH   8  31
HETATM   31  O   UNL     1     -43.134  58.869 -57.955  1.00  0.00    -0.360 OA
HETATM   32  H   UNL     1     -43.327  59.654 -57.397  1.00  0.00     0.217 HD
ENDBRANCH   8  31
BRANCH   1  33
HETATM   33  C   UNL     1     -41.459  54.088 -51.871  1.00  0.00     0.055 C 
BRANCH  33  34
HETATM   34  C   UNL     1     -40.087  53.411 -51.858  1.00  0.00     0.116 C 
BRANCH  34  35
HETATM   35  C   UNL     1     -40.092  52.097 -51.119  1.00  0.00     0.259 C 
HETATM   36  O   UNL     1     -40.359  51.987 -49.927  1.00  0.00    -0.265 OA
BRANCH  35  37
HETATM   37  O   UNL     1     -39.777  51.079 -51.960  1.00  0.00    -0.322 OA
BRANCH  37  38
HETATM   38  C   UNL     1     -39.466  51.439 -53.314  1.00  0.00     0.174 C 
HETATM   39  C   UNL     1     -39.879  50.323 -54.254  1.00  0.00     0.034 C 
ENDBRANCH  37  38
ENDBRANCH  35  37
ENDBRANCH  34  35
ENDBRANCH  33  34
ENDBRANCH   1  33
TORSDOF 11
ENDMDL
