MODEL 1
REMARK VINA RESULT:      -7.5      0.000      0.000
REMARK  9 active torsions:
REMARK  status: ('A' for Active; 'I' for Inactive)
REMARK    1  A    between atoms: C_2  and  C_3 
REMARK    2  A    between atoms: C_6  and  C_7 
REMARK    3  A    between atoms: C_7  and  C_8 
REMARK    4  A    between atoms: C_8  and  N_9 
REMARK    5  A    between atoms: N_9  and  C_11 
REMARK    6  A    between atoms: N_9  and  C_25 
REMARK    7  A    between atoms: C_11  and  C_12 
REMARK       I    between atoms: C_12  and  N_13 
REMARK    8  A    between atoms: N_13  and  C_14 
REMARK    9  A    between atoms: C_17  and  N_18 
REMARK       I    between atoms: N_18  and  C_19 
ROOT
HETATM    1  N   UNL     1     -40.335  52.244 -50.768  1.00  0.00    -0.056 N 
HETATM    2  H   UNL     1     -41.289  52.483 -51.085  1.00  0.00     0.280 HD
ENDROOT
BRANCH   1   3
HETATM    3  C   UNL     1     -39.866  53.472 -49.943  1.00  0.00     0.319 C 
BRANCH   3   4
HETATM    4  C   UNL     1     -41.051  54.150 -49.274  1.00  0.00     0.187 C 
HETATM    5  O   UNL     1     -41.217  53.914 -48.070  1.00  0.00    -0.290 OA
BRANCH   4   6
HETATM    6  C   UNL     1     -42.020  54.917 -50.047  1.00  0.00     0.039 A 
HETATM    7  C   UNL     1     -41.931  56.197 -50.704  1.00  0.00     0.006 A 
HETATM    8  C   UNL     1     -43.128  56.385 -51.407  1.00  0.00     0.049 A 
HETATM    9  C   UNL     1     -40.959  57.221 -50.791  1.00  0.00     0.015 A 
HETATM   10  C   UNL     1     -43.388  57.500 -52.230  1.00  0.00    -0.031 A 
HETATM   11  N   UNL     1     -43.941  55.313 -51.121  1.00  0.00    -0.364 N 
HETATM   12  C   UNL     1     -42.381  58.475 -52.299  1.00  0.00     0.009 A 
HETATM   13  C   UNL     1     -41.193  58.345 -51.590  1.00  0.00     0.002 A 
HETATM   14  C   UNL     1     -43.289  54.430 -50.312  1.00  0.00     0.104 A 
HETATM   15  H   UNL     1     -44.884  55.201 -51.471  1.00  0.00     0.165 HD
BRANCH  10  16
HETATM   16  C   UNL     1     -44.674  57.695 -52.996  1.00  0.00     0.036 C 
HETATM   17  C   UNL     1     -44.540  58.780 -54.053  1.00  0.00     0.010 C 
ENDBRANCH  10  16
ENDBRANCH   4   6
ENDBRANCH   3   4
ENDBRANCH   1   3
BRANCH   1  18
HETATM   18  C   UNL     1     -39.503  52.083 -52.062  1.00  0.00     0.338 C 
BRANCH  18  19
HETATM   19  C   UNL     1     -40.228  52.566 -53.327  1.00  0.00     0.248 C 
HETATM   20  N   UNL     1     -41.078  53.633 -53.113  1.00  0.00    -0.326 N 
HETATM   21  H   UNL     1     -41.362  53.852 -52.164  1.00  0.00     0.169 HD
HETATM   22  O   UNL     1     -39.976  52.041 -54.410  1.00  0.00    -0.271 OA
BRANCH  20  23
HETATM   23  C   UNL     1     -41.685  54.435 -54.107  1.00  0.00     0.034 A 
HETATM   24  C   UNL     1     -41.080  55.659 -54.405  1.00  0.00     0.032 A 
HETATM   25  C   UNL     1     -41.615  56.505 -55.386  1.00  0.00     0.032 A 
HETATM   26  C   UNL     1     -42.756  56.136 -56.096  1.00  0.00     0.034 A 
HETATM   27  C   UNL     1     -43.349  54.903 -55.811  1.00  0.00     0.032 A 
HETATM   28  C   UNL     1     -42.821  54.059 -54.825  1.00  0.00     0.032 A 
BRANCH  26  29
HETATM   29  N   UNL     1     -43.365  56.933 -57.086  1.00  0.00    -0.328 N 
HETATM   30  C   UNL     1     -43.503  56.643 -58.432  1.00  0.00     0.218 C 
HETATM   31  C   UNL     1     -44.182  57.749 -59.201  1.00  0.00     0.117 C 
HETATM   32  O   UNL     1     -43.159  55.609 -58.995  1.00  0.00    -0.274 OA
HETATM   33  H   UNL     1     -43.740  57.820 -56.775  1.00  0.00     0.169 HD
ENDBRANCH  26  29
ENDBRANCH  20  23
ENDBRANCH  18  19
ENDBRANCH   1  18
BRANCH   1  34
HETATM   34  C   UNL     1     -40.387  50.975 -49.951  1.00  0.00     0.231 C 
HETATM   35  C   UNL     1     -39.723  49.841 -50.711  1.00  0.00     0.034 C 
ENDBRANCH   1  34
TORSDOF 9
ENDMDL
MODEL 2
REMARK VINA RESULT:      -7.4      2.360      5.382
REMARK  9 active torsions:
REMARK  status: ('A' for Active; 'I' for Inactive)
REMARK    1  A    between atoms: C_2  and  C_3 
REMARK    2  A    between atoms: C_6  and  C_7 
REMARK    3  A    between atoms: C_7  and  C_8 
REMARK    4  A    between atoms: C_8  and  N_9 
REMARK    5  A    between atoms: N_9  and  C_11 
REMARK    6  A    between atoms: N_9  and  C_25 
REMARK    7  A    between atoms: C_11  and  C_12 
REMARK       I    between atoms: C_12  and  N_13 
REMARK    8  A    between atoms: N_13  and  C_14 
REMARK    9  A    between atoms: C_17  and  N_18 
REMARK       I    between atoms: N_18  and  C_19 
ROOT
HETATM    1  N   UNL     1     -40.724  58.452 -51.939  1.00  0.00    -0.056 N 
HETATM    2  H   UNL     1     -40.787  57.712 -52.657  1.00  0.00     0.280 HD
ENDROOT
BRANCH   1   3
HETATM    3  C   UNL     1     -41.083  57.749 -50.603  1.00  0.00     0.319 C 
BRANCH   3   4
HETATM    4  C   UNL     1     -41.930  56.513 -50.860  1.00  0.00     0.187 C 
HETATM    5  O   UNL     1     -43.141  56.611 -50.620  1.00  0.00    -0.290 OA
BRANCH   4   6
HETATM    6  C   UNL     1     -41.321  55.241 -51.231  1.00  0.00     0.039 A 
HETATM    7  C   UNL     1     -41.451  54.417 -52.405  1.00  0.00     0.006 A 
HETATM    8  C   UNL     1     -40.531  53.368 -52.278  1.00  0.00     0.049 A 
HETATM    9  C   UNL     1     -42.244  54.447 -53.576  1.00  0.00     0.015 A 
HETATM   10  C   UNL     1     -40.319  52.386 -53.268  1.00  0.00    -0.031 A 
HETATM   11  N   UNL     1     -39.932  53.498 -51.046  1.00  0.00    -0.364 N 
HETATM   12  C   UNL     1     -41.116  52.476 -54.419  1.00  0.00     0.009 A 
HETATM   13  C   UNL     1     -42.064  53.479 -54.570  1.00  0.00     0.002 A 
HETATM   14  C   UNL     1     -40.395  54.614 -50.414  1.00  0.00     0.104 A 
HETATM   15  H   UNL     1     -39.244  52.856 -50.674  1.00  0.00     0.165 HD
BRANCH  10  16
HETATM   16  C   UNL     1     -39.319  51.263 -53.134  1.00  0.00     0.036 C 
HETATM   17  C   UNL     1     -39.622  50.123 -54.093  1.00  0.00     0.010 C 
ENDBRANCH  10  16
ENDBRANCH   4   6
ENDBRANCH   3   4
ENDBRANCH   1   3
BRANCH   1  18
HETATM   18  C   UNL     1     -41.798  59.494 -52.333  1.00  0.00     0.338 C 
BRANCH  18  19
HETATM   19  C   UNL     1     -42.795  58.986 -53.385  1.00  0.00     0.248 C 
HETATM   20  N   UNL     1     -42.243  58.800 -54.637  1.00  0.00    -0.326 N 
HETATM   21  H   UNL     1     -41.347  59.228 -54.847  1.00  0.00     0.169 HD
HETATM   22  O   UNL     1     -43.951  58.731 -53.053  1.00  0.00    -0.271 OA
BRANCH  20  23
HETATM   23  C   UNL     1     -42.841  58.124 -55.725  1.00  0.00     0.034 A 
HETATM   24  C   UNL     1     -42.322  56.873 -56.070  1.00  0.00     0.032 A 
HETATM   25  C   UNL     1     -42.868  56.136 -57.130  1.00  0.00     0.032 A 
HETATM   26  C   UNL     1     -43.951  56.631 -57.855  1.00  0.00     0.034 A 
HETATM   27  C   UNL     1     -44.481  57.874 -57.497  1.00  0.00     0.032 A 
HETATM   28  C   UNL     1     -43.932  58.616 -56.443  1.00  0.00     0.032 A 
BRANCH  26  29
HETATM   29  N   UNL     1     -44.548  55.962 -58.942  1.00  0.00    -0.328 N 
HETATM   30  C   UNL     1     -44.126  55.954 -60.259  1.00  0.00     0.218 C 
HETATM   31  C   UNL     1     -45.035  55.153 -61.159  1.00  0.00     0.117 C 
HETATM   32  O   UNL     1     -43.119  56.492 -60.707  1.00  0.00    -0.274 OA
HETATM   33  H   UNL     1     -45.385  55.431 -58.732  1.00  0.00     0.169 HD
ENDBRANCH  26  29
ENDBRANCH  20  23
ENDBRANCH  18  19
ENDBRANCH   1  18
BRANCH   1  34
HETATM   34  C   UNL     1     -39.329  59.029 -51.942  1.00  0.00     0.231 C 
HETATM   35  C   UNL     1     -38.960  59.505 -50.548  1.00  0.00     0.034 C 
ENDBRANCH   1  34
TORSDOF 9
ENDMDL
MODEL 3
REMARK VINA RESULT:      -7.1      2.363      6.510
REMARK  9 active torsions:
REMARK  status: ('A' for Active; 'I' for Inactive)
REMARK    1  A    between atoms: C_2  and  C_3 
REMARK    2  A    between atoms: C_6  and  C_7 
REMARK    3  A    between atoms: C_7  and  C_8 
REMARK    4  A    between atoms: C_8  and  N_9 
REMARK    5  A    between atoms: N_9  and  C_11 
REMARK    6  A    between atoms: N_9  and  C_25 
REMARK    7  A    between atoms: C_11  and  C_12 
REMARK       I    between atoms: C_12  and  N_13 
REMARK    8  A    between atoms: N_13  and  C_14 
REMARK    9  A    between atoms: C_17  and  N_18 
REMARK       I    between atoms: N_18  and  C_19 
ROOT
HETATM    1  N   UNL     1     -43.179  59.681 -54.211  1.00  0.00    -0.056 N 
HETATM    2  H   UNL     1     -42.334  59.197 -53.866  1.00  0.00     0.280 HD
ENDROOT
BRANCH   1   3
HETATM    3  C   UNL     1     -44.254  59.443 -53.117  1.00  0.00     0.319 C 
BRANCH   3   4
HETATM    4  C   UNL     1     -43.627  59.493 -51.733  1.00  0.00     0.187 C 
HETATM    5  O   UNL     1     -43.849  60.507 -51.060  1.00  0.00    -0.290 OA
BRANCH   4   6
HETATM    6  C   UNL     1     -42.696  58.463 -51.287  1.00  0.00     0.039 A 
HETATM    7  C   UNL     1     -42.864  57.052 -51.045  1.00  0.00     0.006 A 
HETATM    8  C   UNL     1     -41.597  56.529 -50.753  1.00  0.00     0.049 A 
HETATM    9  C   UNL     1     -43.953  56.151 -51.048  1.00  0.00     0.015 A 
HETATM   10  C   UNL     1     -41.348  55.161 -50.524  1.00  0.00    -0.031 A 
HETATM   11  N   UNL     1     -40.715  57.584 -50.733  1.00  0.00    -0.364 N 
HETATM   12  C   UNL     1     -42.461  54.306 -50.561  1.00  0.00     0.009 A 
HETATM   13  C   UNL     1     -43.739  54.789 -50.812  1.00  0.00     0.002 A 
HETATM   14  C   UNL     1     -41.360  58.743 -51.052  1.00  0.00     0.104 A 
HETATM   15  H   UNL     1     -39.730  57.502 -50.518  1.00  0.00     0.165 HD
BRANCH  10  16
HETATM   16  C   UNL     1     -39.980  54.597 -50.221  1.00  0.00     0.036 C 
HETATM   17  C   UNL     1     -39.915  53.997 -48.826  1.00  0.00     0.010 C 
ENDBRANCH  10  16
ENDBRANCH   4   6
ENDBRANCH   3   4
ENDBRANCH   1   3
BRANCH   1  18
HETATM   18  C   UNL     1     -43.551  58.964 -55.531  1.00  0.00     0.338 C 
BRANCH  18  19
HETATM   19  C   UNL     1     -42.738  57.687 -55.790  1.00  0.00     0.248 C 
HETATM   20  N   UNL     1     -42.370  57.014 -54.641  1.00  0.00    -0.326 N 
HETATM   21  H   UNL     1     -42.418  57.499 -53.751  1.00  0.00     0.169 HD
HETATM   22  O   UNL     1     -42.527  57.325 -56.946  1.00  0.00    -0.271 OA
BRANCH  20  23
HETATM   23  C   UNL     1     -41.838  55.706 -54.570  1.00  0.00     0.034 A 
HETATM   24  C   UNL     1     -42.731  54.660 -54.323  1.00  0.00     0.032 A 
HETATM   25  C   UNL     1     -42.282  53.334 -54.248  1.00  0.00     0.032 A 
HETATM   26  C   UNL     1     -40.934  53.029 -54.432  1.00  0.00     0.034 A 
HETATM   27  C   UNL     1     -40.045  54.075 -54.698  1.00  0.00     0.032 A 
HETATM   28  C   UNL     1     -40.490  55.402 -54.765  1.00  0.00     0.032 A 
BRANCH  26  29
HETATM   29  N   UNL     1     -40.399  51.728 -54.359  1.00  0.00    -0.328 N 
HETATM   30  C   UNL     1     -39.798  51.126 -53.269  1.00  0.00     0.218 C 
HETATM   31  C   UNL     1     -39.311  49.730 -53.567  1.00  0.00     0.117 C 
HETATM   32  O   UNL     1     -39.669  51.607 -52.148  1.00  0.00    -0.274 OA
HETATM   33  H   UNL     1     -40.459  51.174 -55.205  1.00  0.00     0.169 HD
ENDBRANCH  26  29
ENDBRANCH  20  23
ENDBRANCH  18  19
ENDBRANCH   1  18
BRANCH   1  34
HETATM   34  C   UNL     1     -42.865  61.144 -54.415  1.00  0.00     0.231 C 
HETATM   35  C   UNL     1     -43.633  61.679 -55.610  1.00  0.00     0.034 C 
ENDBRANCH   1  34
TORSDOF 9
ENDMDL
MODEL 4
REMARK VINA RESULT:      -7.0      2.238      6.591
REMARK  9 active torsions:
REMARK  status: ('A' for Active; 'I' for Inactive)
REMARK    1  A    between atoms: C_2  and  C_3 
REMARK    2  A    between atoms: C_6  and  C_7 
REMARK    3  A    between atoms: C_7  and  C_8 
REMARK    4  A    between atoms: C_8  and  N_9 
REMARK    5  A    between atoms: N_9  and  C_11 
REMARK    6  A    between atoms: N_9  and  C_25 
REMARK    7  A    between atoms: C_11  and  C_12 
REMARK       I    between atoms: C_12  and  N_13 
REMARK    8  A    between atoms: N_13  and  C_14 
REMARK    9  A    between atoms: C_17  and  N_18 
REMARK       I    between atoms: N_18  and  C_19 
ROOT
HETATM    1  N   UNL     1     -42.667  58.955 -56.360  1.00  0.00    -0.056 N 
HETATM    2  H   UNL     1     -41.953  58.494 -55.773  1.00  0.00     0.280 HD
ENDROOT
BRANCH   1   3
HETATM    3  C   UNL     1     -43.633  59.638 -55.356  1.00  0.00     0.319 C 
BRANCH   3   4
HETATM    4  C   UNL     1     -42.885  60.068 -54.104  1.00  0.00     0.187 C 
HETATM    5  O   UNL     1     -42.724  61.285 -53.945  1.00  0.00    -0.290 OA
BRANCH   4   6
HETATM    6  C   UNL     1     -42.268  59.088 -53.218  1.00  0.00     0.039 A 
HETATM    7  C   UNL     1     -42.830  58.077 -52.359  1.00  0.00     0.006 A 
HETATM    8  C   UNL     1     -41.762  57.336 -51.837  1.00  0.00     0.049 A 
HETATM    9  C   UNL     1     -44.135  57.697 -51.968  1.00  0.00     0.015 A 
HETATM   10  C   UNL     1     -41.920  56.213 -51.000  1.00  0.00    -0.031 A 
HETATM   11  N   UNL     1     -40.601  57.922 -52.287  1.00  0.00    -0.364 N 
HETATM   12  C   UNL     1     -43.237  55.865 -50.662  1.00  0.00     0.009 A 
HETATM   13  C   UNL     1     -44.324  56.594 -51.129  1.00  0.00     0.002 A 
HETATM   14  C   UNL     1     -40.892  58.967 -53.114  1.00  0.00     0.104 A 
HETATM   15  H   UNL     1     -39.670  57.612 -52.040  1.00  0.00     0.165 HD
BRANCH  10  16
HETATM   16  C   UNL     1     -40.768  55.409 -50.449  1.00  0.00     0.036 C 
HETATM   17  C   UNL     1     -41.050  54.916 -49.038  1.00  0.00     0.010 C 
ENDBRANCH  10  16
ENDBRANCH   4   6
ENDBRANCH   3   4
ENDBRANCH   1   3
BRANCH   1  18
HETATM   18  C   UNL     1     -43.369  57.809 -57.126  1.00  0.00     0.338 C 
BRANCH  18  19
HETATM   19  C   UNL     1     -42.825  56.414 -56.784  1.00  0.00     0.248 C 
HETATM   20  N   UNL     1     -42.058  56.378 -55.635  1.00  0.00    -0.326 N 
HETATM   21  H   UNL     1     -41.699  57.248 -55.257  1.00  0.00     0.169 HD
HETATM   22  O   UNL     1     -43.139  55.451 -57.481  1.00  0.00    -0.271 OA
BRANCH  20  23
HETATM   23  C   UNL     1     -41.633  55.218 -54.947  1.00  0.00     0.034 A 
HETATM   24  C   UNL     1     -40.300  54.828 -55.105  1.00  0.00     0.032 A 
HETATM   25  C   UNL     1     -39.800  53.695 -54.447  1.00  0.00     0.032 A 
HETATM   26  C   UNL     1     -40.620  52.941 -53.609  1.00  0.00     0.034 A 
HETATM   27  C   UNL     1     -41.948  53.344 -53.437  1.00  0.00     0.032 A 
HETATM   28  C   UNL     1     -42.452  54.471 -54.100  1.00  0.00     0.032 A 
BRANCH  26  29
HETATM   29  N   UNL     1     -40.202  51.783 -52.923  1.00  0.00    -0.328 N 
HETATM   30  C   UNL     1     -39.944  50.535 -53.461  1.00  0.00     0.218 C 
HETATM   31  C   UNL     1     -39.546  49.521 -52.417  1.00  0.00     0.117 C 
HETATM   32  O   UNL     1     -39.987  50.227 -54.647  1.00  0.00    -0.274 OA
HETATM   33  H   UNL     1     -40.081  51.878 -51.923  1.00  0.00     0.169 HD
ENDBRANCH  26  29
ENDBRANCH  20  23
ENDBRANCH  18  19
ENDBRANCH   1  18
BRANCH   1  34
HETATM   34  C   UNL     1     -41.990  59.940 -57.284  1.00  0.00     0.231 C 
HETATM   35  C   UNL     1     -42.061  59.441 -58.716  1.00  0.00     0.034 C 
ENDBRANCH   1  34
TORSDOF 9
ENDMDL
MODEL 5
REMARK VINA RESULT:      -7.0      2.680      7.361
REMARK  9 active torsions:
REMARK  status: ('A' for Active; 'I' for Inactive)
REMARK    1  A    between atoms: C_2  and  C_3 
REMARK    2  A    between atoms: C_6  and  C_7 
REMARK    3  A    between atoms: C_7  and  C_8 
REMARK    4  A    between atoms: C_8  and  N_9 
REMARK    5  A    between atoms: N_9  and  C_11 
REMARK    6  A    between atoms: N_9  and  C_25 
REMARK    7  A    between atoms: C_11  and  C_12 
REMARK       I    between atoms: C_12  and  N_13 
REMARK    8  A    between atoms: N_13  and  C_14 
REMARK    9  A    between atoms: C_17  and  N_18 
REMARK       I    between atoms: N_18  and  C_19 
ROOT
HETATM    1  N   UNL     1     -43.350  59.813 -53.507  1.00  0.00    -0.056 N 
HETATM    2  H   UNL     1     -43.533  58.814 -53.695  1.00  0.00     0.280 HD
ENDROOT
BRANCH   1   3
HETATM    3  C   UNL     1     -43.428  60.505 -54.894  1.00  0.00     0.319 C 
BRANCH   3   4
HETATM    4  C   UNL     1     -42.571  59.766 -55.909  1.00  0.00     0.187 C 
HETATM    5  O   UNL     1     -41.485  60.284 -56.199  1.00  0.00    -0.290 OA
BRANCH   4   6
HETATM    6  C   UNL     1     -43.072  58.587 -56.606  1.00  0.00     0.039 A 
HETATM    7  C   UNL     1     -42.737  58.008 -57.883  1.00  0.00     0.006 A 
HETATM    8  C   UNL     1     -43.442  56.803 -57.988  1.00  0.00     0.049 A 
HETATM    9  C   UNL     1     -41.901  58.368 -58.965  1.00  0.00     0.015 A 
HETATM   10  C   UNL     1     -43.320  55.915 -59.076  1.00  0.00    -0.031 A 
HETATM   11  N   UNL     1     -44.235  56.696 -56.869  1.00  0.00    -0.364 N 
HETATM   12  C   UNL     1     -42.460  56.310 -60.113  1.00  0.00     0.009 A 
HETATM   13  C   UNL     1     -41.768  57.514 -60.065  1.00  0.00     0.002 A 
HETATM   14  C   UNL     1     -44.021  57.755 -56.037  1.00  0.00     0.104 A 
HETATM   15  H   UNL     1     -44.878  55.933 -56.695  1.00  0.00     0.165 HD
BRANCH  10  16
HETATM   16  C   UNL     1     -44.072  54.610 -59.183  1.00  0.00     0.036 C 
HETATM   17  C   UNL     1     -45.064  54.625 -60.335  1.00  0.00     0.010 C 
ENDBRANCH  10  16
ENDBRANCH   4   6
ENDBRANCH   3   4
ENDBRANCH   1   3
BRANCH   1  18
HETATM   18  C   UNL     1     -41.914  59.863 -52.933  1.00  0.00     0.338 C 
BRANCH  18  19
HETATM   19  C   UNL     1     -41.130  58.554 -53.114  1.00  0.00     0.248 C 
HETATM   20  N   UNL     1     -41.910  57.417 -53.027  1.00  0.00    -0.326 N 
HETATM   21  H   UNL     1     -42.834  57.486 -52.615  1.00  0.00     0.169 HD
HETATM   22  O   UNL     1     -39.929  58.597 -53.373  1.00  0.00    -0.271 OA
BRANCH  20  23
HETATM   23  C   UNL     1     -41.522  56.106 -53.387  1.00  0.00     0.034 A 
HETATM   24  C   UNL     1     -41.727  55.094 -52.445  1.00  0.00     0.032 A 
HETATM   25  C   UNL     1     -41.378  53.766 -52.731  1.00  0.00     0.032 A 
HETATM   26  C   UNL     1     -40.833  53.425 -53.967  1.00  0.00     0.034 A 
HETATM   27  C   UNL     1     -40.647  54.436 -54.915  1.00  0.00     0.032 A 
HETATM   28  C   UNL     1     -40.986  55.765 -54.629  1.00  0.00     0.032 A 
BRANCH  26  29
HETATM   29  N   UNL     1     -40.443  52.120 -54.328  1.00  0.00    -0.328 N 
HETATM   30  C   UNL     1     -39.683  51.234 -53.586  1.00  0.00     0.218 C 
HETATM   31  C   UNL     1     -39.433  49.932 -54.307  1.00  0.00     0.117 C 
HETATM   32  O   UNL     1     -39.253  51.412 -52.452  1.00  0.00    -0.274 OA
HETATM   33  H   UNL     1     -40.752  51.799 -55.237  1.00  0.00     0.169 HD
ENDBRANCH  26  29
ENDBRANCH  20  23
ENDBRANCH  18  19
ENDBRANCH   1  18
BRANCH   1  34
HETATM   34  C   UNL     1     -44.381  60.331 -52.533  1.00  0.00     0.231 C 
HETATM   35  C   UNL     1     -43.999  59.942 -51.116  1.00  0.00     0.034 C 
ENDBRANCH   1  34
TORSDOF 9
ENDMDL
MODEL 6
REMARK VINA RESULT:      -7.0      2.133      6.667
REMARK  9 active torsions:
REMARK  status: ('A' for Active; 'I' for Inactive)
REMARK    1  A    between atoms: C_2  and  C_3 
REMARK    2  A    between atoms: C_6  and  C_7 
REMARK    3  A    between atoms: C_7  and  C_8 
REMARK    4  A    between atoms: C_8  and  N_9 
REMARK    5  A    between atoms: N_9  and  C_11 
REMARK    6  A    between atoms: N_9  and  C_25 
REMARK    7  A    between atoms: C_11  and  C_12 
REMARK       I    between atoms: C_12  and  N_13 
REMARK    8  A    between atoms: N_13  and  C_14 
REMARK    9  A    between atoms: C_17  and  N_18 
REMARK       I    between atoms: N_18  and  C_19 
ROOT
HETATM    1  N   UNL     1     -42.947  58.612 -57.171  1.00  0.00    -0.056 N 
HETATM    2  H   UNL     1     -42.611  58.215 -56.278  1.00  0.00     0.280 HD
ENDROOT
BRANCH   1   3
HETATM    3  C   UNL     1     -44.079  59.595 -56.773  1.00  0.00     0.319 C 
BRANCH   3   4
HETATM    4  C   UNL     1     -44.290  59.585 -55.267  1.00  0.00     0.187 C 
HETATM    5  O   UNL     1     -44.500  60.680 -54.729  1.00  0.00    -0.290 OA
BRANCH   4   6
HETATM    6  C   UNL     1     -44.108  58.367 -54.486  1.00  0.00     0.039 A 
HETATM    7  C   UNL     1     -43.015  57.899 -53.672  1.00  0.00     0.006 A 
HETATM    8  C   UNL     1     -43.438  56.718 -53.051  1.00  0.00     0.049 A 
HETATM    9  C   UNL     1     -41.707  58.352 -53.383  1.00  0.00     0.015 A 
HETATM   10  C   UNL     1     -42.660  55.998 -52.121  1.00  0.00    -0.031 A 
HETATM   11  N   UNL     1     -44.696  56.433 -53.530  1.00  0.00    -0.364 N 
HETATM   12  C   UNL     1     -41.378  56.503 -51.853  1.00  0.00     0.009 A 
HETATM   13  C   UNL     1     -40.906  57.653 -52.474  1.00  0.00     0.002 A 
HETATM   14  C   UNL     1     -45.106  57.413 -54.386  1.00  0.00     0.104 A 
HETATM   15  H   UNL     1     -45.234  55.615 -53.273  1.00  0.00     0.165 HD
BRANCH  10  16
HETATM   16  C   UNL     1     -43.123  54.731 -51.443  1.00  0.00     0.036 C 
HETATM   17  C   UNL     1     -41.994  54.057 -50.679  1.00  0.00     0.010 C 
ENDBRANCH  10  16
ENDBRANCH   4   6
ENDBRANCH   3   4
ENDBRANCH   1   3
BRANCH   1  18
HETATM   18  C   UNL     1     -43.501  57.409 -57.970  1.00  0.00     0.338 C 
BRANCH  18  19
HETATM   19  C   UNL     1     -42.972  56.050 -57.486  1.00  0.00     0.248 C 
HETATM   20  N   UNL     1     -42.102  56.136 -56.417  1.00  0.00    -0.326 N 
HETATM   21  H   UNL     1     -41.680  57.032 -56.198  1.00  0.00     0.169 HD
HETATM   22  O   UNL     1     -43.382  55.017 -58.012  1.00  0.00    -0.271 OA
BRANCH  20  23
HETATM   23  C   UNL     1     -41.651  55.062 -55.615  1.00  0.00     0.034 A 
HETATM   24  C   UNL     1     -42.574  54.059 -55.304  1.00  0.00     0.032 A 
HETATM   25  C   UNL     1     -42.201  52.957 -54.522  1.00  0.00     0.032 A 
HETATM   26  C   UNL     1     -40.896  52.831 -54.049  1.00  0.00     0.034 A 
HETATM   27  C   UNL     1     -39.969  53.826 -54.377  1.00  0.00     0.032 A 
HETATM   28  C   UNL     1     -40.342  54.932 -55.152  1.00  0.00     0.032 A 
BRANCH  26  29
HETATM   29  N   UNL     1     -40.443  51.765 -53.247  1.00  0.00    -0.328 N 
HETATM   30  C   UNL     1     -39.966  50.538 -53.671  1.00  0.00     0.218 C 
HETATM   31  C   UNL     1     -39.602  49.625 -52.526  1.00  0.00     0.117 C 
HETATM   32  O   UNL     1     -39.805  50.178 -54.832  1.00  0.00    -0.274 OA
HETATM   33  H   UNL     1     -40.477  51.915 -52.246  1.00  0.00     0.169 HD
ENDBRANCH  26  29
ENDBRANCH  20  23
ENDBRANCH  18  19
ENDBRANCH   1  18
BRANCH   1  34
HETATM   34  C   UNL     1     -41.798  59.294 -57.874  1.00  0.00     0.231 C 
HETATM   35  C   UNL     1     -42.168  59.580 -59.318  1.00  0.00     0.034 C 
ENDBRANCH   1  34
TORSDOF 9
ENDMDL
MODEL 7
REMARK VINA RESULT:      -6.5      2.092      2.815
REMARK  9 active torsions:
REMARK  status: ('A' for Active; 'I' for Inactive)
REMARK    1  A    between atoms: C_2  and  C_3 
REMARK    2  A    between atoms: C_6  and  C_7 
REMARK    3  A    between atoms: C_7  and  C_8 
REMARK    4  A    between atoms: C_8  and  N_9 
REMARK    5  A    between atoms: N_9  and  C_11 
REMARK    6  A    between atoms: N_9  and  C_25 
REMARK    7  A    between atoms: C_11  and  C_12 
REMARK       I    between atoms: C_12  and  N_13 
REMARK    8  A    between atoms: N_13  and  C_14 
REMARK    9  A    between atoms: C_17  and  N_18 
REMARK       I    between atoms: N_18  and  C_19 
ROOT
HETATM    1  N   UNL     1     -40.692  52.941 -53.687  1.00  0.00    -0.056 N 
HETATM    2  H   UNL     1     -41.585  53.398 -53.442  1.00  0.00     0.280 HD
ENDROOT
BRANCH   1   3
HETATM    3  C   UNL     1     -39.902  52.861 -52.354  1.00  0.00     0.319 C 
BRANCH   3   4
HETATM    4  C   UNL     1     -40.812  53.166 -51.175  1.00  0.00     0.187 C 
HETATM    5  O   UNL     1     -40.703  52.432 -50.185  1.00  0.00    -0.290 OA
BRANCH   4   6
HETATM    6  C   UNL     1     -41.857  54.180 -51.269  1.00  0.00     0.039 A 
HETATM    7  C   UNL     1     -41.831  55.610 -51.092  1.00  0.00     0.006 A 
HETATM    8  C   UNL     1     -43.101  56.091 -51.432  1.00  0.00     0.049 A 
HETATM    9  C   UNL     1     -40.863  56.558 -50.689  1.00  0.00     0.015 A 
HETATM   10  C   UNL     1     -43.443  57.459 -51.446  1.00  0.00    -0.031 A 
HETATM   11  N   UNL     1     -43.888  55.000 -51.717  1.00  0.00    -0.364 N 
HETATM   12  C   UNL     1     -42.439  58.360 -51.059  1.00  0.00     0.009 A 
HETATM   13  C   UNL     1     -41.176  57.922 -50.681  1.00  0.00     0.002 A 
HETATM   14  C   UNL     1     -43.155  53.854 -51.624  1.00  0.00     0.104 A 
HETATM   15  H   UNL     1     -44.869  55.051 -51.964  1.00  0.00     0.165 HD
BRANCH  10  16
HETATM   16  C   UNL     1     -44.810  57.978 -51.823  1.00  0.00     0.036 C 
HETATM   17  C   UNL     1     -44.753  59.422 -52.297  1.00  0.00     0.010 C 
ENDBRANCH  10  16
ENDBRANCH   4   6
ENDBRANCH   3   4
ENDBRANCH   1   3
BRANCH   1  18
HETATM   18  C   UNL     1     -40.006  53.896 -54.692  1.00  0.00     0.338 C 
BRANCH  18  19
HETATM   19  C   UNL     1     -40.775  55.206 -54.923  1.00  0.00     0.248 C 
HETATM   20  N   UNL     1     -41.664  55.154 -55.978  1.00  0.00    -0.326 N 
HETATM   21  H   UNL     1     -41.577  54.407 -56.658  1.00  0.00     0.169 HD
HETATM   22  O   UNL     1     -40.607  56.152 -54.157  1.00  0.00    -0.271 OA
BRANCH  20  23
HETATM   23  C   UNL     1     -42.669  56.104 -56.275  1.00  0.00     0.034 A 
HETATM   24  C   UNL     1     -43.510  56.500 -55.232  1.00  0.00     0.032 A 
HETATM   25  C   UNL     1     -44.523  57.445 -55.444  1.00  0.00     0.032 A 
HETATM   26  C   UNL     1     -44.704  58.022 -56.700  1.00  0.00     0.034 A 
HETATM   27  C   UNL     1     -43.849  57.639 -57.739  1.00  0.00     0.032 A 
HETATM   28  C   UNL     1     -42.841  56.688 -57.530  1.00  0.00     0.032 A 
BRANCH  26  29
HETATM   29  N   UNL     1     -45.705  58.967 -57.002  1.00  0.00    -0.328 N 
HETATM   30  C   UNL     1     -46.874  58.756 -57.710  1.00  0.00     0.218 C 
HETATM   31  C   UNL     1     -47.695  60.012 -57.868  1.00  0.00     0.117 C 
HETATM   32  O   UNL     1     -47.272  57.688 -58.163  1.00  0.00    -0.274 OA
HETATM   33  H   UNL     1     -45.545  59.907 -56.663  1.00  0.00     0.169 HD
ENDBRANCH  26  29
ENDBRANCH  20  23
ENDBRANCH  18  19
ENDBRANCH   1  18
BRANCH   1  34
HETATM   34  C   UNL     1     -40.977  51.582 -54.282  1.00  0.00     0.231 C 
HETATM   35  C   UNL     1     -39.840  50.627 -53.966  1.00  0.00     0.034 C 
ENDBRANCH   1  34
TORSDOF 9
ENDMDL
MODEL 8
REMARK VINA RESULT:      -6.4      2.210      7.164
REMARK  9 active torsions:
REMARK  status: ('A' for Active; 'I' for Inactive)
REMARK    1  A    between atoms: C_2  and  C_3 
REMARK    2  A    between atoms: C_6  and  C_7 
REMARK    3  A    between atoms: C_7  and  C_8 
REMARK    4  A    between atoms: C_8  and  N_9 
REMARK    5  A    between atoms: N_9  and  C_11 
REMARK    6  A    between atoms: N_9  and  C_25 
REMARK    7  A    between atoms: C_11  and  C_12 
REMARK       I    between atoms: C_12  and  N_13 
REMARK    8  A    between atoms: N_13  and  C_14 
REMARK    9  A    between atoms: C_17  and  N_18 
REMARK       I    between atoms: N_18  and  C_19 
ROOT
HETATM    1  N   UNL     1     -44.419  58.755 -57.860  1.00  0.00    -0.056 N 
HETATM    2  H   UNL     1     -43.586  58.705 -57.251  1.00  0.00     0.280 HD
ENDROOT
BRANCH   1   3
HETATM    3  C   UNL     1     -45.605  59.037 -56.900  1.00  0.00     0.319 C 
BRANCH   3   4
HETATM    4  C   UNL     1     -45.225  60.099 -55.880  1.00  0.00     0.187 C 
HETATM    5  O   UNL     1     -45.919  61.124 -55.863  1.00  0.00    -0.290 OA
BRANCH   4   6
HETATM    6  C   UNL     1     -44.018  59.973 -55.071  1.00  0.00     0.039 A 
HETATM    7  C   UNL     1     -43.649  59.049 -54.029  1.00  0.00     0.006 A 
HETATM    8  C   UNL     1     -42.317  59.317 -53.692  1.00  0.00     0.049 A 
HETATM    9  C   UNL     1     -44.298  58.002 -53.334  1.00  0.00     0.015 A 
HETATM   10  C   UNL     1     -41.581  58.569 -52.749  1.00  0.00    -0.031 A 
HETATM   11  N   UNL     1     -41.920  60.407 -54.431  1.00  0.00    -0.364 N 
HETATM   12  C   UNL     1     -42.265  57.526 -52.105  1.00  0.00     0.009 A 
HETATM   13  C   UNL     1     -43.597  57.250 -52.384  1.00  0.00     0.002 A 
HETATM   14  C   UNL     1     -42.928  60.806 -55.259  1.00  0.00     0.104 A 
HETATM   15  H   UNL     1     -41.007  60.840 -54.366  1.00  0.00     0.165 HD
BRANCH  10  16
HETATM   16  C   UNL     1     -40.140  58.851 -52.396  1.00  0.00     0.036 C 
HETATM   17  C   UNL     1     -39.983  59.218 -50.928  1.00  0.00     0.010 C 
ENDBRANCH  10  16
ENDBRANCH   4   6
ENDBRANCH   3   4
ENDBRANCH   1   3
BRANCH   1  18
HETATM   18  C   UNL     1     -44.538  57.354 -58.506  1.00  0.00     0.338 C 
BRANCH  18  19
HETATM   19  C   UNL     1     -43.613  56.303 -57.874  1.00  0.00     0.248 C 
HETATM   20  N   UNL     1     -43.210  56.610 -56.589  1.00  0.00    -0.326 N 
HETATM   21  H   UNL     1     -43.317  57.563 -56.256  1.00  0.00     0.169 HD
HETATM   22  O   UNL     1     -43.349  55.275 -58.494  1.00  0.00    -0.271 OA
BRANCH  20  23
HETATM   23  C   UNL     1     -42.569  55.738 -55.680  1.00  0.00     0.034 A 
HETATM   24  C   UNL     1     -41.234  56.006 -55.363  1.00  0.00     0.032 A 
HETATM   25  C   UNL     1     -40.532  55.193 -54.462  1.00  0.00     0.032 A 
HETATM   26  C   UNL     1     -41.157  54.106 -53.851  1.00  0.00     0.034 A 
HETATM   27  C   UNL     1     -42.497  53.851 -54.155  1.00  0.00     0.032 A 
HETATM   28  C   UNL     1     -43.198  54.658 -55.061  1.00  0.00     0.032 A 
BRANCH  26  29
HETATM   29  N   UNL     1     -40.520  53.233 -52.947  1.00  0.00    -0.328 N 
HETATM   30  C   UNL     1     -39.994  51.982 -53.215  1.00  0.00     0.218 C 
HETATM   31  C   UNL     1     -39.417  51.316 -51.991  1.00  0.00     0.117 C 
HETATM   32  O   UNL     1     -39.944  51.430 -54.309  1.00  0.00    -0.274 OA
HETATM   33  H   UNL     1     -40.446  53.559 -51.991  1.00  0.00     0.169 HD
ENDBRANCH  26  29
ENDBRANCH  20  23
ENDBRANCH  18  19
ENDBRANCH   1  18
BRANCH   1  34
HETATM   34  C   UNL     1     -44.221  59.848 -58.883  1.00  0.00     0.231 C 
HETATM   35  C   UNL     1     -42.757  60.249 -58.939  1.00  0.00     0.034 C 
ENDBRANCH   1  34
TORSDOF 9
ENDMDL
MODEL 9
REMARK VINA RESULT:      -6.4      2.586      7.141
REMARK  9 active torsions:
REMARK  status: ('A' for Active; 'I' for Inactive)
REMARK    1  A    between atoms: C_2  and  C_3 
REMARK    2  A    between atoms: C_6  and  C_7 
REMARK    3  A    between atoms: C_7  and  C_8 
REMARK    4  A    between atoms: C_8  and  N_9 
REMARK    5  A    between atoms: N_9  and  C_11 
REMARK    6  A    between atoms: N_9  and  C_25 
REMARK    7  A    between atoms: C_11  and  C_12 
REMARK       I    between atoms: C_12  and  N_13 
REMARK    8  A    between atoms: N_13  and  C_14 
REMARK    9  A    between atoms: C_17  and  N_18 
REMARK       I    between atoms: N_18  and  C_19 
ROOT
HETATM    1  N   UNL     1     -43.558  59.669 -52.073  1.00  0.00    -0.056 N 
HETATM    2  H   UNL     1     -43.972  58.726 -51.996  1.00  0.00     0.280 HD
ENDROOT
BRANCH   1   3
HETATM    3  C   UNL     1     -43.977  60.180 -53.476  1.00  0.00     0.319 C 
BRANCH   3   4
HETATM    4  C   UNL     1     -44.422  59.022 -54.355  1.00  0.00     0.187 C 
HETATM    5  O   UNL     1     -44.970  58.071 -53.783  1.00  0.00    -0.290 OA
BRANCH   4   6
HETATM    6  C   UNL     1     -44.087  58.977 -55.774  1.00  0.00     0.039 A 
HETATM    7  C   UNL     1     -43.668  57.896 -56.630  1.00  0.00     0.006 A 
HETATM    8  C   UNL     1     -43.610  58.402 -57.935  1.00  0.00     0.049 A 
HETATM    9  C   UNL     1     -43.338  56.533 -56.446  1.00  0.00     0.015 A 
HETATM   10  C   UNL     1     -43.299  57.620 -59.066  1.00  0.00    -0.031 A 
HETATM   11  N   UNL     1     -43.894  59.746 -57.864  1.00  0.00    -0.364 N 
HETATM   12  C   UNL     1     -43.002  56.268 -58.831  1.00  0.00     0.009 A 
HETATM   13  C   UNL     1     -43.013  55.735 -57.548  1.00  0.00     0.002 A 
HETATM   14  C   UNL     1     -44.182  60.099 -56.579  1.00  0.00     0.104 A 
HETATM   15  H   UNL     1     -43.893  60.373 -58.659  1.00  0.00     0.165 HD
BRANCH  10  16
HETATM   16  C   UNL     1     -43.247  58.164 -60.473  1.00  0.00     0.036 C 
HETATM   17  C   UNL     1     -41.924  58.855 -60.762  1.00  0.00     0.010 C 
ENDBRANCH  10  16
ENDBRANCH   4   6
ENDBRANCH   3   4
ENDBRANCH   1   3
BRANCH   1  18
HETATM   18  C   UNL     1     -42.029  59.451 -51.985  1.00  0.00     0.338 C 
BRANCH  18  19
HETATM   19  C   UNL     1     -41.617  57.972 -51.943  1.00  0.00     0.248 C 
HETATM   20  N   UNL     1     -42.018  57.247 -53.049  1.00  0.00    -0.326 N 
HETATM   21  H   UNL     1     -42.736  57.631 -53.654  1.00  0.00     0.169 HD
HETATM   22  O   UNL     1     -40.937  57.557 -51.007  1.00  0.00    -0.271 OA
BRANCH  20  23
HETATM   23  C   UNL     1     -41.585  55.949 -53.402  1.00  0.00     0.034 A 
HETATM   24  C   UNL     1     -42.211  54.868 -52.775  1.00  0.00     0.032 A 
HETATM   25  C   UNL     1     -41.845  53.549 -53.080  1.00  0.00     0.032 A 
HETATM   26  C   UNL     1     -40.855  53.288 -54.026  1.00  0.00     0.034 A 
HETATM   27  C   UNL     1     -40.243  54.370 -54.666  1.00  0.00     0.032 A 
HETATM   28  C   UNL     1     -40.602  55.689 -54.357  1.00  0.00     0.032 A 
BRANCH  26  29
HETATM   29  N   UNL     1     -40.419  51.995 -54.379  1.00  0.00    -0.328 N 
HETATM   30  C   UNL     1     -39.721  51.099 -53.589  1.00  0.00     0.218 C 
HETATM   31  C   UNL     1     -39.391  49.817 -54.314  1.00  0.00     0.117 C 
HETATM   32  O   UNL     1     -39.402  51.254 -52.416  1.00  0.00    -0.274 OA
HETATM   33  H   UNL     1     -40.638  51.694 -55.320  1.00  0.00     0.169 HD
ENDBRANCH  26  29
ENDBRANCH  20  23
ENDBRANCH  18  19
ENDBRANCH   1  18
BRANCH   1  34
HETATM   34  C   UNL     1     -44.084  60.535 -50.952  1.00  0.00     0.231 C 
HETATM   35  C   UNL     1     -42.929  61.169 -50.199  1.00  0.00     0.034 C 
ENDBRANCH   1  34
TORSDOF 9
ENDMDL
MODEL 10
REMARK VINA RESULT:      -6.1      3.833      7.928
REMARK  9 active torsions:
REMARK  status: ('A' for Active; 'I' for Inactive)
REMARK    1  A    between atoms: C_2  and  C_3 
REMARK    2  A    between atoms: C_6  and  C_7 
REMARK    3  A    between atoms: C_7  and  C_8 
REMARK    4  A    between atoms: C_8  and  N_9 
REMARK    5  A    between atoms: N_9  and  C_11 
REMARK    6  A    between atoms: N_9  and  C_25 
REMARK    7  A    between atoms: C_11  and  C_12 
REMARK       I    between atoms: C_12  and  N_13 
REMARK    8  A    between atoms: N_13  and  C_14 
REMARK    9  A    between atoms: C_17  and  N_18 
REMARK       I    between atoms: N_18  and  C_19 
ROOT
HETATM    1  N   UNL     1     -43.083  57.702 -56.015  1.00  0.00    -0.056 N 
HETATM    2  H   UNL     1     -44.038  57.679 -55.622  1.00  0.00     0.280 HD
ENDROOT
BRANCH   1   3
HETATM    3  C   UNL     1     -42.365  56.470 -55.403  1.00  0.00     0.319 C 
BRANCH   3   4
HETATM    4  C   UNL     1     -43.204  55.862 -54.290  1.00  0.00     0.187 C 
HETATM    5  O   UNL     1     -44.354  56.300 -54.160  1.00  0.00    -0.290 OA
BRANCH   4   6
HETATM    6  C   UNL     1     -42.628  54.918 -53.339  1.00  0.00     0.039 A 
HETATM    7  C   UNL     1     -41.679  53.846 -53.501  1.00  0.00     0.006 A 
HETATM    8  C   UNL     1     -41.390  53.354 -52.221  1.00  0.00     0.049 A 
HETATM    9  C   UNL     1     -41.020  53.238 -54.594  1.00  0.00     0.015 A 
HETATM   10  C   UNL     1     -40.447  52.337 -51.967  1.00  0.00    -0.031 A 
HETATM   11  N   UNL     1     -42.190  54.034 -51.333  1.00  0.00    -0.364 N 
HETATM   12  C   UNL     1     -39.805  51.784 -53.086  1.00  0.00     0.009 A 
HETATM   13  C   UNL     1     -40.088  52.219 -54.374  1.00  0.00     0.002 A 
HETATM   14  C   UNL     1     -42.931  54.971 -51.989  1.00  0.00     0.104 A 
HETATM   15  H   UNL     1     -42.212  53.861 -50.335  1.00  0.00     0.165 HD
BRANCH  10  16
HETATM   16  C   UNL     1     -40.128  51.816 -50.586  1.00  0.00     0.036 C 
HETATM   17  C   UNL     1     -39.849  50.321 -50.600  1.00  0.00     0.010 C 
ENDBRANCH  10  16
ENDBRANCH   4   6
ENDBRANCH   3   4
ENDBRANCH   1   3
BRANCH   1  18
HETATM   18  C   UNL     1     -42.464  59.025 -55.506  1.00  0.00     0.338 C 
BRANCH  18  19
HETATM   19  C   UNL     1     -43.332  59.756 -54.471  1.00  0.00     0.248 C 
HETATM   20  N   UNL     1     -43.393  59.123 -53.245  1.00  0.00    -0.326 N 
HETATM   21  H   UNL     1     -43.107  58.152 -53.178  1.00  0.00     0.169 HD
HETATM   22  O   UNL     1     -43.844  60.835 -54.761  1.00  0.00    -0.271 OA
BRANCH  20  23
HETATM   23  C   UNL     1     -43.905  59.668 -52.045  1.00  0.00     0.034 A 
HETATM   24  C   UNL     1     -45.090  59.124 -51.543  1.00  0.00     0.032 A 
HETATM   25  C   UNL     1     -45.654  59.604 -50.353  1.00  0.00     0.032 A 
HETATM   26  C   UNL     1     -45.036  60.627 -49.636  1.00  0.00     0.034 A 
HETATM   27  C   UNL     1     -43.840  61.157 -50.129  1.00  0.00     0.032 A 
HETATM   28  C   UNL     1     -43.278  60.684 -51.322  1.00  0.00     0.032 A 
BRANCH  26  29
HETATM   29  N   UNL     1     -45.543  61.175 -48.441  1.00  0.00    -0.328 N 
HETATM   30  C   UNL     1     -46.379  62.269 -48.306  1.00  0.00     0.218 C 
HETATM   31  C   UNL     1     -46.691  62.591 -46.866  1.00  0.00     0.117 C 
HETATM   32  O   UNL     1     -46.870  62.929 -49.215  1.00  0.00    -0.274 OA
HETATM   33  H   UNL     1     -45.257  60.717 -47.585  1.00  0.00     0.169 HD
ENDBRANCH  26  29
ENDBRANCH  20  23
ENDBRANCH  18  19
ENDBRANCH   1  18
BRANCH   1  34
HETATM   34  C   UNL     1     -43.166  57.644 -57.522  1.00  0.00     0.231 C 
HETATM   35  C   UNL     1     -42.943  56.220 -58.001  1.00  0.00     0.034 C 
ENDBRANCH   1  34
TORSDOF 9
ENDMDL
