MODEL 1
REMARK VINA RESULT:      -9.2      0.000      0.000
REMARK  4 active torsions:
REMARK  status: ('A' for Active; 'I' for Inactive)
REMARK    1  A    between atoms: C_4  and  O_5 
REMARK    2  A    between atoms: C_6  and  N_7 
REMARK       I    between atoms: N_7  and  C_8 
REMARK    3  A    between atoms: C_8  and  C_9 
REMARK    4  A    between atoms: C_9  and  N_10 
ROOT
HETATM    1  N   UNL     1     -42.105  55.342 -54.813  1.00  0.00    -0.259 N 
HETATM    2  C   UNL     1     -43.120  54.827 -54.064  1.00  0.00     0.326 C 
HETATM    3  O   UNL     1     -44.294  55.151 -54.080  1.00  0.00    -0.247 OA
HETATM    4  N   UNL     1     -42.600  53.869 -53.224  1.00  0.00    -0.320 N 
HETATM    5  C   UNL     1     -41.164  53.858 -53.262  1.00  0.00     0.144 C 
HETATM    6  C   UNL     1     -40.582  52.480 -53.254  1.00  0.00    -0.014 A 
HETATM    7  C   UNL     1     -40.046  52.192 -51.988  1.00  0.00    -0.049 A 
HETATM    8  C   UNL     1     -39.485  50.959 -51.707  1.00  0.00     0.007 A 
HETATM    9  C   UNL     1     -39.457  50.000 -52.719  1.00  0.00     0.001 A 
HETATM   10  C   UNL     1     -39.997  50.279 -53.982  1.00  0.00     0.001 A 
HETATM   11  C   UNL     1     -40.572  51.524 -54.256  1.00  0.00     0.011 A 
HETATM   12  C   UNL     1     -40.233  53.338 -51.042  1.00  0.00     0.042 C 
HETATM   13  C   UNL     1     -40.536  54.494 -52.006  1.00  0.00     0.051 C 
HETATM   14  C   UNL     1     -40.918  54.746 -54.484  1.00  0.00     0.261 C 
HETATM   15  O   UNL     1     -39.855  54.960 -55.054  1.00  0.00    -0.270 OA
HETATM   16  H   UNL     1     -43.177  53.391 -52.545  1.00  0.00     0.165 HD
ENDROOT
BRANCH   1  17
HETATM   17  C   UNL     1     -42.240  56.476 -55.700  1.00  0.00     0.240 C 
BRANCH  17  18
HETATM   18  C   UNL     1     -42.864  56.144 -57.052  1.00  0.00     0.240 C 
HETATM   19  N   UNL     1     -43.648  57.149 -57.579  1.00  0.00    -0.323 N 
HETATM   20  H   UNL     1     -43.528  58.077 -57.170  1.00  0.00     0.169 HD
HETATM   21  O   UNL     1     -42.731  55.028 -57.551  1.00  0.00    -0.271 OA
BRANCH  19  22
HETATM   22  C   UNL     1     -44.598  57.066 -58.629  1.00  0.00     0.068 A 
HETATM   23  C   UNL     1     -44.414  56.469 -59.887  1.00  0.00     0.092 A 
HETATM   24  C   UNL     1     -45.470  56.380 -60.801  1.00  0.00     0.045 A 
HETATM   25  C   UNL     1     -46.734  56.891 -60.496  1.00  0.00    -0.059 A 
HETATM   26  C   UNL     1     -47.841  56.820 -61.504  1.00  0.00     0.048 C 
HETATM   27  C   UNL     1     -46.922  57.511 -59.259  1.00  0.00     0.009 A 
HETATM   28  C   UNL     1     -45.872  57.580 -58.334  1.00  0.00     0.033 A 
BRANCH  23  29
HETATM   29  O   UNL     1     -43.260  55.886 -60.325  1.00  0.00    -0.358 OA
HETATM   30  H   UNL     1     -43.120  56.148 -61.259  1.00  0.00     0.218 HD
ENDBRANCH  23  29
ENDBRANCH  19  22
ENDBRANCH  17  18
ENDBRANCH   1  17
TORSDOF 4
ENDMDL
MODEL 2
REMARK VINA RESULT:      -9.0      2.470      8.052
REMARK  4 active torsions:
REMARK  status: ('A' for Active; 'I' for Inactive)
REMARK    1  A    between atoms: C_4  and  O_5 
REMARK    2  A    between atoms: C_6  and  N_7 
REMARK       I    between atoms: N_7  and  C_8 
REMARK    3  A    between atoms: C_8  and  C_9 
REMARK    4  A    between atoms: C_9  and  N_10 
ROOT
HETATM    1  N   UNL     1     -43.099  56.912 -54.313  1.00  0.00    -0.259 N 
HETATM    2  C   UNL     1     -44.369  57.134 -54.752  1.00  0.00     0.326 C 
HETATM    3  O   UNL     1     -45.376  57.269 -54.079  1.00  0.00    -0.247 OA
HETATM    4  N   UNL     1     -44.358  57.151 -56.127  1.00  0.00    -0.320 N 
HETATM    5  C   UNL     1     -43.083  56.743 -56.650  1.00  0.00     0.144 C 
HETATM    6  C   UNL     1     -42.635  57.558 -57.821  1.00  0.00    -0.014 A 
HETATM    7  C   UNL     1     -42.788  56.822 -59.007  1.00  0.00    -0.049 A 
HETATM    8  C   UNL     1     -42.482  57.370 -60.240  1.00  0.00     0.007 A 
HETATM    9  C   UNL     1     -42.009  58.682 -60.281  1.00  0.00     0.001 A 
HETATM   10  C   UNL     1     -41.861  59.424 -59.100  1.00  0.00     0.001 A 
HETATM   11  C   UNL     1     -42.181  58.866 -57.858  1.00  0.00     0.011 A 
HETATM   12  C   UNL     1     -43.361  55.465 -58.737  1.00  0.00     0.042 C 
HETATM   13  C   UNL     1     -43.114  55.314 -57.230  1.00  0.00     0.051 C 
HETATM   14  C   UNL     1     -42.243  56.777 -55.372  1.00  0.00     0.261 C 
HETATM   15  O   UNL     1     -41.029  56.648 -55.268  1.00  0.00    -0.270 OA
HETATM   16  H   UNL     1     -45.210  57.256 -56.662  1.00  0.00     0.165 HD
ENDROOT
BRANCH   1  17
HETATM   17  C   UNL     1     -42.743  56.678 -52.931  1.00  0.00     0.240 C 
BRANCH  17  18
HETATM   18  C   UNL     1     -42.449  55.220 -52.596  1.00  0.00     0.240 C 
HETATM   19  N   UNL     1     -41.139  54.841 -52.808  1.00  0.00    -0.323 N 
HETATM   20  H   UNL     1     -40.460  55.597 -52.904  1.00  0.00     0.169 HD
HETATM   21  O   UNL     1     -43.351  54.455 -52.261  1.00  0.00    -0.271 OA
BRANCH  19  22
HETATM   22  C   UNL     1     -40.605  53.530 -52.898  1.00  0.00     0.068 A 
HETATM   23  C   UNL     1     -39.985  52.799 -51.872  1.00  0.00     0.092 A 
HETATM   24  C   UNL     1     -39.581  51.474 -52.075  1.00  0.00     0.045 A 
HETATM   25  C   UNL     1     -39.771  50.844 -53.307  1.00  0.00    -0.059 A 
HETATM   26  C   UNL     1     -39.296  49.438 -53.517  1.00  0.00     0.048 C 
HETATM   27  C   UNL     1     -40.361  51.569 -54.344  1.00  0.00     0.009 A 
HETATM   28  C   UNL     1     -40.788  52.887 -54.134  1.00  0.00     0.033 A 
BRANCH  23  29
HETATM   29  O   UNL     1     -39.763  53.250 -50.602  1.00  0.00    -0.358 OA
HETATM   30  H   UNL     1     -39.961  54.210 -50.579  1.00  0.00     0.218 HD
ENDBRANCH  23  29
ENDBRANCH  19  22
ENDBRANCH  17  18
ENDBRANCH   1  17
TORSDOF 4
ENDMDL
MODEL 3
REMARK VINA RESULT:      -8.9      3.539      5.567
REMARK  4 active torsions:
REMARK  status: ('A' for Active; 'I' for Inactive)
REMARK    1  A    between atoms: C_4  and  O_5 
REMARK    2  A    between atoms: C_6  and  N_7 
REMARK       I    between atoms: N_7  and  C_8 
REMARK    3  A    between atoms: C_8  and  C_9 
REMARK    4  A    between atoms: C_9  and  N_10 
ROOT
HETATM    1  N   UNL     1     -41.931  55.310 -54.654  1.00  0.00    -0.259 N 
HETATM    2  C   UNL     1     -42.963  54.765 -53.950  1.00  0.00     0.326 C 
HETATM    3  O   UNL     1     -44.125  55.130 -53.934  1.00  0.00    -0.247 OA
HETATM    4  N   UNL     1     -42.475  53.721 -53.199  1.00  0.00    -0.320 N 
HETATM    5  C   UNL     1     -41.040  53.664 -53.243  1.00  0.00     0.144 C 
HETATM    6  C   UNL     1     -40.506  52.272 -53.357  1.00  0.00    -0.014 A 
HETATM    7  C   UNL     1     -39.980  51.856 -52.123  1.00  0.00    -0.049 A 
HETATM    8  C   UNL     1     -39.461  50.585 -51.953  1.00  0.00     0.007 A 
HETATM    9  C   UNL     1     -39.465  49.718 -53.045  1.00  0.00     0.001 A 
HETATM   10  C   UNL     1     -39.997  50.125 -54.278  1.00  0.00     0.001 A 
HETATM   11  C   UNL     1     -40.528  51.408 -54.439  1.00  0.00     0.011 A 
HETATM   12  C   UNL     1     -40.127  52.920 -51.080  1.00  0.00     0.042 C 
HETATM   13  C   UNL     1     -40.391  54.166 -51.937  1.00  0.00     0.051 C 
HETATM   14  C   UNL     1     -40.765  54.647 -54.382  1.00  0.00     0.261 C 
HETATM   15  O   UNL     1     -39.696  54.874 -54.936  1.00  0.00    -0.270 OA
HETATM   16  H   UNL     1     -43.069  53.205 -52.563  1.00  0.00     0.165 HD
ENDROOT
BRANCH   1  17
HETATM   17  C   UNL     1     -42.028  56.521 -55.438  1.00  0.00     0.240 C 
BRANCH  17  18
HETATM   18  C   UNL     1     -41.982  57.805 -54.616  1.00  0.00     0.240 C 
HETATM   19  N   UNL     1     -42.203  57.625 -53.266  1.00  0.00    -0.323 N 
HETATM   20  H   UNL     1     -42.112  56.670 -52.917  1.00  0.00     0.169 HD
HETATM   21  O   UNL     1     -41.851  58.899 -55.162  1.00  0.00    -0.271 OA
BRANCH  19  22
HETATM   22  C   UNL     1     -42.531  58.600 -52.289  1.00  0.00     0.068 A 
HETATM   23  C   UNL     1     -41.646  59.482 -51.649  1.00  0.00     0.092 A 
HETATM   24  C   UNL     1     -42.120  60.460 -50.765  1.00  0.00     0.045 A 
HETATM   25  C   UNL     1     -43.483  60.579 -50.486  1.00  0.00    -0.059 A 
HETATM   26  C   UNL     1     -43.966  61.607 -49.508  1.00  0.00     0.048 C 
HETATM   27  C   UNL     1     -44.370  59.691 -51.097  1.00  0.00     0.009 A 
HETATM   28  C   UNL     1     -43.900  58.727 -51.999  1.00  0.00     0.033 A 
BRANCH  23  29
HETATM   29  O   UNL     1     -40.295  59.526 -51.841  1.00  0.00    -0.358 OA
HETATM   30  H   UNL     1     -40.113  60.122 -52.598  1.00  0.00     0.218 HD
ENDBRANCH  23  29
ENDBRANCH  19  22
ENDBRANCH  17  18
ENDBRANCH   1  17
TORSDOF 4
ENDMDL
MODEL 4
REMARK VINA RESULT:      -8.9      2.194      3.092
REMARK  4 active torsions:
REMARK  status: ('A' for Active; 'I' for Inactive)
REMARK    1  A    between atoms: C_4  and  O_5 
REMARK    2  A    between atoms: C_6  and  N_7 
REMARK       I    between atoms: N_7  and  C_8 
REMARK    3  A    between atoms: C_8  and  C_9 
REMARK    4  A    between atoms: C_9  and  N_10 
ROOT
HETATM    1  N   UNL     1     -42.949  56.578 -51.808  1.00  0.00    -0.259 N 
HETATM    2  C   UNL     1     -43.597  55.645 -51.057  1.00  0.00     0.326 C 
HETATM    3  O   UNL     1     -44.673  55.758 -50.497  1.00  0.00    -0.247 OA
HETATM    4  N   UNL     1     -42.811  54.518 -50.989  1.00  0.00    -0.320 N 
HETATM    5  C   UNL     1     -41.508  54.748 -51.548  1.00  0.00     0.144 C 
HETATM    6  C   UNL     1     -41.006  53.603 -52.369  1.00  0.00    -0.014 A 
HETATM    7  C   UNL     1     -40.020  52.899 -51.659  1.00  0.00    -0.049 A 
HETATM    8  C   UNL     1     -39.424  51.766 -52.185  1.00  0.00     0.007 A 
HETATM    9  C   UNL     1     -39.823  51.337 -53.451  1.00  0.00     0.001 A 
HETATM   10  C   UNL     1     -40.812  52.033 -54.161  1.00  0.00     0.001 A 
HETATM   11  C   UNL     1     -41.417  53.171 -53.619  1.00  0.00     0.011 A 
HETATM   12  C   UNL     1     -39.788  53.497 -50.306  1.00  0.00     0.042 C 
HETATM   13  C   UNL     1     -40.418  54.888 -50.466  1.00  0.00     0.051 C 
HETATM   14  C   UNL     1     -41.744  56.093 -52.238  1.00  0.00     0.261 C 
HETATM   15  O   UNL     1     -40.988  56.690 -52.996  1.00  0.00    -0.270 OA
HETATM   16  H   UNL     1     -43.085  53.715 -50.437  1.00  0.00     0.165 HD
ENDROOT
BRANCH   1  17
HETATM   17  C   UNL     1     -43.395  57.943 -51.977  1.00  0.00     0.240 C 
BRANCH  17  18
HETATM   18  C   UNL     1     -43.498  58.395 -53.430  1.00  0.00     0.240 C 
HETATM   19  N   UNL     1     -43.909  57.410 -54.304  1.00  0.00    -0.323 N 
HETATM   20  H   UNL     1     -44.347  56.588 -53.885  1.00  0.00     0.169 HD
HETATM   21  O   UNL     1     -43.143  59.523 -53.766  1.00  0.00    -0.271 OA
BRANCH  19  22
HETATM   22  C   UNL     1     -43.815  57.393 -55.719  1.00  0.00     0.068 A 
HETATM   23  C   UNL     1     -42.818  56.775 -56.491  1.00  0.00     0.092 A 
HETATM   24  C   UNL     1     -42.896  56.761 -57.889  1.00  0.00     0.045 A 
HETATM   25  C   UNL     1     -43.960  57.369 -58.557  1.00  0.00    -0.059 A 
HETATM   26  C   UNL     1     -44.005  57.376 -60.056  1.00  0.00     0.048 C 
HETATM   27  C   UNL     1     -44.945  58.010 -57.802  1.00  0.00     0.009 A 
HETATM   28  C   UNL     1     -44.880  58.004 -56.403  1.00  0.00     0.033 A 
BRANCH  23  29
HETATM   29  O   UNL     1     -41.737  56.103 -55.996  1.00  0.00    -0.358 OA
HETATM   30  H   UNL     1     -40.926  56.526 -56.346  1.00  0.00     0.218 HD
ENDBRANCH  23  29
ENDBRANCH  19  22
ENDBRANCH  17  18
ENDBRANCH   1  17
TORSDOF 4
ENDMDL
MODEL 5
REMARK VINA RESULT:      -8.5      2.094      8.061
REMARK  4 active torsions:
REMARK  status: ('A' for Active; 'I' for Inactive)
REMARK    1  A    between atoms: C_4  and  O_5 
REMARK    2  A    between atoms: C_6  and  N_7 
REMARK       I    between atoms: N_7  and  C_8 
REMARK    3  A    between atoms: C_8  and  C_9 
REMARK    4  A    between atoms: C_9  and  N_10 
ROOT
HETATM    1  N   UNL     1     -42.692  58.582 -55.972  1.00  0.00    -0.259 N 
HETATM    2  C   UNL     1     -42.275  59.260 -57.077  1.00  0.00     0.326 C 
HETATM    3  O   UNL     1     -41.392  60.098 -57.146  1.00  0.00    -0.247 OA
HETATM    4  N   UNL     1     -43.050  58.873 -58.146  1.00  0.00    -0.320 N 
HETATM    5  C   UNL     1     -44.150  58.049 -57.728  1.00  0.00     0.144 C 
HETATM    6  C   UNL     1     -44.410  56.899 -58.647  1.00  0.00    -0.014 A 
HETATM    7  C   UNL     1     -45.553  57.152 -59.423  1.00  0.00    -0.049 A 
HETATM    8  C   UNL     1     -45.983  56.255 -60.386  1.00  0.00     0.007 A 
HETATM    9  C   UNL     1     -45.254  55.080 -60.567  1.00  0.00     0.001 A 
HETATM   10  C   UNL     1     -44.108  54.826 -59.800  1.00  0.00     0.001 A 
HETATM   11  C   UNL     1     -43.674  55.741 -58.836  1.00  0.00     0.011 A 
HETATM   12  C   UNL     1     -46.145  58.489 -59.104  1.00  0.00     0.042 C 
HETATM   13  C   UNL     1     -45.494  58.806 -57.751  1.00  0.00     0.051 C 
HETATM   14  C   UNL     1     -43.734  57.753 -56.286  1.00  0.00     0.261 C 
HETATM   15  O   UNL     1     -44.254  56.967 -55.502  1.00  0.00    -0.270 OA
HETATM   16  H   UNL     1     -42.938  59.292 -59.060  1.00  0.00     0.165 HD
ENDROOT
BRANCH   1  17
HETATM   17  C   UNL     1     -42.216  58.836 -54.631  1.00  0.00     0.240 C 
BRANCH  17  18
HETATM   18  C   UNL     1     -41.266  57.772 -54.091  1.00  0.00     0.240 C 
HETATM   19  N   UNL     1     -41.496  56.503 -54.582  1.00  0.00    -0.323 N 
HETATM   20  H   UNL     1     -42.072  56.441 -55.423  1.00  0.00     0.169 HD
HETATM   21  O   UNL     1     -40.442  58.045 -53.221  1.00  0.00    -0.271 OA
BRANCH  19  22
HETATM   22  C   UNL     1     -41.024  55.264 -54.076  1.00  0.00     0.068 A 
HETATM   23  C   UNL     1     -41.028  54.843 -52.737  1.00  0.00     0.092 A 
HETATM   24  C   UNL     1     -40.612  53.553 -52.387  1.00  0.00     0.045 A 
HETATM   25  C   UNL     1     -40.169  52.652 -53.357  1.00  0.00    -0.059 A 
HETATM   26  C   UNL     1     -39.691  51.288 -52.957  1.00  0.00     0.048 C 
HETATM   27  C   UNL     1     -40.135  53.067 -54.689  1.00  0.00     0.009 A 
HETATM   28  C   UNL     1     -40.574  54.350 -55.043  1.00  0.00     0.033 A 
BRANCH  23  29
HETATM   29  O   UNL     1     -41.468  55.583 -51.677  1.00  0.00    -0.358 OA
HETATM   30  H   UNL     1     -42.435  55.454 -51.592  1.00  0.00     0.218 HD
ENDBRANCH  23  29
ENDBRANCH  19  22
ENDBRANCH  17  18
ENDBRANCH   1  17
TORSDOF 4
ENDMDL
MODEL 6
REMARK VINA RESULT:      -8.5      3.005      3.517
REMARK  4 active torsions:
REMARK  status: ('A' for Active; 'I' for Inactive)
REMARK    1  A    between atoms: C_4  and  O_5 
REMARK    2  A    between atoms: C_6  and  N_7 
REMARK       I    between atoms: N_7  and  C_8 
REMARK    3  A    between atoms: C_8  and  C_9 
REMARK    4  A    between atoms: C_9  and  N_10 
ROOT
HETATM    1  N   UNL     1     -42.641  57.076 -52.787  1.00  0.00    -0.259 N 
HETATM    2  C   UNL     1     -43.520  56.300 -52.094  1.00  0.00     0.326 C 
HETATM    3  O   UNL     1     -44.665  56.573 -51.779  1.00  0.00    -0.247 OA
HETATM    4  N   UNL     1     -42.891  55.125 -51.754  1.00  0.00    -0.320 N 
HETATM    5  C   UNL     1     -41.487  55.172 -52.057  1.00  0.00     0.144 C 
HETATM    6  C   UNL     1     -40.964  53.898 -52.639  1.00  0.00    -0.014 A 
HETATM    7  C   UNL     1     -40.217  53.200 -51.676  1.00  0.00    -0.049 A 
HETATM    8  C   UNL     1     -39.658  51.965 -51.953  1.00  0.00     0.007 A 
HETATM    9  C   UNL     1     -39.850  51.423 -53.224  1.00  0.00     0.001 A 
HETATM   10  C   UNL     1     -40.602  52.112 -54.187  1.00  0.00     0.001 A 
HETATM   11  C   UNL     1     -41.171  53.356 -53.896  1.00  0.00     0.011 A 
HETATM   12  C   UNL     1     -40.186  53.934 -50.371  1.00  0.00     0.042 C 
HETATM   13  C   UNL     1     -40.618  55.345 -50.795  1.00  0.00     0.051 C 
HETATM   14  C   UNL     1     -41.437  56.440 -52.912  1.00  0.00     0.261 C 
HETATM   15  O   UNL     1     -40.488  56.873 -53.556  1.00  0.00    -0.270 OA
HETATM   16  H   UNL     1     -43.351  54.421 -51.193  1.00  0.00     0.165 HD
ENDROOT
BRANCH   1  17
HETATM   17  C   UNL     1     -42.895  58.445 -53.179  1.00  0.00     0.240 C 
BRANCH  17  18
HETATM   18  C   UNL     1     -43.302  58.614 -54.639  1.00  0.00     0.240 C 
HETATM   19  N   UNL     1     -42.262  58.486 -55.537  1.00  0.00    -0.323 N 
HETATM   20  H   UNL     1     -41.412  58.044 -55.185  1.00  0.00     0.169 HD
HETATM   21  O   UNL     1     -44.450  58.931 -54.942  1.00  0.00    -0.271 OA
BRANCH  19  22
HETATM   22  C   UNL     1     -42.221  58.880 -56.900  1.00  0.00     0.068 A 
HETATM   23  C   UNL     1     -41.909  60.154 -57.401  1.00  0.00     0.092 A 
HETATM   24  C   UNL     1     -41.819  60.382 -58.779  1.00  0.00     0.045 A 
HETATM   25  C   UNL     1     -42.048  59.354 -59.696  1.00  0.00    -0.059 A 
HETATM   26  C   UNL     1     -41.985  59.629 -61.169  1.00  0.00     0.048 C 
HETATM   27  C   UNL     1     -42.386  58.089 -59.211  1.00  0.00     0.009 A 
HETATM   28  C   UNL     1     -42.453  57.854 -57.832  1.00  0.00     0.033 A 
BRANCH  23  29
HETATM   29  O   UNL     1     -41.618  61.252 -56.643  1.00  0.00    -0.358 OA
HETATM   30  H   UNL     1     -40.695  61.519 -56.833  1.00  0.00     0.218 HD
ENDBRANCH  23  29
ENDBRANCH  19  22
ENDBRANCH  17  18
ENDBRANCH   1  17
TORSDOF 4
ENDMDL
MODEL 7
REMARK VINA RESULT:      -8.4     14.427     16.048
REMARK  4 active torsions:
REMARK  status: ('A' for Active; 'I' for Inactive)
REMARK    1  A    between atoms: C_4  and  O_5 
REMARK    2  A    between atoms: C_6  and  N_7 
REMARK       I    between atoms: N_7  and  C_8 
REMARK    3  A    between atoms: C_8  and  C_9 
REMARK    4  A    between atoms: C_9  and  N_10 
ROOT
HETATM    1  N   UNL     1     -36.285  41.278 -53.941  1.00  0.00    -0.259 N 
HETATM    2  C   UNL     1     -36.302  39.923 -54.074  1.00  0.00     0.326 C 
HETATM    3  O   UNL     1     -36.807  39.271 -54.971  1.00  0.00    -0.247 OA
HETATM    4  N   UNL     1     -35.672  39.369 -52.984  1.00  0.00    -0.320 N 
HETATM    5  C   UNL     1     -35.380  40.359 -51.984  1.00  0.00     0.144 C 
HETATM    6  C   UNL     1     -34.034  40.186 -51.356  1.00  0.00    -0.014 A 
HETATM    7  C   UNL     1     -34.171  39.654 -50.064  1.00  0.00    -0.049 A 
HETATM    8  C   UNL     1     -33.066  39.359 -49.285  1.00  0.00     0.007 A 
HETATM    9  C   UNL     1     -31.799  39.609 -49.813  1.00  0.00     0.001 A 
HETATM   10  C   UNL     1     -31.656  40.134 -51.107  1.00  0.00     0.001 A 
HETATM   11  C   UNL     1     -32.778  40.420 -51.891  1.00  0.00     0.011 A 
HETATM   12  C   UNL     1     -35.609  39.412 -49.722  1.00  0.00     0.042 C 
HETATM   13  C   UNL     1     -36.329  40.270 -50.772  1.00  0.00     0.051 C 
HETATM   14  C   UNL     1     -35.656  41.636 -52.780  1.00  0.00     0.261 C 
HETATM   15  O   UNL     1     -35.427  42.793 -52.444  1.00  0.00    -0.270 OA
HETATM   16  H   UNL     1     -35.615  38.367 -52.859  1.00  0.00     0.165 HD
ENDROOT
BRANCH   1  17
HETATM   17  C   UNL     1     -36.984  42.193 -54.816  1.00  0.00     0.240 C 
BRANCH  17  18
HETATM   18  C   UNL     1     -36.728  41.960 -56.301  1.00  0.00     0.240 C 
HETATM   19  N   UNL     1     -37.799  41.420 -56.984  1.00  0.00    -0.323 N 
HETATM   20  H   UNL     1     -38.706  41.476 -56.520  1.00  0.00     0.169 HD
HETATM   21  O   UNL     1     -35.617  42.159 -56.789  1.00  0.00    -0.271 OA
BRANCH  19  22
HETATM   22  C   UNL     1     -37.808  40.804 -58.262  1.00  0.00     0.068 A 
HETATM   23  C   UNL     1     -37.404  41.378 -59.478  1.00  0.00     0.092 A 
HETATM   24  C   UNL     1     -37.381  40.624 -60.657  1.00  0.00     0.045 A 
HETATM   25  C   UNL     1     -37.770  39.282 -60.662  1.00  0.00    -0.059 A 
HETATM   26  C   UNL     1     -37.775  38.503 -61.942  1.00  0.00     0.048 C 
HETATM   27  C   UNL     1     -38.198  38.707 -59.464  1.00  0.00     0.009 A 
HETATM   28  C   UNL     1     -38.199  39.455 -58.279  1.00  0.00     0.033 A 
BRANCH  23  29
HETATM   29  O   UNL     1     -36.958  42.659 -59.639  1.00  0.00    -0.358 OA
HETATM   30  H   UNL     1     -37.163  43.159 -58.822  1.00  0.00     0.218 HD
ENDBRANCH  23  29
ENDBRANCH  19  22
ENDBRANCH  17  18
ENDBRANCH   1  17
TORSDOF 4
ENDMDL
MODEL 8
REMARK VINA RESULT:      -8.4      2.197      3.352
REMARK  4 active torsions:
REMARK  status: ('A' for Active; 'I' for Inactive)
REMARK    1  A    between atoms: C_4  and  O_5 
REMARK    2  A    between atoms: C_6  and  N_7 
REMARK       I    between atoms: N_7  and  C_8 
REMARK    3  A    between atoms: C_8  and  C_9 
REMARK    4  A    between atoms: C_9  and  N_10 
ROOT
HETATM    1  N   UNL     1     -42.887  56.503 -53.379  1.00  0.00    -0.259 N 
HETATM    2  C   UNL     1     -41.610  56.974 -53.430  1.00  0.00     0.326 C 
HETATM    3  O   UNL     1     -41.249  58.134 -53.523  1.00  0.00    -0.247 OA
HETATM    4  N   UNL     1     -40.748  55.903 -53.396  1.00  0.00    -0.320 N 
HETATM    5  C   UNL     1     -41.451  54.656 -53.514  1.00  0.00     0.144 C 
HETATM    6  C   UNL     1     -40.922  53.590 -52.609  1.00  0.00    -0.014 A 
HETATM    7  C   UNL     1     -40.175  52.658 -53.348  1.00  0.00    -0.049 A 
HETATM    8  C   UNL     1     -39.541  51.593 -52.733  1.00  0.00     0.007 A 
HETATM    9  C   UNL     1     -39.665  51.459 -51.350  1.00  0.00     0.001 A 
HETATM   10  C   UNL     1     -40.404  52.391 -50.606  1.00  0.00     0.001 A 
HETATM   11  C   UNL     1     -41.034  53.470 -51.234  1.00  0.00     0.011 A 
HETATM   12  C   UNL     1     -40.127  53.023 -54.799  1.00  0.00     0.042 C 
HETATM   13  C   UNL     1     -41.290  54.019 -54.910  1.00  0.00     0.051 C 
HETATM   14  C   UNL     1     -42.889  55.136 -53.315  1.00  0.00     0.261 C 
HETATM   15  O   UNL     1     -43.897  54.451 -53.181  1.00  0.00    -0.270 OA
HETATM   16  H   UNL     1     -39.747  56.027 -53.471  1.00  0.00     0.165 HD
ENDROOT
BRANCH   1  17
HETATM   17  C   UNL     1     -44.066  57.323 -53.546  1.00  0.00     0.240 C 
BRANCH  17  18
HETATM   18  C   UNL     1     -44.285  57.824 -54.970  1.00  0.00     0.240 C 
HETATM   19  N   UNL     1     -43.385  57.330 -55.892  1.00  0.00    -0.323 N 
HETATM   20  H   UNL     1     -42.853  56.507 -55.607  1.00  0.00     0.169 HD
HETATM   21  O   UNL     1     -45.142  58.671 -55.215  1.00  0.00    -0.271 OA
BRANCH  19  22
HETATM   22  C   UNL     1     -43.109  57.810 -57.198  1.00  0.00     0.068 A 
HETATM   23  C   UNL     1     -43.688  57.369 -58.398  1.00  0.00     0.092 A 
HETATM   24  C   UNL     1     -43.387  57.995 -59.614  1.00  0.00     0.045 A 
HETATM   25  C   UNL     1     -42.494  59.067 -59.671  1.00  0.00    -0.059 A 
HETATM   26  C   UNL     1     -42.156  59.698 -60.988  1.00  0.00     0.048 C 
HETATM   27  C   UNL     1     -41.891  59.498 -58.488  1.00  0.00     0.009 A 
HETATM   28  C   UNL     1     -42.210  58.887 -57.267  1.00  0.00     0.033 A 
BRANCH  23  29
HETATM   29  O   UNL     1     -44.607  56.366 -58.512  1.00  0.00    -0.358 OA
HETATM   30  H   UNL     1     -44.148  55.565 -58.841  1.00  0.00     0.218 HD
ENDBRANCH  23  29
ENDBRANCH  19  22
ENDBRANCH  17  18
ENDBRANCH   1  17
TORSDOF 4
ENDMDL
MODEL 9
REMARK VINA RESULT:      -8.3      2.243      3.293
REMARK  4 active torsions:
REMARK  status: ('A' for Active; 'I' for Inactive)
REMARK    1  A    between atoms: C_4  and  O_5 
REMARK    2  A    between atoms: C_6  and  N_7 
REMARK       I    between atoms: N_7  and  C_8 
REMARK    3  A    between atoms: C_8  and  C_9 
REMARK    4  A    between atoms: C_9  and  N_10 
ROOT
HETATM    1  N   UNL     1     -42.505  58.189 -53.629  1.00  0.00    -0.259 N 
HETATM    2  C   UNL     1     -41.164  58.423 -53.595  1.00  0.00     0.326 C 
HETATM    3  O   UNL     1     -40.595  59.498 -53.655  1.00  0.00    -0.247 OA
HETATM    4  N   UNL     1     -40.513  57.214 -53.517  1.00  0.00    -0.320 N 
HETATM    5  C   UNL     1     -41.420  56.113 -53.690  1.00  0.00     0.144 C 
HETATM    6  C   UNL     1     -41.150  54.972 -52.763  1.00  0.00    -0.014 A 
HETATM    7  C   UNL     1     -40.538  53.919 -53.462  1.00  0.00    -0.049 A 
HETATM    8  C   UNL     1     -40.146  52.758 -52.818  1.00  0.00     0.007 A 
HETATM    9  C   UNL     1     -40.380  52.652 -51.447  1.00  0.00     0.001 A 
HETATM   10  C   UNL     1     -40.984  53.704 -50.742  1.00  0.00     0.001 A 
HETATM   11  C   UNL     1     -41.368  54.877 -51.398  1.00  0.00     0.011 A 
HETATM   12  C   UNL     1     -40.333  54.266 -54.904  1.00  0.00     0.042 C 
HETATM   13  C   UNL     1     -41.288  55.455 -55.079  1.00  0.00     0.051 C 
HETATM   14  C   UNL     1     -42.758  56.846 -53.577  1.00  0.00     0.261 C 
HETATM   15  O   UNL     1     -43.879  56.354 -53.512  1.00  0.00    -0.270 OA
HETATM   16  H   UNL     1     -39.503  57.155 -53.527  1.00  0.00     0.165 HD
ENDROOT
BRANCH   1  17
HETATM   17  C   UNL     1     -43.505  59.208 -53.862  1.00  0.00     0.240 C 
BRANCH  17  18
HETATM   18  C   UNL     1     -43.954  59.326 -55.315  1.00  0.00     0.240 C 
HETATM   19  N   UNL     1     -44.912  58.406 -55.690  1.00  0.00    -0.323 N 
HETATM   20  H   UNL     1     -45.406  57.933 -54.932  1.00  0.00     0.169 HD
HETATM   21  O   UNL     1     -43.414  60.123 -56.079  1.00  0.00    -0.271 OA
BRANCH  19  22
HETATM   22  C   UNL     1     -45.313  58.037 -57.000  1.00  0.00     0.068 A 
HETATM   23  C   UNL     1     -44.521  57.418 -57.981  1.00  0.00     0.092 A 
HETATM   24  C   UNL     1     -45.072  57.026 -59.207  1.00  0.00     0.045 A 
HETATM   25  C   UNL     1     -46.420  57.250 -59.496  1.00  0.00    -0.059 A 
HETATM   26  C   UNL     1     -46.981  56.859 -60.830  1.00  0.00     0.048 C 
HETATM   27  C   UNL     1     -47.211  57.889 -58.539  1.00  0.00     0.009 A 
HETATM   28  C   UNL     1     -46.666  58.260 -57.303  1.00  0.00     0.033 A 
BRANCH  23  29
HETATM   29  O   UNL     1     -43.203  57.091 -57.844  1.00  0.00    -0.358 OA
HETATM   30  H   UNL     1     -42.940  56.547 -58.615  1.00  0.00     0.218 HD
ENDBRANCH  23  29
ENDBRANCH  19  22
ENDBRANCH  17  18
ENDBRANCH   1  17
TORSDOF 4
ENDMDL
MODEL 10
REMARK VINA RESULT:      -8.3      2.496      2.717
REMARK  4 active torsions:
REMARK  status: ('A' for Active; 'I' for Inactive)
REMARK    1  A    between atoms: C_4  and  O_5 
REMARK    2  A    between atoms: C_6  and  N_7 
REMARK       I    between atoms: N_7  and  C_8 
REMARK    3  A    between atoms: C_8  and  C_9 
REMARK    4  A    between atoms: C_9  and  N_10 
ROOT
HETATM    1  N   UNL     1     -42.517  56.297 -54.271  1.00  0.00    -0.259 N 
HETATM    2  C   UNL     1     -43.536  55.527 -53.796  1.00  0.00     0.326 C 
HETATM    3  O   UNL     1     -44.732  55.737 -53.890  1.00  0.00    -0.247 OA
HETATM    4  N   UNL     1     -42.996  54.449 -53.134  1.00  0.00    -0.320 N 
HETATM    5  C   UNL     1     -41.573  54.578 -52.987  1.00  0.00     0.144 C 
HETATM    6  C   UNL     1     -40.835  53.298 -53.215  1.00  0.00    -0.014 A 
HETATM    7  C   UNL     1     -40.404  52.767 -51.988  1.00  0.00    -0.049 A 
HETATM    8  C   UNL     1     -39.732  51.559 -51.923  1.00  0.00     0.007 A 
HETATM    9  C   UNL     1     -39.484  50.875 -53.113  1.00  0.00     0.001 A 
HETATM   10  C   UNL     1     -39.919  51.397 -54.340  1.00  0.00     0.001 A 
HETATM   11  C   UNL     1     -40.606  52.614 -54.397  1.00  0.00     0.011 A 
HETATM   12  C   UNL     1     -40.824  53.631 -50.840  1.00  0.00     0.042 C 
HETATM   13  C   UNL     1     -41.160  54.951 -51.549  1.00  0.00     0.051 C 
HETATM   14  C   UNL     1     -41.309  55.751 -53.934  1.00  0.00     0.261 C 
HETATM   15  O   UNL     1     -40.225  56.191 -54.299  1.00  0.00    -0.270 OA
HETATM   16  H   UNL     1     -43.580  53.772 -52.662  1.00  0.00     0.165 HD
ENDROOT
BRANCH   1  17
HETATM   17  C   UNL     1     -42.693  57.592 -54.889  1.00  0.00     0.240 C 
BRANCH  17  18
HETATM   18  C   UNL     1     -42.718  57.562 -56.413  1.00  0.00     0.240 C 
HETATM   19  N   UNL     1     -41.952  58.540 -57.014  1.00  0.00    -0.323 N 
HETATM   20  H   UNL     1     -41.260  59.000 -56.422  1.00  0.00     0.169 HD
HETATM   21  O   UNL     1     -43.447  56.777 -57.017  1.00  0.00    -0.271 OA
BRANCH  19  22
HETATM   22  C   UNL     1     -41.992  58.987 -58.360  1.00  0.00     0.068 A 
HETATM   23  C   UNL     1     -41.906  58.193 -59.515  1.00  0.00     0.092 A 
HETATM   24  C   UNL     1     -42.049  58.757 -60.788  1.00  0.00     0.045 A 
HETATM   25  C   UNL     1     -42.269  60.127 -60.948  1.00  0.00    -0.059 A 
HETATM   26  C   UNL     1     -42.380  60.717 -62.322  1.00  0.00     0.048 C 
HETATM   27  C   UNL     1     -42.329  60.931 -59.809  1.00  0.00     0.009 A 
HETATM   28  C   UNL     1     -42.210  60.364 -58.534  1.00  0.00     0.033 A 
BRANCH  23  29
HETATM   29  O   UNL     1     -41.736  56.838 -59.533  1.00  0.00    -0.358 OA
HETATM   30  H   UNL     1     -41.473  56.574 -60.439  1.00  0.00     0.218 HD
ENDBRANCH  23  29
ENDBRANCH  19  22
ENDBRANCH  17  18
ENDBRANCH   1  17
TORSDOF 4
ENDMDL
