MODEL 1
REMARK VINA RESULT:      -8.5      0.000      0.000
REMARK  3 active torsions:
REMARK  status: ('A' for Active; 'I' for Inactive)
REMARK    1  A    between atoms: C_7  and  C_10 
REMARK    2  A    between atoms: C_10  and  N_11 
REMARK    3  A    between atoms: N_11  and  C_12 
ROOT
HETATM    1  C   UNL     1     -39.654  50.064 -54.455  1.00  0.00     0.002 A 
HETATM    2  C   UNL     1     -40.078  51.391 -54.338  1.00  0.00     0.033 A 
HETATM    3  C   UNL     1     -40.221  51.970 -53.062  1.00  0.00     0.075 A 
HETATM    4  C   UNL     1     -39.935  51.199 -51.938  1.00  0.00     0.035 A 
HETATM    5  S   UNL     1     -40.194  52.149 -50.532  1.00  0.00    -0.067 SA
HETATM    6  C   UNL     1     -40.666  53.513 -51.500  1.00  0.00     0.121 A 
HETATM    7  C   UNL     1     -41.047  54.760 -50.892  1.00  0.00     0.095 C 
HETATM    8  C   UNL     1     -41.055  54.938 -49.477  1.00  0.00     0.103 C 
HETATM    9  N   UNL     1     -41.073  55.117 -48.329  1.00  0.00    -0.191 NA
HETATM   10  N   UNL     1     -40.630  53.265 -52.800  1.00  0.00    -0.239 NA
HETATM   11  C   UNL     1     -39.508  49.866 -52.042  1.00  0.00     0.021 A 
HETATM   12  C   UNL     1     -39.372  49.312 -53.319  1.00  0.00     0.002 A 
ENDROOT
BRANCH   7  13
HETATM   13  C   UNL     1     -41.405  55.785 -51.695  1.00  0.00     0.114 C 
BRANCH  13  14
HETATM   14  N   UNL     1     -42.527  55.924 -52.486  1.00  0.00    -0.364 N 
HETATM   15  H   UNL     1     -43.413  56.047 -52.001  1.00  0.00     0.165 HD
BRANCH  14  16
HETATM   16  C   UNL     1     -42.627  55.934 -53.891  1.00  0.00     0.034 A 
HETATM   17  C   UNL     1     -42.459  57.082 -54.677  1.00  0.00     0.069 A 
HETATM   18  C   UNL     1     -42.563  57.019 -56.069  1.00  0.00     0.104 A 
HETATM   19  C   UNL     1     -42.867  55.812 -56.700  1.00  0.00     0.102 A 
HETATM   20  O   UNL     1     -42.361  58.193 -56.753  1.00  0.00    -0.346 OA
HETATM   21  O   UNL     1     -43.018  55.686 -58.056  1.00  0.00    -0.346 OA
HETATM   22  C   UNL     1     -43.023  54.660 -55.941  1.00  0.00     0.042 A 
HETATM   23  C   UNL     1     -43.173  56.965 -58.684  1.00  0.00     0.202 C 
HETATM   24  C   UNL     1     -42.150  57.952 -58.149  1.00  0.00     0.202 C 
HETATM   25  C   UNL     1     -42.904  54.723 -54.548  1.00  0.00     0.032 A 
ENDBRANCH  14  16
ENDBRANCH  13  14
ENDBRANCH   7  13
TORSDOF 3
ENDMDL
MODEL 2
REMARK VINA RESULT:      -8.1      1.229      2.047
REMARK  3 active torsions:
REMARK  status: ('A' for Active; 'I' for Inactive)
REMARK    1  A    between atoms: C_7  and  C_10 
REMARK    2  A    between atoms: C_10  and  N_11 
REMARK    3  A    between atoms: N_11  and  C_12 
ROOT
HETATM    1  C   UNL     1     -39.624  49.785 -53.934  1.00  0.00     0.002 A 
HETATM    2  C   UNL     1     -40.069  51.063 -54.283  1.00  0.00     0.033 A 
HETATM    3  C   UNL     1     -40.243  52.041 -53.283  1.00  0.00     0.075 A 
HETATM    4  C   UNL     1     -39.966  51.706 -51.960  1.00  0.00     0.035 A 
HETATM    5  S   UNL     1     -40.263  53.074 -50.966  1.00  0.00    -0.067 SA
HETATM    6  C   UNL     1     -40.737  54.015 -52.349  1.00  0.00     0.121 A 
HETATM    7  C   UNL     1     -41.147  55.388 -52.208  1.00  0.00     0.095 C 
HETATM    8  C   UNL     1     -41.183  56.038 -50.939  1.00  0.00     0.103 C 
HETATM    9  N   UNL     1     -41.224  56.598 -49.922  1.00  0.00    -0.191 NA
HETATM   10  N   UNL     1     -40.675  53.339 -53.485  1.00  0.00    -0.239 NA
HETATM   11  C   UNL     1     -39.517  50.426 -51.596  1.00  0.00     0.021 A 
HETATM   12  C   UNL     1     -39.351  49.472 -52.605  1.00  0.00     0.002 A 
ENDROOT
BRANCH   7  13
HETATM   13  C   UNL     1     -41.506  56.069 -53.318  1.00  0.00     0.114 C 
BRANCH  13  14
HETATM   14  N   UNL     1     -42.367  55.698 -54.329  1.00  0.00    -0.364 N 
HETATM   15  H   UNL     1     -42.964  54.894 -54.148  1.00  0.00     0.165 HD
BRANCH  14  16
HETATM   16  C   UNL     1     -42.557  56.288 -55.594  1.00  0.00     0.034 A 
HETATM   17  C   UNL     1     -42.885  55.569 -56.751  1.00  0.00     0.069 A 
HETATM   18  C   UNL     1     -43.067  56.221 -57.974  1.00  0.00     0.104 A 
HETATM   19  C   UNL     1     -42.894  57.602 -58.070  1.00  0.00     0.102 A 
HETATM   20  O   UNL     1     -43.407  55.432 -59.045  1.00  0.00    -0.346 OA
HETATM   21  O   UNL     1     -43.022  58.300 -59.242  1.00  0.00    -0.346 OA
HETATM   22  C   UNL     1     -42.582  58.336 -56.932  1.00  0.00     0.042 A 
HETATM   23  C   UNL     1     -43.002  57.422 -60.374  1.00  0.00     0.202 C 
HETATM   24  C   UNL     1     -43.898  56.219 -60.136  1.00  0.00     0.202 C 
HETATM   25  C   UNL     1     -42.415  57.683 -55.706  1.00  0.00     0.032 A 
ENDBRANCH  14  16
ENDBRANCH  13  14
ENDBRANCH   7  13
TORSDOF 3
ENDMDL
MODEL 3
REMARK VINA RESULT:      -8.0      3.773      7.467
REMARK  3 active torsions:
REMARK  status: ('A' for Active; 'I' for Inactive)
REMARK    1  A    between atoms: C_7  and  C_10 
REMARK    2  A    between atoms: C_10  and  N_11 
REMARK    3  A    between atoms: N_11  and  C_12 
ROOT
HETATM    1  C   UNL     1     -44.247  55.366 -59.757  1.00  0.00     0.002 A 
HETATM    2  C   UNL     1     -43.611  55.039 -58.555  1.00  0.00     0.033 A 
HETATM    3  C   UNL     1     -43.185  56.064 -57.687  1.00  0.00     0.075 A 
HETATM    4  C   UNL     1     -43.409  57.389 -58.051  1.00  0.00     0.035 A 
HETATM    5  S   UNL     1     -42.793  58.415 -56.820  1.00  0.00    -0.067 SA
HETATM    6  C   UNL     1     -42.273  57.042 -55.891  1.00  0.00     0.121 A 
HETATM    7  C   UNL     1     -41.615  57.209 -54.622  1.00  0.00     0.095 C 
HETATM    8  C   UNL     1     -41.361  58.499 -54.068  1.00  0.00     0.103 C 
HETATM    9  N   UNL     1     -41.138  59.533 -53.588  1.00  0.00    -0.191 NA
HETATM   10  N   UNL     1     -42.546  55.885 -56.473  1.00  0.00    -0.239 NA
HETATM   11  C   UNL     1     -44.047  57.731 -59.254  1.00  0.00     0.021 A 
HETATM   12  C   UNL     1     -44.462  56.698 -60.100  1.00  0.00     0.002 A 
ENDROOT
BRANCH   7  13
HETATM   13  C   UNL     1     -41.232  56.105 -53.945  1.00  0.00     0.114 C 
BRANCH  13  14
HETATM   14  N   UNL     1     -40.455  55.047 -54.369  1.00  0.00    -0.364 N 
HETATM   15  H   UNL     1     -39.914  55.191 -55.218  1.00  0.00     0.165 HD
BRANCH  14  16
HETATM   16  C   UNL     1     -40.285  53.779 -53.779  1.00  0.00     0.034 A 
HETATM   17  C   UNL     1     -40.280  53.555 -52.396  1.00  0.00     0.069 A 
HETATM   18  C   UNL     1     -40.115  52.267 -51.878  1.00  0.00     0.104 A 
HETATM   19  C   UNL     1     -39.923  51.181 -52.735  1.00  0.00     0.102 A 
HETATM   20  O   UNL     1     -40.144  52.146 -50.511  1.00  0.00    -0.346 OA
HETATM   21  O   UNL     1     -39.721  49.899 -52.295  1.00  0.00    -0.346 OA
HETATM   22  C   UNL     1     -39.940  51.380 -54.110  1.00  0.00     0.042 A 
HETATM   23  C   UNL     1     -39.387  49.873 -50.902  1.00  0.00     0.202 C 
HETATM   24  C   UNL     1     -40.313  50.781 -50.112  1.00  0.00     0.202 C 
HETATM   25  C   UNL     1     -40.119  52.668 -54.625  1.00  0.00     0.032 A 
ENDBRANCH  14  16
ENDBRANCH  13  14
ENDBRANCH   7  13
TORSDOF 3
ENDMDL
MODEL 4
REMARK VINA RESULT:      -7.9      3.244      6.881
REMARK  3 active torsions:
REMARK  status: ('A' for Active; 'I' for Inactive)
REMARK    1  A    between atoms: C_7  and  C_10 
REMARK    2  A    between atoms: C_10  and  N_11 
REMARK    3  A    between atoms: N_11  and  C_12 
ROOT
HETATM    1  C   UNL     1     -42.802  55.845 -59.556  1.00  0.00     0.002 A 
HETATM    2  C   UNL     1     -43.237  55.692 -58.236  1.00  0.00     0.033 A 
HETATM    3  C   UNL     1     -43.048  56.740 -57.312  1.00  0.00     0.075 A 
HETATM    4  C   UNL     1     -42.428  57.910 -57.741  1.00  0.00     0.035 A 
HETATM    5  S   UNL     1     -42.330  59.003 -56.421  1.00  0.00    -0.067 SA
HETATM    6  C   UNL     1     -43.112  57.858 -55.373  1.00  0.00     0.121 A 
HETATM    7  C   UNL     1     -43.367  58.168 -53.991  1.00  0.00     0.095 C 
HETATM    8  C   UNL     1     -42.994  59.420 -53.417  1.00  0.00     0.103 C 
HETATM    9  N   UNL     1     -42.703  60.428 -52.919  1.00  0.00    -0.191 NA
HETATM   10  N   UNL     1     -43.425  56.725 -55.982  1.00  0.00    -0.239 NA
HETATM   11  C   UNL     1     -41.988  58.076 -59.064  1.00  0.00     0.021 A 
HETATM   12  C   UNL     1     -42.186  57.024 -59.963  1.00  0.00     0.002 A 
ENDROOT
BRANCH   7  13
HETATM   13  C   UNL     1     -43.978  57.239 -53.225  1.00  0.00     0.114 C 
BRANCH  13  14
HETATM   14  N   UNL     1     -43.881  55.863 -53.278  1.00  0.00    -0.364 N 
HETATM   15  H   UNL     1     -44.683  55.365 -53.656  1.00  0.00     0.165 HD
BRANCH  14  16
HETATM   16  C   UNL     1     -42.810  55.034 -52.891  1.00  0.00     0.034 A 
HETATM   17  C   UNL     1     -42.349  53.950 -53.649  1.00  0.00     0.069 A 
HETATM   18  C   UNL     1     -41.274  53.172 -53.208  1.00  0.00     0.104 A 
HETATM   19  C   UNL     1     -40.658  53.447 -51.986  1.00  0.00     0.102 A 
HETATM   20  O   UNL     1     -40.882  52.145 -54.030  1.00  0.00    -0.346 OA
HETATM   21  O   UNL     1     -39.623  52.706 -51.478  1.00  0.00    -0.346 OA
HETATM   22  C   UNL     1     -41.090  54.527 -51.227  1.00  0.00     0.042 A 
HETATM   23  C   UNL     1     -39.497  51.453 -52.160  1.00  0.00     0.202 C 
HETATM   24  C   UNL     1     -39.589  51.648 -53.663  1.00  0.00     0.202 C 
HETATM   25  C   UNL     1     -42.157  55.312 -51.677  1.00  0.00     0.032 A 
ENDBRANCH  14  16
ENDBRANCH  13  14
ENDBRANCH   7  13
TORSDOF 3
ENDMDL
MODEL 5
REMARK VINA RESULT:      -7.7      3.295      7.102
REMARK  3 active torsions:
REMARK  status: ('A' for Active; 'I' for Inactive)
REMARK    1  A    between atoms: C_7  and  C_10 
REMARK    2  A    between atoms: C_10  and  N_11 
REMARK    3  A    between atoms: N_11  and  C_12 
ROOT
HETATM    1  C   UNL     1     -43.214  55.822 -59.571  1.00  0.00     0.002 A 
HETATM    2  C   UNL     1     -42.939  55.429 -58.257  1.00  0.00     0.033 A 
HETATM    3  C   UNL     1     -43.406  56.211 -57.181  1.00  0.00     0.075 A 
HETATM    4  C   UNL     1     -44.135  57.364 -57.455  1.00  0.00     0.035 A 
HETATM    5  S   UNL     1     -44.572  58.112 -55.973  1.00  0.00    -0.067 SA
HETATM    6  C   UNL     1     -43.770  56.862 -55.070  1.00  0.00     0.121 A 
HETATM    7  C   UNL     1     -43.751  56.880 -53.631  1.00  0.00     0.095 C 
HETATM    8  C   UNL     1     -44.385  57.915 -52.881  1.00  0.00     0.103 C 
HETATM    9  N   UNL     1     -44.890  58.741 -52.239  1.00  0.00    -0.191 NA
HETATM   10  N   UNL     1     -43.209  55.942 -55.839  1.00  0.00    -0.239 NA
HETATM   11  C   UNL     1     -44.418  57.770 -58.770  1.00  0.00     0.021 A 
HETATM   12  C   UNL     1     -43.945  56.979 -59.822  1.00  0.00     0.002 A 
ENDROOT
BRANCH   7  13
HETATM   13  C   UNL     1     -43.111  55.882 -52.983  1.00  0.00     0.114 C 
BRANCH  13  14
HETATM   14  N   UNL     1     -41.768  55.568 -52.974  1.00  0.00    -0.364 N 
HETATM   15  H   UNL     1     -41.119  56.338 -53.122  1.00  0.00     0.165 HD
BRANCH  14  16
HETATM   16  C   UNL     1     -41.151  54.318 -52.773  1.00  0.00     0.034 A 
HETATM   17  C   UNL     1     -41.126  53.296 -53.731  1.00  0.00     0.069 A 
HETATM   18  C   UNL     1     -40.488  52.080 -53.468  1.00  0.00     0.104 A 
HETATM   19  C   UNL     1     -39.888  51.853 -52.228  1.00  0.00     0.102 A 
HETATM   20  O   UNL     1     -40.499  51.149 -54.477  1.00  0.00    -0.346 OA
HETATM   21  O   UNL     1     -39.276  50.674 -51.891  1.00  0.00    -0.346 OA
HETATM   22  C   UNL     1     -39.888  52.858 -51.270  1.00  0.00     0.042 A 
HETATM   23  C   UNL     1     -39.630  49.625 -52.800  1.00  0.00     0.202 C 
HETATM   24  C   UNL     1     -39.545  50.109 -54.237  1.00  0.00     0.202 C 
HETATM   25  C   UNL     1     -40.515  54.079 -51.541  1.00  0.00     0.032 A 
ENDBRANCH  14  16
ENDBRANCH  13  14
ENDBRANCH   7  13
TORSDOF 3
ENDMDL
MODEL 6
REMARK VINA RESULT:      -7.7      2.198      3.327
REMARK  3 active torsions:
REMARK  status: ('A' for Active; 'I' for Inactive)
REMARK    1  A    between atoms: C_7  and  C_10 
REMARK    2  A    between atoms: C_10  and  N_11 
REMARK    3  A    between atoms: N_11  and  C_12 
ROOT
HETATM    1  C   UNL     1     -39.613  51.185 -53.432  1.00  0.00     0.002 A 
HETATM    2  C   UNL     1     -40.515  51.951 -54.176  1.00  0.00     0.033 A 
HETATM    3  C   UNL     1     -41.121  53.081 -53.592  1.00  0.00     0.075 A 
HETATM    4  C   UNL     1     -40.803  53.410 -52.277  1.00  0.00     0.035 A 
HETATM    5  S   UNL     1     -41.678  54.817 -51.828  1.00  0.00    -0.067 SA
HETATM    6  C   UNL     1     -42.417  54.898 -53.399  1.00  0.00     0.121 A 
HETATM    7  C   UNL     1     -43.351  55.942 -53.728  1.00  0.00     0.095 C 
HETATM    8  C   UNL     1     -43.713  56.954 -52.791  1.00  0.00     0.103 C 
HETATM    9  N   UNL     1     -44.030  57.793 -52.052  1.00  0.00    -0.191 NA
HETATM   10  N   UNL     1     -42.028  53.925 -54.208  1.00  0.00    -0.239 NA
HETATM   11  C   UNL     1     -39.898  52.649 -51.520  1.00  0.00     0.021 A 
HETATM   12  C   UNL     1     -39.308  51.532 -52.120  1.00  0.00     0.002 A 
ENDROOT
BRANCH   7  13
HETATM   13  C   UNL     1     -43.894  55.953 -54.965  1.00  0.00     0.114 C 
BRANCH  13  14
HETATM   14  N   UNL     1     -43.318  55.623 -56.175  1.00  0.00    -0.364 N 
HETATM   15  H   UNL     1     -43.080  54.644 -56.313  1.00  0.00     0.165 HD
BRANCH  14  16
HETATM   16  C   UNL     1     -43.018  56.456 -57.271  1.00  0.00     0.034 A 
HETATM   17  C   UNL     1     -42.776  57.831 -57.163  1.00  0.00     0.069 A 
HETATM   18  C   UNL     1     -42.476  58.598 -58.293  1.00  0.00     0.104 A 
HETATM   19  C   UNL     1     -42.442  58.007 -59.557  1.00  0.00     0.102 A 
HETATM   20  O   UNL     1     -42.233  59.933 -58.082  1.00  0.00    -0.346 OA
HETATM   21  O   UNL     1     -42.188  58.704 -60.709  1.00  0.00    -0.346 OA
HETATM   22  C   UNL     1     -42.664  56.642 -59.684  1.00  0.00     0.042 A 
HETATM   23  C   UNL     1     -42.314  60.116 -60.502  1.00  0.00     0.202 C 
HETATM   24  C   UNL     1     -41.610  60.535 -59.223  1.00  0.00     0.202 C 
HETATM   25  C   UNL     1     -42.950  55.875 -58.549  1.00  0.00     0.032 A 
ENDBRANCH  14  16
ENDBRANCH  13  14
ENDBRANCH   7  13
TORSDOF 3
ENDMDL
MODEL 7
REMARK VINA RESULT:      -7.7      2.148      2.999
REMARK  3 active torsions:
REMARK  status: ('A' for Active; 'I' for Inactive)
REMARK    1  A    between atoms: C_7  and  C_10 
REMARK    2  A    between atoms: C_10  and  N_11 
REMARK    3  A    between atoms: N_11  and  C_12 
ROOT
HETATM    1  C   UNL     1     -39.647  49.857 -53.541  1.00  0.00     0.002 A 
HETATM    2  C   UNL     1     -40.036  50.945 -54.329  1.00  0.00     0.033 A 
HETATM    3  C   UNL     1     -40.285  52.193 -53.724  1.00  0.00     0.075 A 
HETATM    4  C   UNL     1     -40.135  52.314 -52.345  1.00  0.00     0.035 A 
HETATM    5  S   UNL     1     -40.498  53.927 -51.885  1.00  0.00    -0.067 SA
HETATM    6  C   UNL     1     -40.829  54.358 -53.536  1.00  0.00     0.121 A 
HETATM    7  C   UNL     1     -41.226  55.695 -53.890  1.00  0.00     0.095 C 
HETATM    8  C   UNL     1     -41.367  56.724 -52.913  1.00  0.00     0.103 C 
HETATM    9  N   UNL     1     -41.491  57.586 -52.143  1.00  0.00    -0.191 NA
HETATM   10  N   UNL     1     -40.675  53.348 -54.378  1.00  0.00    -0.239 NA
HETATM   11  C   UNL     1     -39.743  51.230 -51.543  1.00  0.00     0.021 A 
HETATM   12  C   UNL     1     -39.502  50.001 -52.164  1.00  0.00     0.002 A 
ENDROOT
BRANCH   7  13
HETATM   13  C   UNL     1     -41.470  55.971 -55.190  1.00  0.00     0.114 C 
BRANCH  13  14
HETATM   14  N   UNL     1     -42.329  56.902 -55.738  1.00  0.00    -0.364 N 
HETATM   15  H   UNL     1     -42.383  57.803 -55.269  1.00  0.00     0.165 HD
BRANCH  14  16
HETATM   16  C   UNL     1     -43.144  56.791 -56.881  1.00  0.00     0.034 A 
HETATM   17  C   UNL     1     -44.202  57.663 -57.173  1.00  0.00     0.069 A 
HETATM   18  C   UNL     1     -44.967  57.499 -58.332  1.00  0.00     0.104 A 
HETATM   19  C   UNL     1     -44.707  56.442 -59.206  1.00  0.00     0.102 A 
HETATM   20  O   UNL     1     -45.967  58.416 -58.541  1.00  0.00    -0.346 OA
HETATM   21  O   UNL     1     -45.438  56.203 -60.340  1.00  0.00    -0.346 OA
HETATM   22  C   UNL     1     -43.654  55.576 -58.942  1.00  0.00     0.042 A 
HETATM   23  C   UNL     1     -46.673  56.929 -60.325  1.00  0.00     0.202 C 
HETATM   24  C   UNL     1     -46.446  58.366 -59.890  1.00  0.00     0.202 C 
HETATM   25  C   UNL     1     -42.881  55.750 -57.789  1.00  0.00     0.032 A 
ENDBRANCH  14  16
ENDBRANCH  13  14
ENDBRANCH   7  13
TORSDOF 3
ENDMDL
MODEL 8
REMARK VINA RESULT:      -7.7      4.241      8.745
REMARK  3 active torsions:
REMARK  status: ('A' for Active; 'I' for Inactive)
REMARK    1  A    between atoms: C_7  and  C_10 
REMARK    2  A    between atoms: C_10  and  N_11 
REMARK    3  A    between atoms: N_11  and  C_12 
ROOT
HETATM    1  C   UNL     1     -41.005  61.837 -58.968  1.00  0.00     0.002 A 
HETATM    2  C   UNL     1     -41.212  60.750 -58.112  1.00  0.00     0.033 A 
HETATM    3  C   UNL     1     -41.841  59.587 -58.598  1.00  0.00     0.075 A 
HETATM    4  C   UNL     1     -42.244  59.547 -59.930  1.00  0.00     0.035 A 
HETATM    5  S   UNL     1     -42.974  58.025 -60.245  1.00  0.00    -0.067 SA
HETATM    6  C   UNL     1     -42.707  57.522 -58.603  1.00  0.00     0.121 A 
HETATM    7  C   UNL     1     -43.120  56.220 -58.149  1.00  0.00     0.095 C 
HETATM    8  C   UNL     1     -43.762  55.287 -59.016  1.00  0.00     0.103 C 
HETATM    9  N   UNL     1     -44.287  54.503 -59.694  1.00  0.00    -0.191 NA
HETATM   10  N   UNL     1     -42.108  58.443 -57.867  1.00  0.00    -0.239 NA
HETATM   11  C   UNL     1     -42.042  60.631 -60.800  1.00  0.00     0.021 A 
HETATM   12  C   UNL     1     -41.416  61.775 -60.296  1.00  0.00     0.002 A 
ENDROOT
BRANCH   7  13
HETATM   13  C   UNL     1     -42.887  55.884 -56.862  1.00  0.00     0.114 C 
BRANCH  13  14
HETATM   14  N   UNL     1     -41.699  55.885 -56.161  1.00  0.00    -0.364 N 
HETATM   15  H   UNL     1     -40.990  56.547 -56.467  1.00  0.00     0.165 HD
BRANCH  14  16
HETATM   16  C   UNL     1     -41.322  55.099 -55.054  1.00  0.00     0.034 A 
HETATM   17  C   UNL     1     -41.621  55.428 -53.725  1.00  0.00     0.069 A 
HETATM   18  C   UNL     1     -41.222  54.597 -52.673  1.00  0.00     0.104 A 
HETATM   19  C   UNL     1     -40.491  53.436 -52.930  1.00  0.00     0.102 A 
HETATM   20  O   UNL     1     -41.580  54.994 -51.408  1.00  0.00    -0.346 OA
HETATM   21  O   UNL     1     -40.040  52.596 -51.946  1.00  0.00    -0.346 OA
HETATM   22  C   UNL     1     -40.197  53.085 -54.241  1.00  0.00     0.042 A 
HETATM   23  C   UNL     1     -40.101  53.221 -50.659  1.00  0.00     0.202 C 
HETATM   24  C   UNL     1     -41.433  53.925 -50.466  1.00  0.00     0.202 C 
HETATM   25  C   UNL     1     -40.610  53.911 -55.292  1.00  0.00     0.032 A 
ENDBRANCH  14  16
ENDBRANCH  13  14
ENDBRANCH   7  13
TORSDOF 3
ENDMDL
MODEL 9
REMARK VINA RESULT:      -7.6     13.870     15.766
REMARK  3 active torsions:
REMARK  status: ('A' for Active; 'I' for Inactive)
REMARK    1  A    between atoms: C_7  and  C_10 
REMARK    2  A    between atoms: C_10  and  N_11 
REMARK    3  A    between atoms: N_11  and  C_12 
ROOT
HETATM    1  C   UNL     1     -30.650  39.305 -56.370  1.00  0.00     0.002 A 
HETATM    2  C   UNL     1     -31.744  40.150 -56.576  1.00  0.00     0.033 A 
HETATM    3  C   UNL     1     -32.755  40.238 -55.598  1.00  0.00     0.075 A 
HETATM    4  C   UNL     1     -32.637  39.474 -54.440  1.00  0.00     0.035 A 
HETATM    5  S   UNL     1     -33.995  39.775 -53.434  1.00  0.00    -0.067 SA
HETATM    6  C   UNL     1     -34.647  40.893 -54.594  1.00  0.00     0.121 A 
HETATM    7  C   UNL     1     -35.892  41.573 -54.353  1.00  0.00     0.095 C 
HETATM    8  C   UNL     1     -36.646  41.366 -53.160  1.00  0.00     0.103 C 
HETATM    9  N   UNL     1     -37.285  41.220 -52.201  1.00  0.00    -0.191 NA
HETATM   10  N   UNL     1     -33.888  41.028 -55.670  1.00  0.00    -0.239 NA
HETATM   11  C   UNL     1     -31.542  38.622 -54.220  1.00  0.00     0.021 A 
HETATM   12  C   UNL     1     -30.551  38.551 -55.204  1.00  0.00     0.002 A 
ENDROOT
BRANCH   7  13
HETATM   13  C   UNL     1     -36.350  42.430 -55.292  1.00  0.00     0.114 C 
BRANCH  13  14
HETATM   14  N   UNL     1     -37.432  42.301 -56.137  1.00  0.00    -0.364 N 
HETATM   15  H   UNL     1     -38.287  42.777 -55.858  1.00  0.00     0.165 HD
BRANCH  14  16
HETATM   16  C   UNL     1     -37.525  41.607 -57.360  1.00  0.00     0.034 A 
HETATM   17  C   UNL     1     -38.036  40.309 -57.484  1.00  0.00     0.069 A 
HETATM   18  C   UNL     1     -38.106  39.681 -58.731  1.00  0.00     0.104 A 
HETATM   19  C   UNL     1     -37.639  40.331 -59.875  1.00  0.00     0.102 A 
HETATM   20  O   UNL     1     -38.642  38.417 -58.753  1.00  0.00    -0.346 OA
HETATM   21  O   UNL     1     -37.646  39.763 -61.122  1.00  0.00    -0.346 OA
HETATM   22  C   UNL     1     -37.142  41.624 -59.776  1.00  0.00     0.042 A 
HETATM   23  C   UNL     1     -37.851  38.347 -61.047  1.00  0.00     0.202 C 
HETATM   24  C   UNL     1     -38.981  38.018 -60.087  1.00  0.00     0.202 C 
HETATM   25  C   UNL     1     -37.085  42.254 -58.528  1.00  0.00     0.032 A 
ENDBRANCH  14  16
ENDBRANCH  13  14
ENDBRANCH   7  13
TORSDOF 3
ENDMDL
MODEL 10
REMARK VINA RESULT:      -7.5      4.072      5.412
REMARK  3 active torsions:
REMARK  status: ('A' for Active; 'I' for Inactive)
REMARK    1  A    between atoms: C_7  and  C_10 
REMARK    2  A    between atoms: C_10  and  N_11 
REMARK    3  A    between atoms: N_11  and  C_12 
ROOT
HETATM    1  C   UNL     1     -39.462  50.155 -51.730  1.00  0.00     0.002 A 
HETATM    2  C   UNL     1     -39.783  51.458 -51.338  1.00  0.00     0.033 A 
HETATM    3  C   UNL     1     -40.211  52.394 -52.301  1.00  0.00     0.075 A 
HETATM    4  C   UNL     1     -40.304  51.994 -53.631  1.00  0.00     0.035 A 
HETATM    5  S   UNL     1     -40.845  53.322 -54.575  1.00  0.00    -0.067 SA
HETATM    6  C   UNL     1     -40.919  54.335 -53.165  1.00  0.00     0.121 A 
HETATM    7  C   UNL     1     -41.339  55.708 -53.258  1.00  0.00     0.095 C 
HETATM    8  C   UNL     1     -41.711  56.301 -54.500  1.00  0.00     0.103 C 
HETATM    9  N   UNL     1     -42.021  56.815 -55.495  1.00  0.00    -0.191 NA
HETATM   10  N   UNL     1     -40.559  53.710 -52.055  1.00  0.00    -0.239 NA
HETATM   11  C   UNL     1     -39.986  50.688 -54.038  1.00  0.00     0.021 A 
HETATM   12  C   UNL     1     -39.563  49.776 -53.065  1.00  0.00     0.002 A 
ENDROOT
BRANCH   7  13
HETATM   13  C   UNL     1     -41.376  56.448 -52.128  1.00  0.00     0.114 C 
BRANCH  13  14
HETATM   14  N   UNL     1     -41.531  57.811 -51.982  1.00  0.00    -0.364 N 
HETATM   15  H   UNL     1     -40.743  58.391 -52.262  1.00  0.00     0.165 HD
BRANCH  14  16
HETATM   16  C   UNL     1     -42.644  58.531 -51.506  1.00  0.00     0.034 A 
HETATM   17  C   UNL     1     -42.582  59.856 -51.054  1.00  0.00     0.069 A 
HETATM   18  C   UNL     1     -43.730  60.514 -50.603  1.00  0.00     0.104 A 
HETATM   19  C   UNL     1     -44.956  59.849 -50.567  1.00  0.00     0.102 A 
HETATM   20  O   UNL     1     -43.571  61.817 -50.200  1.00  0.00    -0.346 OA
HETATM   21  O   UNL     1     -46.112  60.422 -50.105  1.00  0.00    -0.346 OA
HETATM   22  C   UNL     1     -45.042  58.541 -51.024  1.00  0.00     0.042 A 
HETATM   23  C   UNL     1     -45.840  61.616 -49.361  1.00  0.00     0.202 C 
HETATM   24  C   UNL     1     -44.833  62.486 -50.092  1.00  0.00     0.202 C 
HETATM   25  C   UNL     1     -43.895  57.889 -51.489  1.00  0.00     0.032 A 
ENDBRANCH  14  16
ENDBRANCH  13  14
ENDBRANCH   7  13
TORSDOF 3
ENDMDL
