MODEL 1
REMARK VINA RESULT:      -8.9      0.000      0.000
REMARK  5 active torsions:
REMARK  status: ('A' for Active; 'I' for Inactive)
REMARK    1  A    between atoms: C_8  and  N_9 
REMARK       I    between atoms: N_9  and  C_10 
REMARK    2  A    between atoms: C_10  and  C_11 
REMARK    3  A    between atoms: C_11  and  C_12 
REMARK    4  A    between atoms: C_14  and  N_15 
REMARK       I    between atoms: N_15  and  C_16 
REMARK       I    between atoms: C_16  and  N_17 
REMARK    5  A    between atoms: N_17  and  C_18 
ROOT
HETATM    1  C   UNL     1     -41.455  56.719 -51.652  1.00  0.00     0.052 A 
HETATM    2  N   UNL     1     -41.569  56.244 -52.951  1.00  0.00    -0.228 NA
HETATM    3  C   UNL     1     -41.436  57.231 -53.799  1.00  0.00     0.174 A 
HETATM    4  S   UNL     1     -41.168  58.776 -53.125  1.00  0.00    -0.062 SA
HETATM    5  C   UNL     1     -41.233  58.082 -51.557  1.00  0.00     0.081 A 
ENDROOT
BRANCH   1   6
HETATM    6  C   UNL     1     -41.611  55.752 -50.529  1.00  0.00     0.163 C 
BRANCH   6   7
HETATM    7  C   UNL     1     -40.631  54.591 -50.603  1.00  0.00     0.227 C 
HETATM    8  N   UNL     1     -40.972  53.633 -51.545  1.00  0.00    -0.326 N 
HETATM    9  H   UNL     1     -41.671  53.931 -52.226  1.00  0.00     0.169 HD
HETATM   10  O   UNL     1     -39.677  54.541 -49.828  1.00  0.00    -0.273 OA
BRANCH   8  11
HETATM   11  C   UNL     1     -40.415  52.338 -51.707  1.00  0.00     0.042 A 
HETATM   12  C   UNL     1     -40.127  51.859 -53.009  1.00  0.00    -0.014 A 
HETATM   13  C   UNL     1     -40.317  52.743 -54.215  1.00  0.00     0.052 C 
HETATM   14  C   UNL     1     -39.692  50.525 -53.161  1.00  0.00     0.042 A 
HETATM   15 CL   UNL     1     -39.393  49.815 -54.712  1.00  0.00    -0.084 Cl
HETATM   16  C   UNL     1     -39.499  49.700 -52.050  1.00  0.00     0.024 A 
HETATM   17  C   UNL     1     -39.744  50.188 -50.775  1.00  0.00     0.004 A 
HETATM   18  C   UNL     1     -40.204  51.494 -50.607  1.00  0.00     0.030 A 
ENDBRANCH   8  11
ENDBRANCH   6   7
ENDBRANCH   1   6
BRANCH   3  19
HETATM   19  N   UNL     1     -41.434  57.208 -55.165  1.00  0.00    -0.287 N 
HETATM   20  C   UNL     1     -42.598  57.080 -55.895  1.00  0.00     0.326 C 
HETATM   21  N   UNL     1     -42.315  56.805 -57.226  1.00  0.00    -0.309 N 
HETATM   22  O   UNL     1     -43.725  57.162 -55.425  1.00  0.00    -0.247 OA
HETATM   23  H   UNL     1     -41.352  56.891 -57.512  1.00  0.00     0.170 HD
HETATM   24  H   UNL     1     -40.538  57.270 -55.614  1.00  0.00     0.172 HD
BRANCH  21  25
HETATM   25  C   UNL     1     -43.220  56.391 -58.227  1.00  0.00     0.036 A 
HETATM   26  C   UNL     1     -43.468  55.055 -58.557  1.00  0.00     0.032 A 
HETATM   27  C   UNL     1     -44.342  54.732 -59.600  1.00  0.00     0.044 A 
HETATM   28  C   UNL     1     -44.969  55.744 -60.312  1.00  0.00     0.116 A 
HETATM   29  F   UNL     1     -45.799  55.434 -61.316  1.00  0.00    -0.206 F 
HETATM   30  C   UNL     1     -44.744  57.078 -59.997  1.00  0.00     0.044 A 
HETATM   31  C   UNL     1     -43.870  57.401 -58.955  1.00  0.00     0.032 A 
ENDBRANCH  21  25
ENDBRANCH   3  19
TORSDOF 5
ENDMDL
MODEL 2
REMARK VINA RESULT:      -8.7      1.289      1.841
REMARK  5 active torsions:
REMARK  status: ('A' for Active; 'I' for Inactive)
REMARK    1  A    between atoms: C_8  and  N_9 
REMARK       I    between atoms: N_9  and  C_10 
REMARK    2  A    between atoms: C_10  and  C_11 
REMARK    3  A    between atoms: C_11  and  C_12 
REMARK    4  A    between atoms: C_14  and  N_15 
REMARK       I    between atoms: N_15  and  C_16 
REMARK       I    between atoms: C_16  and  N_17 
REMARK    5  A    between atoms: N_17  and  C_18 
ROOT
HETATM    1  C   UNL     1     -42.097  57.311 -51.906  1.00  0.00     0.052 A 
HETATM    2  N   UNL     1     -42.189  56.811 -53.196  1.00  0.00    -0.228 NA
HETATM    3  C   UNL     1     -41.858  57.739 -54.057  1.00  0.00     0.174 A 
HETATM    4  S   UNL     1     -41.416  59.253 -53.405  1.00  0.00    -0.062 SA
HETATM    5  C   UNL     1     -41.688  58.630 -51.829  1.00  0.00     0.081 A 
ENDROOT
BRANCH   1   6
HETATM    6  C   UNL     1     -42.468  56.417 -50.772  1.00  0.00     0.163 C 
BRANCH   6   7
HETATM    7  C   UNL     1     -42.296  54.941 -51.098  1.00  0.00     0.227 C 
HETATM    8  N   UNL     1     -41.033  54.615 -51.566  1.00  0.00    -0.326 N 
HETATM    9  H   UNL     1     -40.319  55.328 -51.404  1.00  0.00     0.169 HD
HETATM   10  O   UNL     1     -43.250  54.172 -50.987  1.00  0.00    -0.273 OA
BRANCH   8  11
HETATM   11  C   UNL     1     -40.615  53.400 -52.168  1.00  0.00     0.042 A 
HETATM   12  C   UNL     1     -40.253  52.303 -51.348  1.00  0.00    -0.014 A 
HETATM   13  C   UNL     1     -40.392  52.381 -49.849  1.00  0.00     0.052 C 
HETATM   14  C   UNL     1     -39.721  51.147 -51.959  1.00  0.00     0.042 A 
HETATM   15 CL   UNL     1     -39.169  49.783 -51.045  1.00  0.00    -0.084 Cl
HETATM   16  C   UNL     1     -39.599  51.057 -53.347  1.00  0.00     0.024 A 
HETATM   17  C   UNL     1     -39.995  52.120 -54.147  1.00  0.00     0.004 A 
HETATM   18  C   UNL     1     -40.493  53.283 -53.560  1.00  0.00     0.030 A 
ENDBRANCH   8  11
ENDBRANCH   6   7
ENDBRANCH   1   6
BRANCH   3  19
HETATM   19  N   UNL     1     -41.765  57.667 -55.419  1.00  0.00    -0.287 N 
HETATM   20  C   UNL     1     -42.859  57.389 -56.211  1.00  0.00     0.326 C 
HETATM   21  N   UNL     1     -42.465  57.099 -57.510  1.00  0.00    -0.309 N 
HETATM   22  O   UNL     1     -44.017  57.367 -55.814  1.00  0.00    -0.247 OA
HETATM   23  H   UNL     1     -41.500  57.277 -57.741  1.00  0.00     0.170 HD
HETATM   24  H   UNL     1     -40.853  57.808 -55.815  1.00  0.00     0.172 HD
BRANCH  21  25
HETATM   25  C   UNL     1     -43.255  56.555 -58.545  1.00  0.00     0.036 A 
HETATM   26  C   UNL     1     -43.536  55.192 -58.685  1.00  0.00     0.032 A 
HETATM   27  C   UNL     1     -44.285  54.729 -59.772  1.00  0.00     0.044 A 
HETATM   28  C   UNL     1     -44.755  55.629 -60.717  1.00  0.00     0.116 A 
HETATM   29  F   UNL     1     -45.464  55.185 -61.762  1.00  0.00    -0.206 F 
HETATM   30  C   UNL     1     -44.495  56.988 -60.595  1.00  0.00     0.044 A 
HETATM   31  C   UNL     1     -43.745  57.450 -59.509  1.00  0.00     0.032 A 
ENDBRANCH  21  25
ENDBRANCH   3  19
TORSDOF 5
ENDMDL
MODEL 3
REMARK VINA RESULT:      -8.4      2.103      2.435
REMARK  5 active torsions:
REMARK  status: ('A' for Active; 'I' for Inactive)
REMARK    1  A    between atoms: C_8  and  N_9 
REMARK       I    between atoms: N_9  and  C_10 
REMARK    2  A    between atoms: C_10  and  C_11 
REMARK    3  A    between atoms: C_11  and  C_12 
REMARK    4  A    between atoms: C_14  and  N_15 
REMARK       I    between atoms: N_15  and  C_16 
REMARK       I    between atoms: C_16  and  N_17 
REMARK    5  A    between atoms: N_17  and  C_18 
ROOT
HETATM    1  C   UNL     1     -42.601  56.267 -52.444  1.00  0.00     0.052 A 
HETATM    2  N   UNL     1     -42.474  55.880 -53.770  1.00  0.00    -0.228 NA
HETATM    3  C   UNL     1     -43.426  56.424 -54.485  1.00  0.00     0.174 A 
HETATM    4  S   UNL     1     -44.526  57.423 -53.646  1.00  0.00    -0.062 SA
HETATM    5  C   UNL     1     -43.668  57.111 -52.192  1.00  0.00     0.081 A 
ENDROOT
BRANCH   1   6
HETATM    6  C   UNL     1     -41.629  55.725 -51.453  1.00  0.00     0.163 C 
BRANCH   6   7
HETATM    7  C   UNL     1     -41.624  54.206 -51.393  1.00  0.00     0.227 C 
HETATM    8  N   UNL     1     -40.366  53.644 -51.552  1.00  0.00    -0.326 N 
HETATM    9  H   UNL     1     -39.589  54.297 -51.442  1.00  0.00     0.169 HD
HETATM   10  O   UNL     1     -42.683  53.592 -51.270  1.00  0.00    -0.273 OA
BRANCH   8  11
HETATM   11  C   UNL     1     -40.046  52.280 -51.776  1.00  0.00     0.042 A 
HETATM   12  C   UNL     1     -39.944  51.795 -53.103  1.00  0.00    -0.014 A 
HETATM   13  C   UNL     1     -40.081  52.728 -54.278  1.00  0.00     0.052 C 
HETATM   14  C   UNL     1     -39.749  50.412 -53.306  1.00  0.00     0.042 A 
HETATM   15 CL   UNL     1     -39.694  49.703 -54.885  1.00  0.00    -0.084 Cl
HETATM   16  C   UNL     1     -39.606  49.538 -52.225  1.00  0.00     0.024 A 
HETATM   17  C   UNL     1     -39.666  50.027 -50.928  1.00  0.00     0.004 A 
HETATM   18  C   UNL     1     -39.889  51.385 -50.707  1.00  0.00     0.030 A 
ENDBRANCH   8  11
ENDBRANCH   6   7
ENDBRANCH   1   6
BRANCH   3  19
HETATM   19  N   UNL     1     -43.651  56.351 -55.831  1.00  0.00    -0.287 N 
HETATM   20  C   UNL     1     -43.070  57.233 -56.717  1.00  0.00     0.326 C 
HETATM   21  N   UNL     1     -43.661  57.133 -57.970  1.00  0.00    -0.309 N 
HETATM   22  O   UNL     1     -42.179  58.022 -56.429  1.00  0.00    -0.247 OA
HETATM   23  H   UNL     1     -44.291  56.360 -58.113  1.00  0.00     0.170 HD
HETATM   24  H   UNL     1     -44.279  55.632 -56.143  1.00  0.00     0.172 HD
BRANCH  21  25
HETATM   25  C   UNL     1     -43.501  58.008 -59.066  1.00  0.00     0.036 A 
HETATM   26  C   UNL     1     -42.265  58.344 -59.627  1.00  0.00     0.032 A 
HETATM   27  C   UNL     1     -42.190  59.263 -60.680  1.00  0.00     0.044 A 
HETATM   28  C   UNL     1     -43.350  59.841 -61.173  1.00  0.00     0.116 A 
HETATM   29  F   UNL     1     -43.277  60.726 -62.175  1.00  0.00    -0.206 F 
HETATM   30  C   UNL     1     -44.589  59.515 -60.637  1.00  0.00     0.044 A 
HETATM   31  C   UNL     1     -44.664  58.599 -59.583  1.00  0.00     0.032 A 
ENDBRANCH  21  25
ENDBRANCH   3  19
TORSDOF 5
ENDMDL
MODEL 4
REMARK VINA RESULT:      -8.3      3.692      8.220
REMARK  5 active torsions:
REMARK  status: ('A' for Active; 'I' for Inactive)
REMARK    1  A    between atoms: C_8  and  N_9 
REMARK       I    between atoms: N_9  and  C_10 
REMARK    2  A    between atoms: C_10  and  C_11 
REMARK    3  A    between atoms: C_11  and  C_12 
REMARK    4  A    between atoms: C_14  and  N_15 
REMARK       I    between atoms: N_15  and  C_16 
REMARK       I    between atoms: C_16  and  N_17 
REMARK    5  A    between atoms: N_17  and  C_18 
ROOT
HETATM    1  C   UNL     1     -42.928  59.311 -54.805  1.00  0.00     0.052 A 
HETATM    2  N   UNL     1     -43.084  58.003 -54.371  1.00  0.00    -0.228 NA
HETATM    3  C   UNL     1     -42.101  57.680 -53.570  1.00  0.00     0.174 A 
HETATM    4  S   UNL     1     -40.936  58.891 -53.276  1.00  0.00    -0.062 SA
HETATM    5  C   UNL     1     -41.808  59.952 -54.306  1.00  0.00     0.081 A 
ENDROOT
BRANCH   1   6
HETATM    6  C   UNL     1     -43.931  59.864 -55.759  1.00  0.00     0.163 C 
BRANCH   6   7
HETATM    7  C   UNL     1     -43.830  59.254 -57.148  1.00  0.00     0.227 C 
HETATM    8  N   UNL     1     -44.702  58.197 -57.358  1.00  0.00    -0.326 N 
HETATM    9  H   UNL     1     -45.454  58.119 -56.672  1.00  0.00     0.169 HD
HETATM   10  O   UNL     1     -42.991  59.672 -57.944  1.00  0.00    -0.273 OA
BRANCH   8  11
HETATM   11  C   UNL     1     -44.706  57.275 -58.437  1.00  0.00     0.042 A 
HETATM   12  C   UNL     1     -45.797  57.263 -59.342  1.00  0.00    -0.014 A 
HETATM   13  C   UNL     1     -46.906  58.277 -59.226  1.00  0.00     0.052 C 
HETATM   14  C   UNL     1     -45.845  56.258 -60.332  1.00  0.00     0.042 A 
HETATM   15 CL   UNL     1     -47.173  56.102 -61.433  1.00  0.00    -0.084 Cl
HETATM   16  C   UNL     1     -44.817  55.322 -60.458  1.00  0.00     0.024 A 
HETATM   17  C   UNL     1     -43.732  55.365 -59.595  1.00  0.00     0.004 A 
HETATM   18  C   UNL     1     -43.681  56.330 -58.590  1.00  0.00     0.030 A 
ENDBRANCH   8  11
ENDBRANCH   6   7
ENDBRANCH   1   6
BRANCH   3  19
HETATM   19  N   UNL     1     -41.885  56.518 -52.885  1.00  0.00    -0.287 N 
HETATM   20  C   UNL     1     -41.040  55.536 -53.361  1.00  0.00     0.326 C 
HETATM   21  N   UNL     1     -41.201  54.359 -52.643  1.00  0.00    -0.309 N 
HETATM   22  O   UNL     1     -40.279  55.675 -54.310  1.00  0.00    -0.247 OA
HETATM   23  H   UNL     1     -41.761  54.411 -51.806  1.00  0.00     0.170 HD
HETATM   24  H   UNL     1     -42.388  56.403 -52.024  1.00  0.00     0.172 HD
BRANCH  21  25
HETATM   25  C   UNL     1     -40.688  53.083 -52.962  1.00  0.00     0.036 A 
HETATM   26  C   UNL     1     -40.925  52.423 -54.172  1.00  0.00     0.032 A 
HETATM   27  C   UNL     1     -40.424  51.135 -54.388  1.00  0.00     0.044 A 
HETATM   28  C   UNL     1     -39.684  50.509 -53.395  1.00  0.00     0.116 A 
HETATM   29  F   UNL     1     -39.212  49.273 -53.600  1.00  0.00    -0.206 F 
HETATM   30  C   UNL     1     -39.429  51.148 -52.189  1.00  0.00     0.044 A 
HETATM   31  C   UNL     1     -39.932  52.435 -51.973  1.00  0.00     0.032 A 
ENDBRANCH  21  25
ENDBRANCH   3  19
TORSDOF 5
ENDMDL
MODEL 5
REMARK VINA RESULT:      -8.2      3.799      8.115
REMARK  5 active torsions:
REMARK  status: ('A' for Active; 'I' for Inactive)
REMARK    1  A    between atoms: C_8  and  N_9 
REMARK       I    between atoms: N_9  and  C_10 
REMARK    2  A    between atoms: C_10  and  C_11 
REMARK    3  A    between atoms: C_11  and  C_12 
REMARK    4  A    between atoms: C_14  and  N_15 
REMARK       I    between atoms: N_15  and  C_16 
REMARK       I    between atoms: C_16  and  N_17 
REMARK    5  A    between atoms: N_17  and  C_18 
ROOT
HETATM    1  C   UNL     1     -44.378  58.429 -53.766  1.00  0.00     0.052 A 
HETATM    2  N   UNL     1     -43.219  57.814 -54.218  1.00  0.00    -0.228 NA
HETATM    3  C   UNL     1     -42.697  57.092 -53.260  1.00  0.00     0.174 A 
HETATM    4  S   UNL     1     -43.534  57.088 -51.773  1.00  0.00    -0.062 SA
HETATM    5  C   UNL     1     -44.704  58.144 -52.452  1.00  0.00     0.081 A 
ENDROOT
BRANCH   1   6
HETATM    6  C   UNL     1     -45.111  59.330 -54.700  1.00  0.00     0.163 C 
BRANCH   6   7
HETATM    7  C   UNL     1     -44.748  59.097 -56.159  1.00  0.00     0.227 C 
HETATM    8  N   UNL     1     -45.038  57.819 -56.610  1.00  0.00    -0.326 N 
HETATM    9  H   UNL     1     -45.667  57.285 -56.008  1.00  0.00     0.169 HD
HETATM   10  O   UNL     1     -44.198  59.988 -56.805  1.00  0.00    -0.273 OA
BRANCH   8  11
HETATM   11  C   UNL     1     -44.624  57.210 -57.823  1.00  0.00     0.042 A 
HETATM   12  C   UNL     1     -45.560  57.034 -58.871  1.00  0.00    -0.014 A 
HETATM   13  C   UNL     1     -46.965  57.567 -58.749  1.00  0.00     0.052 C 
HETATM   14  C   UNL     1     -45.164  56.316 -60.020  1.00  0.00     0.042 A 
HETATM   15 CL   UNL     1     -46.254  55.972 -61.322  1.00  0.00    -0.084 Cl
HETATM   16  C   UNL     1     -43.862  55.828 -60.151  1.00  0.00     0.024 A 
HETATM   17  C   UNL     1     -42.939  56.040 -59.138  1.00  0.00     0.004 A 
HETATM   18  C   UNL     1     -43.319  56.721 -57.982  1.00  0.00     0.030 A 
ENDBRANCH   8  11
ENDBRANCH   6   7
ENDBRANCH   1   6
BRANCH   3  19
HETATM   19  N   UNL     1     -41.591  56.289 -53.282  1.00  0.00    -0.287 N 
HETATM   20  C   UNL     1     -41.684  54.922 -53.437  1.00  0.00     0.326 C 
HETATM   21  N   UNL     1     -40.471  54.311 -53.150  1.00  0.00    -0.309 N 
HETATM   22  O   UNL     1     -42.707  54.326 -53.750  1.00  0.00    -0.247 OA
HETATM   23  H   UNL     1     -39.675  54.917 -53.031  1.00  0.00     0.170 HD
HETATM   24  H   UNL     1     -40.704  56.744 -53.159  1.00  0.00     0.172 HD
BRANCH  21  25
HETATM   25  C   UNL     1     -40.225  52.931 -52.979  1.00  0.00     0.036 A 
HETATM   26  C   UNL     1     -39.924  52.335 -51.751  1.00  0.00     0.032 A 
HETATM   27  C   UNL     1     -39.640  50.967 -51.677  1.00  0.00     0.044 A 
HETATM   28  C   UNL     1     -39.659  50.196 -52.830  1.00  0.00     0.116 A 
HETATM   29  F   UNL     1     -39.379  48.889 -52.760  1.00  0.00    -0.206 F 
HETATM   30  C   UNL     1     -39.963  50.766 -54.059  1.00  0.00     0.044 A 
HETATM   31  C   UNL     1     -40.245  52.133 -54.134  1.00  0.00     0.032 A 
ENDBRANCH  21  25
ENDBRANCH   3  19
TORSDOF 5
ENDMDL
MODEL 6
REMARK VINA RESULT:      -8.1      3.659      7.845
REMARK  5 active torsions:
REMARK  status: ('A' for Active; 'I' for Inactive)
REMARK    1  A    between atoms: C_8  and  N_9 
REMARK       I    between atoms: N_9  and  C_10 
REMARK    2  A    between atoms: C_10  and  C_11 
REMARK    3  A    between atoms: C_11  and  C_12 
REMARK    4  A    between atoms: C_14  and  N_15 
REMARK       I    between atoms: N_15  and  C_16 
REMARK       I    between atoms: C_16  and  N_17 
REMARK    5  A    between atoms: N_17  and  C_18 
ROOT
HETATM    1  C   UNL     1     -43.950  58.957 -53.408  1.00  0.00     0.052 A 
HETATM    2  N   UNL     1     -43.682  57.599 -53.319  1.00  0.00    -0.228 NA
HETATM    3  C   UNL     1     -42.855  57.374 -52.330  1.00  0.00     0.174 A 
HETATM    4  S   UNL     1     -42.344  58.740 -51.445  1.00  0.00    -0.062 SA
HETATM    5  C   UNL     1     -43.305  59.734 -52.463  1.00  0.00     0.081 A 
ENDROOT
BRANCH   1   6
HETATM    6  C   UNL     1     -44.850  59.430 -54.499  1.00  0.00     0.163 C 
BRANCH   6   7
HETATM    7  C   UNL     1     -44.771  58.569 -55.751  1.00  0.00     0.227 C 
HETATM    8  N   UNL     1     -43.477  58.351 -56.197  1.00  0.00    -0.326 N 
HETATM    9  H   UNL     1     -42.746  58.572 -55.519  1.00  0.00     0.169 HD
HETATM   10  O   UNL     1     -45.803  58.184 -56.297  1.00  0.00    -0.273 OA
BRANCH   8  11
HETATM   11  C   UNL     1     -43.068  57.800 -57.439  1.00  0.00     0.042 A 
HETATM   12  C   UNL     1     -42.546  58.652 -58.443  1.00  0.00    -0.014 A 
HETATM   13  C   UNL     1     -42.335  60.120 -58.176  1.00  0.00     0.052 C 
HETATM   14  C   UNL     1     -42.262  58.107 -59.714  1.00  0.00     0.042 A 
HETATM   15 CL   UNL     1     -41.700  59.075 -61.036  1.00  0.00    -0.084 Cl
HETATM   16  C   UNL     1     -42.440  56.746 -59.970  1.00  0.00     0.024 A 
HETATM   17  C   UNL     1     -42.912  55.909 -58.969  1.00  0.00     0.004 A 
HETATM   18  C   UNL     1     -43.228  56.434 -57.716  1.00  0.00     0.030 A 
ENDBRANCH   8  11
ENDBRANCH   6   7
ENDBRANCH   1   6
BRANCH   3  19
HETATM   19  N   UNL     1     -42.366  56.188 -51.860  1.00  0.00    -0.287 N 
HETATM   20  C   UNL     1     -41.498  55.412 -52.601  1.00  0.00     0.326 C 
HETATM   21  N   UNL     1     -41.367  54.148 -52.040  1.00  0.00    -0.309 N 
HETATM   22  O   UNL     1     -40.947  55.776 -53.631  1.00  0.00    -0.247 OA
HETATM   23  H   UNL     1     -41.769  54.015 -51.125  1.00  0.00     0.170 HD
HETATM   24  H   UNL     1     -42.685  55.897 -50.954  1.00  0.00     0.172 HD
BRANCH  21  25
HETATM   25  C   UNL     1     -40.756  53.014 -52.615  1.00  0.00     0.036 A 
HETATM   26  C   UNL     1     -40.981  52.581 -53.926  1.00  0.00     0.032 A 
HETATM   27  C   UNL     1     -40.376  51.413 -54.402  1.00  0.00     0.044 A 
HETATM   28  C   UNL     1     -39.544  50.680 -53.568  1.00  0.00     0.116 A 
HETATM   29  F   UNL     1     -38.971  49.558 -54.022  1.00  0.00    -0.206 F 
HETATM   30  C   UNL     1     -39.299  51.095 -52.266  1.00  0.00     0.044 A 
HETATM   31  C   UNL     1     -39.906  52.261 -51.790  1.00  0.00     0.032 A 
ENDBRANCH  21  25
ENDBRANCH   3  19
TORSDOF 5
ENDMDL
MODEL 7
REMARK VINA RESULT:      -8.0      4.102      7.932
REMARK  5 active torsions:
REMARK  status: ('A' for Active; 'I' for Inactive)
REMARK    1  A    between atoms: C_8  and  N_9 
REMARK       I    between atoms: N_9  and  C_10 
REMARK    2  A    between atoms: C_10  and  C_11 
REMARK    3  A    between atoms: C_11  and  C_12 
REMARK    4  A    between atoms: C_14  and  N_15 
REMARK       I    between atoms: N_15  and  C_16 
REMARK       I    between atoms: C_16  and  N_17 
REMARK    5  A    between atoms: N_17  and  C_18 
ROOT
HETATM    1  C   UNL     1     -44.284  58.214 -56.710  1.00  0.00     0.052 A 
HETATM    2  N   UNL     1     -43.257  57.573 -56.033  1.00  0.00    -0.228 NA
HETATM    3  C   UNL     1     -42.814  56.569 -56.745  1.00  0.00     0.174 A 
HETATM    4  S   UNL     1     -43.573  56.316 -58.252  1.00  0.00    -0.062 SA
HETATM    5  C   UNL     1     -44.591  57.662 -57.941  1.00  0.00     0.081 A 
ENDROOT
BRANCH   1   6
HETATM    6  C   UNL     1     -44.952  59.371 -56.050  1.00  0.00     0.163 C 
BRANCH   6   7
HETATM    7  C   UNL     1     -44.060  60.078 -55.042  1.00  0.00     0.227 C 
HETATM    8  N   UNL     1     -43.881  59.371 -53.863  1.00  0.00    -0.326 N 
HETATM    9  H   UNL     1     -44.151  58.388 -53.907  1.00  0.00     0.169 HD
HETATM   10  O   UNL     1     -43.617  61.198 -55.292  1.00  0.00    -0.273 OA
BRANCH   8  11
HETATM   11  C   UNL     1     -43.311  59.836 -52.649  1.00  0.00     0.042 A 
HETATM   12  C   UNL     1     -41.951  59.556 -52.364  1.00  0.00    -0.014 A 
HETATM   13  C   UNL     1     -41.081  58.852 -53.373  1.00  0.00     0.052 C 
HETATM   14  C   UNL     1     -41.436  59.916 -51.100  1.00  0.00     0.042 A 
HETATM   15 CL   UNL     1     -39.814  59.546 -50.619  1.00  0.00    -0.084 Cl
HETATM   16  C   UNL     1     -42.228  60.581 -50.162  1.00  0.00     0.024 A 
HETATM   17  C   UNL     1     -43.547  60.889 -50.464  1.00  0.00     0.004 A 
HETATM   18  C   UNL     1     -44.084  60.514 -51.695  1.00  0.00     0.030 A 
ENDBRANCH   8  11
ENDBRANCH   6   7
ENDBRANCH   1   6
BRANCH   3  19
HETATM   19  N   UNL     1     -41.788  55.705 -56.484  1.00  0.00    -0.287 N 
HETATM   20  C   UNL     1     -41.900  54.702 -55.542  1.00  0.00     0.326 C 
HETATM   21  N   UNL     1     -40.658  54.148 -55.264  1.00  0.00    -0.309 N 
HETATM   22  O   UNL     1     -42.947  54.372 -55.000  1.00  0.00    -0.247 OA
HETATM   23  H   UNL     1     -39.897  54.416 -55.868  1.00  0.00     0.170 HD
HETATM   24  H   UNL     1     -40.938  55.847 -56.998  1.00  0.00     0.172 HD
BRANCH  21  25
HETATM   25  C   UNL     1     -40.328  53.266 -54.212  1.00  0.00     0.036 A 
HETATM   26  C   UNL     1     -39.973  51.926 -54.394  1.00  0.00     0.032 A 
HETATM   27  C   UNL     1     -39.713  51.104 -53.292  1.00  0.00     0.044 A 
HETATM   28  C   UNL     1     -39.805  51.624 -52.010  1.00  0.00     0.116 A 
HETATM   29  F   UNL     1     -39.564  50.835 -50.955  1.00  0.00    -0.206 F 
HETATM   30  C   UNL     1     -40.148  52.954 -51.805  1.00  0.00     0.044 A 
HETATM   31  C   UNL     1     -40.410  53.774 -52.906  1.00  0.00     0.032 A 
ENDBRANCH  21  25
ENDBRANCH   3  19
TORSDOF 5
ENDMDL
MODEL 8
REMARK VINA RESULT:      -7.9      3.540      7.876
REMARK  5 active torsions:
REMARK  status: ('A' for Active; 'I' for Inactive)
REMARK    1  A    between atoms: C_8  and  N_9 
REMARK       I    between atoms: N_9  and  C_10 
REMARK    2  A    between atoms: C_10  and  C_11 
REMARK    3  A    between atoms: C_11  and  C_12 
REMARK    4  A    between atoms: C_14  and  N_15 
REMARK       I    between atoms: N_15  and  C_16 
REMARK       I    between atoms: C_16  and  N_17 
REMARK    5  A    between atoms: N_17  and  C_18 
ROOT
HETATM    1  C   UNL     1     -43.755  59.709 -53.151  1.00  0.00     0.052 A 
HETATM    2  N   UNL     1     -43.750  58.360 -52.827  1.00  0.00    -0.228 NA
HETATM    3  C   UNL     1     -42.578  58.022 -52.351  1.00  0.00     0.174 A 
HETATM    4  S   UNL     1     -41.414  59.265 -52.253  1.00  0.00    -0.062 SA
HETATM    5  C   UNL     1     -42.562  60.364 -52.903  1.00  0.00     0.081 A 
ENDROOT
BRANCH   1   6
HETATM    6  C   UNL     1     -44.993  60.289 -53.744  1.00  0.00     0.163 C 
BRANCH   6   7
HETATM    7  C   UNL     1     -45.123  60.016 -55.235  1.00  0.00     0.227 C 
HETATM    8  N   UNL     1     -45.502  58.717 -55.534  1.00  0.00    -0.326 N 
HETATM    9  H   UNL     1     -45.880  58.188 -54.747  1.00  0.00     0.169 HD
HETATM   10  O   UNL     1     -44.846  60.898 -56.047  1.00  0.00    -0.273 OA
BRANCH   8  11
HETATM   11  C   UNL     1     -45.489  58.078 -56.801  1.00  0.00     0.042 A 
HETATM   12  C   UNL     1     -44.312  57.426 -57.243  1.00  0.00    -0.014 A 
HETATM   13  C   UNL     1     -43.104  57.324 -56.347  1.00  0.00     0.052 C 
HETATM   14  C   UNL     1     -44.276  56.906 -58.555  1.00  0.00     0.042 A 
HETATM   15 CL   UNL     1     -42.860  56.165 -59.223  1.00  0.00    -0.084 Cl
HETATM   16  C   UNL     1     -45.393  56.982 -59.390  1.00  0.00     0.024 A 
HETATM   17  C   UNL     1     -46.557  57.586 -58.936  1.00  0.00     0.004 A 
HETATM   18  C   UNL     1     -46.601  58.133 -57.654  1.00  0.00     0.030 A 
ENDBRANCH   8  11
ENDBRANCH   6   7
ENDBRANCH   1   6
BRANCH   3  19
HETATM   19  N   UNL     1     -42.151  56.816 -51.870  1.00  0.00    -0.287 N 
HETATM   20  C   UNL     1     -41.371  55.965 -52.624  1.00  0.00     0.326 C 
HETATM   21  N   UNL     1     -41.303  54.709 -52.035  1.00  0.00    -0.309 N 
HETATM   22  O   UNL     1     -40.840  56.265 -53.685  1.00  0.00    -0.247 OA
HETATM   23  H   UNL     1     -41.673  54.626 -51.101  1.00  0.00     0.170 HD
HETATM   24  H   UNL     1     -42.451  56.571 -50.944  1.00  0.00     0.172 HD
BRANCH  21  25
HETATM   25  C   UNL     1     -40.795  53.521 -52.603  1.00  0.00     0.036 A 
HETATM   26  C   UNL     1     -41.148  53.044 -53.870  1.00  0.00     0.032 A 
HETATM   27  C   UNL     1     -40.640  51.828 -54.338  1.00  0.00     0.044 A 
HETATM   28  C   UNL     1     -39.776  51.091 -53.541  1.00  0.00     0.116 A 
HETATM   29  F   UNL     1     -39.296  49.923 -53.986  1.00  0.00    -0.206 F 
HETATM   30  C   UNL     1     -39.404  51.549 -52.284  1.00  0.00     0.044 A 
HETATM   31  C   UNL     1     -39.914  52.764 -51.815  1.00  0.00     0.032 A 
ENDBRANCH  21  25
ENDBRANCH   3  19
TORSDOF 5
ENDMDL
MODEL 9
REMARK VINA RESULT:      -7.6      3.156      5.319
REMARK  5 active torsions:
REMARK  status: ('A' for Active; 'I' for Inactive)
REMARK    1  A    between atoms: C_8  and  N_9 
REMARK       I    between atoms: N_9  and  C_10 
REMARK    2  A    between atoms: C_10  and  C_11 
REMARK    3  A    between atoms: C_11  and  C_12 
REMARK    4  A    between atoms: C_14  and  N_15 
REMARK       I    between atoms: N_15  and  C_16 
REMARK       I    between atoms: C_16  and  N_17 
REMARK    5  A    between atoms: N_17  and  C_18 
ROOT
HETATM    1  C   UNL     1     -40.420  53.153 -51.601  1.00  0.00     0.052 A 
HETATM    2  N   UNL     1     -41.388  53.786 -52.366  1.00  0.00    -0.228 NA
HETATM    3  C   UNL     1     -41.405  53.278 -53.572  1.00  0.00     0.174 A 
HETATM    4  S   UNL     1     -40.287  52.026 -53.881  1.00  0.00    -0.062 SA
HETATM    5  C   UNL     1     -39.720  52.162 -52.267  1.00  0.00     0.081 A 
ENDROOT
BRANCH   1   6
HETATM    6  C   UNL     1     -40.216  53.610 -50.198  1.00  0.00     0.163 C 
BRANCH   6   7
HETATM    7  C   UNL     1     -40.965  54.894 -49.876  1.00  0.00     0.227 C 
HETATM    8  N   UNL     1     -40.925  55.835 -50.894  1.00  0.00    -0.326 N 
HETATM    9  H   UNL     1     -40.626  55.472 -51.800  1.00  0.00     0.169 HD
HETATM   10  O   UNL     1     -41.487  55.041 -48.772  1.00  0.00    -0.273 OA
BRANCH   8  11
HETATM   11  C   UNL     1     -41.314  57.198 -50.833  1.00  0.00     0.042 A 
HETATM   12  C   UNL     1     -42.600  57.578 -51.289  1.00  0.00    -0.014 A 
HETATM   13  C   UNL     1     -43.592  56.542 -51.751  1.00  0.00     0.052 C 
HETATM   14  C   UNL     1     -42.923  58.952 -51.339  1.00  0.00     0.042 A 
HETATM   15 CL   UNL     1     -44.435  59.529 -51.957  1.00  0.00    -0.084 Cl
HETATM   16  C   UNL     1     -42.018  59.920 -50.901  1.00  0.00     0.024 A 
HETATM   17  C   UNL     1     -40.775  59.538 -50.418  1.00  0.00     0.004 A 
HETATM   18  C   UNL     1     -40.426  58.188 -50.389  1.00  0.00     0.030 A 
ENDBRANCH   8  11
ENDBRANCH   6   7
ENDBRANCH   1   6
BRANCH   3  19
HETATM   19  N   UNL     1     -42.224  53.570 -54.626  1.00  0.00    -0.287 N 
HETATM   20  C   UNL     1     -41.967  54.622 -55.481  1.00  0.00     0.326 C 
HETATM   21  N   UNL     1     -43.068  54.882 -56.285  1.00  0.00    -0.309 N 
HETATM   22  O   UNL     1     -40.923  55.260 -55.502  1.00  0.00    -0.247 OA
HETATM   23  H   UNL     1     -43.816  54.206 -56.262  1.00  0.00     0.170 HD
HETATM   24  H   UNL     1     -43.036  52.991 -54.737  1.00  0.00     0.172 HD
BRANCH  21  25
HETATM   25  C   UNL     1     -43.276  56.003 -57.118  1.00  0.00     0.036 A 
HETATM   26  C   UNL     1     -43.674  57.261 -56.655  1.00  0.00     0.032 A 
HETATM   27  C   UNL     1     -43.911  58.306 -57.554  1.00  0.00     0.044 A 
HETATM   28  C   UNL     1     -43.747  58.093 -58.915  1.00  0.00     0.116 A 
HETATM   29  F   UNL     1     -43.982  59.092 -59.776  1.00  0.00    -0.206 F 
HETATM   30  C   UNL     1     -43.344  56.855 -59.397  1.00  0.00     0.044 A 
HETATM   31  C   UNL     1     -43.110  55.810 -58.498  1.00  0.00     0.032 A 
ENDBRANCH  21  25
ENDBRANCH   3  19
TORSDOF 5
ENDMDL
MODEL 10
REMARK VINA RESULT:      -7.6      3.839      6.052
REMARK  5 active torsions:
REMARK  status: ('A' for Active; 'I' for Inactive)
REMARK    1  A    between atoms: C_8  and  N_9 
REMARK       I    between atoms: N_9  and  C_10 
REMARK    2  A    between atoms: C_10  and  C_11 
REMARK    3  A    between atoms: C_11  and  C_12 
REMARK    4  A    between atoms: C_14  and  N_15 
REMARK       I    between atoms: N_15  and  C_16 
REMARK       I    between atoms: C_16  and  N_17 
REMARK    5  A    between atoms: N_17  and  C_18 
ROOT
HETATM    1  C   UNL     1     -42.881  54.560 -52.149  1.00  0.00     0.052 A 
HETATM    2  N   UNL     1     -43.502  54.929 -53.334  1.00  0.00    -0.228 NA
HETATM    3  C   UNL     1     -42.900  54.359 -54.346  1.00  0.00     0.174 A 
HETATM    4  S   UNL     1     -41.573  53.355 -53.971  1.00  0.00    -0.062 SA
HETATM    5  C   UNL     1     -41.807  53.702 -52.307  1.00  0.00     0.081 A 
ENDROOT
BRANCH   1   6
HETATM    6  C   UNL     1     -43.396  55.132 -50.873  1.00  0.00     0.163 C 
BRANCH   6   7
HETATM    7  C   UNL     1     -43.952  56.539 -51.033  1.00  0.00     0.227 C 
HETATM    8  N   UNL     1     -43.121  57.390 -51.745  1.00  0.00    -0.326 N 
HETATM    9  H   UNL     1     -42.381  56.924 -52.273  1.00  0.00     0.169 HD
HETATM   10  O   UNL     1     -45.021  56.841 -50.504  1.00  0.00    -0.273 OA
BRANCH   8  11
HETATM   11  C   UNL     1     -43.225  58.799 -51.874  1.00  0.00     0.042 A 
HETATM   12  C   UNL     1     -43.812  59.352 -53.039  1.00  0.00    -0.014 A 
HETATM   13  C   UNL     1     -44.408  58.462 -54.099  1.00  0.00     0.052 C 
HETATM   14  C   UNL     1     -43.794  60.754 -53.207  1.00  0.00     0.042 A 
HETATM   15 CL   UNL     1     -44.408  61.527 -54.630  1.00  0.00    -0.084 Cl
HETATM   16  C   UNL     1     -43.256  61.590 -52.226  1.00  0.00     0.024 A 
HETATM   17  C   UNL     1     -42.720  61.043 -51.069  1.00  0.00     0.004 A 
HETATM   18  C   UNL     1     -42.700  59.659 -50.898  1.00  0.00     0.030 A 
ENDBRANCH   8  11
ENDBRANCH   6   7
ENDBRANCH   1   6
BRANCH   3  19
HETATM   19  N   UNL     1     -43.205  54.409 -55.678  1.00  0.00    -0.287 N 
HETATM   20  C   UNL     1     -42.832  55.473 -56.472  1.00  0.00     0.326 C 
HETATM   21  N   UNL     1     -43.486  55.426 -57.696  1.00  0.00    -0.309 N 
HETATM   22  O   UNL     1     -42.056  56.357 -56.131  1.00  0.00    -0.247 OA
HETATM   23  H   UNL     1     -43.997  54.582 -57.905  1.00  0.00     0.170 HD
HETATM   24  H   UNL     1     -43.734  53.640 -56.047  1.00  0.00     0.172 HD
BRANCH  21  25
HETATM   25  C   UNL     1     -43.541  56.438 -58.679  1.00  0.00     0.036 A 
HETATM   26  C   UNL     1     -42.510  56.709 -59.584  1.00  0.00     0.032 A 
HETATM   27  C   UNL     1     -42.624  57.767 -60.493  1.00  0.00     0.044 A 
HETATM   28  C   UNL     1     -43.769  58.550 -60.497  1.00  0.00     0.116 A 
HETATM   29  F   UNL     1     -43.873  59.568 -61.362  1.00  0.00    -0.206 F 
HETATM   30  C   UNL     1     -44.808  58.294 -59.613  1.00  0.00     0.044 A 
HETATM   31  C   UNL     1     -44.694  57.239 -58.704  1.00  0.00     0.032 A 
ENDBRANCH  21  25
ENDBRANCH   3  19
TORSDOF 5
ENDMDL
