MODEL 1
REMARK VINA RESULT:      -8.1      0.000      0.000
REMARK  4 active torsions:
REMARK  status: ('A' for Active; 'I' for Inactive)
REMARK    1  A    between atoms: C_7  and  C_8 
REMARK    2  A    between atoms: C_8  and  N_9 
REMARK    3  A    between atoms: N_15  and  C_17 
REMARK    4  A    between atoms: C_21  and  C_22 
ROOT
HETATM    1  N   UNL     1     -41.708  54.056 -53.979  1.00  0.00    -0.067 N 
HETATM    2  H   UNL     1     -41.890  53.524 -53.115  1.00  0.00     0.280 HD
HETATM    3  C   UNL     1     -41.518  55.480 -53.543  1.00  0.00     0.236 C 
HETATM    4  C   UNL     1     -41.460  56.423 -54.748  1.00  0.00     0.039 C 
HETATM    5  C   UNL     1     -42.672  56.298 -55.715  1.00  0.00    -0.013 C 
HETATM    6  C   UNL     1     -43.979  56.877 -55.106  1.00  0.00     0.245 C 
HETATM    7  N   UNL     1     -43.908  58.378 -54.956  1.00  0.00    -0.065 N 
HETATM    8  H   UNL     1     -43.121  58.650 -54.351  1.00  0.00     0.280 HD
HETATM    9  C   UNL     1     -43.691  59.082 -56.290  1.00  0.00     0.244 C 
HETATM   10  C   UNL     1     -42.385  58.581 -56.920  1.00  0.00     0.045 C 
HETATM   11  C   UNL     1     -42.382  57.046 -57.049  1.00  0.00     0.022 C 
HETATM   12  C   UNL     1     -42.859  54.789 -56.059  1.00  0.00     0.039 C 
HETATM   13  C   UNL     1     -42.911  53.857 -54.850  1.00  0.00     0.236 C 
ENDROOT
BRANCH   7  14
HETATM   14  C   UNL     1     -45.143  58.919 -54.291  1.00  0.00     0.188 A 
HETATM   15  C   UNL     1     -44.954  59.597 -52.963  1.00  0.00     0.035 A 
HETATM   16  C   UNL     1     -45.259  60.412 -54.187  1.00  0.00     0.035 A 
ENDBRANCH   7  14
BRANCH  10  17
HETATM   17  C   UNL     1     -42.137  59.257 -58.254  1.00  0.00    -0.052 A 
HETATM   18  C   UNL     1     -41.775  60.613 -58.288  1.00  0.00     0.007 A 
HETATM   19  C   UNL     1     -41.559  61.261 -59.506  1.00  0.00     0.001 A 
HETATM   20  C   UNL     1     -41.701  60.566 -60.704  1.00  0.00     0.000 A 
HETATM   21  C   UNL     1     -42.056  59.220 -60.686  1.00  0.00     0.001 A 
HETATM   22  C   UNL     1     -42.272  58.568 -59.471  1.00  0.00     0.007 A 
ENDBRANCH  10  17
BRANCH   1  23
HETATM   23  C   UNL     1     -40.445  53.371 -54.504  1.00  0.00     0.277 C 
BRANCH  23  24
HETATM   24  C   UNL     1     -40.161  52.121 -53.760  1.00  0.00     0.011 A 
HETATM   25  C   UNL     1     -39.868  51.946 -52.413  1.00  0.00     0.035 A 
HETATM   26  C   UNL     1     -39.815  52.907 -51.278  1.00  0.00     0.070 C 
HETATM   27  N   UNL     1     -39.640  50.596 -52.253  1.00  0.00    -0.278 N 
HETATM   28  C   UNL     1     -39.306  49.869 -51.047  1.00  0.00     0.179 C 
HETATM   29  N   UNL     1     -39.747  49.913 -53.403  1.00  0.00    -0.185 NA
HETATM   30  C   UNL     1     -40.121  50.818 -54.299  1.00  0.00     0.149 A 
ENDBRANCH  23  24
ENDBRANCH   1  23
TORSDOF 4
ENDMDL
MODEL 2
REMARK VINA RESULT:      -7.9      3.335      8.734
REMARK  4 active torsions:
REMARK  status: ('A' for Active; 'I' for Inactive)
REMARK    1  A    between atoms: C_7  and  C_8 
REMARK    2  A    between atoms: C_8  and  N_9 
REMARK    3  A    between atoms: N_15  and  C_17 
REMARK    4  A    between atoms: C_21  and  C_22 
ROOT
HETATM    1  N   UNL     1     -43.570  60.075 -51.918  1.00  0.00    -0.067 N 
HETATM    2  H   UNL     1     -44.041  60.973 -52.103  1.00  0.00     0.280 HD
HETATM    3  C   UNL     1     -42.598  59.889 -53.048  1.00  0.00     0.236 C 
HETATM    4  C   UNL     1     -41.986  58.487 -53.024  1.00  0.00     0.039 C 
HETATM    5  C   UNL     1     -43.030  57.335 -52.999  1.00  0.00    -0.013 C 
HETATM    6  C   UNL     1     -43.771  57.175 -54.355  1.00  0.00     0.245 C 
HETATM    7  N   UNL     1     -42.847  56.677 -55.440  1.00  0.00    -0.065 N 
HETATM    8  H   UNL     1     -42.057  57.324 -55.577  1.00  0.00     0.280 HD
HETATM    9  C   UNL     1     -42.240  55.320 -55.105  1.00  0.00     0.244 C 
HETATM   10  C   UNL     1     -41.455  55.428 -53.792  1.00  0.00     0.045 C 
HETATM   11  C   UNL     1     -42.338  55.982 -52.659  1.00  0.00     0.022 C 
HETATM   12  C   UNL     1     -44.050  57.635 -51.859  1.00  0.00     0.039 C 
HETATM   13  C   UNL     1     -44.651  59.038 -51.889  1.00  0.00     0.236 C 
ENDROOT
BRANCH   7  14
HETATM   14  C   UNL     1     -43.552  56.606 -56.767  1.00  0.00     0.188 A 
HETATM   15  C   UNL     1     -42.893  57.306 -57.921  1.00  0.00     0.035 A 
HETATM   16  C   UNL     1     -42.884  55.805 -57.848  1.00  0.00     0.035 A 
ENDBRANCH   7  14
BRANCH  10  17
HETATM   17  C   UNL     1     -40.838  54.093 -53.423  1.00  0.00    -0.052 A 
HETATM   18  C   UNL     1     -40.600  53.787 -52.073  1.00  0.00     0.007 A 
HETATM   19  C   UNL     1     -40.016  52.571 -51.712  1.00  0.00     0.001 A 
HETATM   20  C   UNL     1     -39.665  51.645 -52.690  1.00  0.00     0.000 A 
HETATM   21  C   UNL     1     -39.899  51.931 -54.032  1.00  0.00     0.001 A 
HETATM   22  C   UNL     1     -40.482  53.146 -54.398  1.00  0.00     0.007 A 
ENDBRANCH  10  17
BRANCH   1  23
HETATM   23  C   UNL     1     -42.928  60.336 -50.555  1.00  0.00     0.277 C 
BRANCH  23  24
HETATM   24  C   UNL     1     -43.382  61.626 -49.983  1.00  0.00     0.011 A 
HETATM   25  C   UNL     1     -44.407  61.875 -49.077  1.00  0.00     0.035 A 
HETATM   26  C   UNL     1     -45.318  60.962 -48.336  1.00  0.00     0.070 C 
HETATM   27  N   UNL     1     -44.440  63.244 -48.919  1.00  0.00    -0.278 N 
HETATM   28  C   UNL     1     -45.310  64.039 -48.079  1.00  0.00     0.179 C 
HETATM   29  N   UNL     1     -43.527  63.875 -49.674  1.00  0.00    -0.185 NA
HETATM   30  C   UNL     1     -42.849  62.901 -50.268  1.00  0.00     0.149 A 
ENDBRANCH  23  24
ENDBRANCH   1  23
TORSDOF 4
ENDMDL
MODEL 3
REMARK VINA RESULT:      -7.8      3.197      8.633
REMARK  4 active torsions:
REMARK  status: ('A' for Active; 'I' for Inactive)
REMARK    1  A    between atoms: C_7  and  C_8 
REMARK    2  A    between atoms: C_8  and  N_9 
REMARK    3  A    between atoms: N_15  and  C_17 
REMARK    4  A    between atoms: C_21  and  C_22 
ROOT
HETATM    1  N   UNL     1     -44.486  58.433 -57.190  1.00  0.00    -0.067 N 
HETATM    2  H   UNL     1     -44.951  59.323 -57.427  1.00  0.00     0.280 HD
HETATM    3  C   UNL     1     -44.838  58.163 -55.756  1.00  0.00     0.236 C 
HETATM    4  C   UNL     1     -44.033  56.985 -55.203  1.00  0.00     0.039 C 
HETATM    5  C   UNL     1     -42.495  57.126 -55.376  1.00  0.00    -0.013 C 
HETATM    6  C   UNL     1     -41.887  58.205 -54.437  1.00  0.00     0.245 C 
HETATM    7  N   UNL     1     -41.958  57.787 -52.988  1.00  0.00    -0.065 N 
HETATM    8  H   UNL     1     -42.931  57.619 -52.700  1.00  0.00     0.280 HD
HETATM    9  C   UNL     1     -41.199  56.492 -52.722  1.00  0.00     0.244 C 
HETATM   10  C   UNL     1     -41.787  55.374 -53.594  1.00  0.00     0.045 C 
HETATM   11  C   UNL     1     -41.788  55.770 -55.082  1.00  0.00     0.022 C 
HETATM   12  C   UNL     1     -42.210  57.485 -56.866  1.00  0.00     0.039 C 
HETATM   13  C   UNL     1     -43.021  58.658 -57.410  1.00  0.00     0.236 C 
ENDROOT
BRANCH   7  14
HETATM   14  C   UNL     1     -41.444  58.872 -52.082  1.00  0.00     0.188 A 
HETATM   15  C   UNL     1     -42.380  59.357 -51.011  1.00  0.00     0.035 A 
HETATM   16  C   UNL     1     -41.201  58.499 -50.648  1.00  0.00     0.035 A 
ENDBRANCH   7  14
BRANCH  10  17
HETATM   17  C   UNL     1     -41.053  54.068 -53.360  1.00  0.00    -0.052 A 
HETATM   18  C   UNL     1     -40.854  53.182 -54.430  1.00  0.00     0.007 A 
HETATM   19  C   UNL     1     -40.197  51.966 -54.234  1.00  0.00     0.001 A 
HETATM   20  C   UNL     1     -39.730  51.619 -52.969  1.00  0.00     0.000 A 
HETATM   21  C   UNL     1     -39.916  52.488 -51.899  1.00  0.00     0.001 A 
HETATM   22  C   UNL     1     -40.572  53.706 -52.090  1.00  0.00     0.007 A 
ENDBRANCH  10  17
BRANCH   1  23
HETATM   23  C   UNL     1     -45.121  57.475 -58.199  1.00  0.00     0.277 C 
BRANCH  23  24
HETATM   24  C   UNL     1     -46.040  58.189 -59.116  1.00  0.00     0.011 A 
HETATM   25  C   UNL     1     -46.831  57.681 -60.141  1.00  0.00     0.035 A 
HETATM   26  C   UNL     1     -47.078  56.289 -60.606  1.00  0.00     0.070 C 
HETATM   27  N   UNL     1     -47.451  58.773 -60.710  1.00  0.00    -0.278 N 
HETATM   28  C   UNL     1     -48.391  58.812 -61.810  1.00  0.00     0.179 C 
HETATM   29  N   UNL     1     -47.092  59.931 -60.133  1.00  0.00    -0.185 NA
HETATM   30  C   UNL     1     -46.293  59.577 -59.134  1.00  0.00     0.149 A 
ENDBRANCH  23  24
ENDBRANCH   1  23
TORSDOF 4
ENDMDL
MODEL 4
REMARK VINA RESULT:      -7.7      3.820      9.251
REMARK  4 active torsions:
REMARK  status: ('A' for Active; 'I' for Inactive)
REMARK    1  A    between atoms: C_7  and  C_8 
REMARK    2  A    between atoms: C_8  and  N_9 
REMARK    3  A    between atoms: N_15  and  C_17 
REMARK    4  A    between atoms: C_21  and  C_22 
ROOT
HETATM    1  N   UNL     1     -44.652  60.289 -51.106  1.00  0.00    -0.067 N 
HETATM    2  H   UNL     1     -45.182  61.135 -51.364  1.00  0.00     0.280 HD
HETATM    3  C   UNL     1     -43.523  60.204 -52.094  1.00  0.00     0.236 C 
HETATM    4  C   UNL     1     -42.782  58.871 -51.971  1.00  0.00     0.039 C 
HETATM    5  C   UNL     1     -43.699  57.619 -52.072  1.00  0.00    -0.013 C 
HETATM    6  C   UNL     1     -44.231  57.388 -53.513  1.00  0.00     0.245 C 
HETATM    7  N   UNL     1     -43.123  56.988 -54.459  1.00  0.00    -0.065 N 
HETATM    8  H   UNL     1     -42.392  57.711 -54.497  1.00  0.00     0.280 HD
HETATM    9  C   UNL     1     -42.434  55.698 -54.030  1.00  0.00     0.244 C 
HETATM   10  C   UNL     1     -41.848  55.883 -52.625  1.00  0.00     0.045 C 
HETATM   11  C   UNL     1     -42.927  56.342 -51.627  1.00  0.00     0.022 C 
HETATM   12  C   UNL     1     -44.888  57.812 -51.083  1.00  0.00     0.039 C 
HETATM   13  C   UNL     1     -45.618  59.148 -51.210  1.00  0.00     0.236 C 
ENDROOT
BRANCH   7  14
HETATM   14  C   UNL     1     -43.633  56.848 -55.867  1.00  0.00     0.188 A 
HETATM   15  C   UNL     1     -42.791  57.455 -56.954  1.00  0.00     0.035 A 
HETATM   16  C   UNL     1     -42.845  55.962 -56.789  1.00  0.00     0.035 A 
ENDBRANCH   7  14
BRANCH  10  17
HETATM   17  C   UNL     1     -41.156  54.616 -52.160  1.00  0.00    -0.052 A 
HETATM   18  C   UNL     1     -40.842  53.614 -53.092  1.00  0.00     0.007 A 
HETATM   19  C   UNL     1     -40.222  52.432 -52.684  1.00  0.00     0.001 A 
HETATM   20  C   UNL     1     -39.906  52.234 -51.343  1.00  0.00     0.000 A 
HETATM   21  C   UNL     1     -40.207  53.219 -50.407  1.00  0.00     0.001 A 
HETATM   22  C   UNL     1     -40.827  54.403 -50.810  1.00  0.00     0.007 A 
ENDBRANCH  10  17
BRANCH   1  23
HETATM   23  C   UNL     1     -44.229  60.611 -49.673  1.00  0.00     0.277 C 
BRANCH  23  24
HETATM   24  C   UNL     1     -45.246  61.440 -48.984  1.00  0.00     0.011 A 
HETATM   25  C   UNL     1     -45.489  61.584 -47.622  1.00  0.00     0.035 A 
HETATM   26  C   UNL     1     -44.790  61.037 -46.428  1.00  0.00     0.070 C 
HETATM   27  N   UNL     1     -46.573  62.429 -47.524  1.00  0.00    -0.278 N 
HETATM   28  C   UNL     1     -47.236  62.921 -46.335  1.00  0.00     0.179 C 
HETATM   29  N   UNL     1     -47.043  62.809 -48.723  1.00  0.00    -0.185 NA
HETATM   30  C   UNL     1     -46.209  62.266 -49.601  1.00  0.00     0.149 A 
ENDBRANCH  23  24
ENDBRANCH   1  23
TORSDOF 4
ENDMDL
MODEL 5
REMARK VINA RESULT:      -7.6      3.442      7.650
REMARK  4 active torsions:
REMARK  status: ('A' for Active; 'I' for Inactive)
REMARK    1  A    between atoms: C_7  and  C_8 
REMARK    2  A    between atoms: C_8  and  N_9 
REMARK    3  A    between atoms: N_15  and  C_17 
REMARK    4  A    between atoms: C_21  and  C_22 
ROOT
HETATM    1  N   UNL     1     -42.997  59.410 -51.044  1.00  0.00    -0.067 N 
HETATM    2  H   UNL     1     -42.931  59.402 -50.015  1.00  0.00     0.280 HD
HETATM    3  C   UNL     1     -43.580  58.077 -51.420  1.00  0.00     0.236 C 
HETATM    4  C   UNL     1     -43.528  57.861 -52.934  1.00  0.00     0.039 C 
HETATM    5  C   UNL     1     -42.114  58.041 -53.557  1.00  0.00    -0.013 C 
HETATM    6  C   UNL     1     -41.149  56.882 -53.184  1.00  0.00     0.245 C 
HETATM    7  N   UNL     1     -41.564  55.581 -53.830  1.00  0.00    -0.065 N 
HETATM    8  H   UNL     1     -42.516  55.315 -53.543  1.00  0.00     0.280 HD
HETATM    9  C   UNL     1     -41.581  55.670 -55.351  1.00  0.00     0.244 C 
HETATM   10  C   UNL     1     -42.556  56.774 -55.781  1.00  0.00     0.045 C 
HETATM   11  C   UNL     1     -42.209  58.116 -55.109  1.00  0.00     0.022 C 
HETATM   12  C   UNL     1     -41.540  59.402 -53.060  1.00  0.00     0.039 C 
HETATM   13  C   UNL     1     -41.601  59.610 -51.548  1.00  0.00     0.236 C 
ENDROOT
BRANCH   7  14
HETATM   14  C   UNL     1     -40.673  54.449 -53.397  1.00  0.00     0.188 A 
HETATM   15  C   UNL     1     -41.341  53.284 -52.723  1.00  0.00     0.035 A 
HETATM   16  C   UNL     1     -40.828  53.146 -54.128  1.00  0.00     0.035 A 
ENDBRANCH   7  14
BRANCH  10  17
HETATM   17  C   UNL     1     -42.597  56.897 -57.292  1.00  0.00    -0.052 A 
HETATM   18  C   UNL     1     -43.050  55.815 -58.064  1.00  0.00     0.007 A 
HETATM   19  C   UNL     1     -43.079  55.899 -59.458  1.00  0.00     0.001 A 
HETATM   20  C   UNL     1     -42.658  57.061 -60.098  1.00  0.00     0.000 A 
HETATM   21  C   UNL     1     -42.209  58.143 -59.346  1.00  0.00     0.001 A 
HETATM   22  C   UNL     1     -42.178  58.065 -57.953  1.00  0.00     0.007 A 
ENDBRANCH  10  17
BRANCH   1  23
HETATM   23  C   UNL     1     -43.919  60.606 -51.286  1.00  0.00     0.277 C 
BRANCH  23  24
HETATM   24  C   UNL     1     -44.568  61.050 -50.030  1.00  0.00     0.011 A 
HETATM   25  C   UNL     1     -44.375  62.221 -49.306  1.00  0.00     0.035 A 
HETATM   26  C   UNL     1     -43.539  63.423 -49.571  1.00  0.00     0.070 C 
HETATM   27  N   UNL     1     -45.187  62.112 -48.198  1.00  0.00    -0.278 N 
HETATM   28  C   UNL     1     -45.380  63.057 -47.119  1.00  0.00     0.179 C 
HETATM   29  N   UNL     1     -45.859  60.951 -48.160  1.00  0.00    -0.185 NA
HETATM   30  C   UNL     1     -45.536  60.337 -49.291  1.00  0.00     0.149 A 
ENDBRANCH  23  24
ENDBRANCH   1  23
TORSDOF 4
ENDMDL
MODEL 6
REMARK VINA RESULT:      -7.5      3.137      4.603
REMARK  4 active torsions:
REMARK  status: ('A' for Active; 'I' for Inactive)
REMARK    1  A    between atoms: C_7  and  C_8 
REMARK    2  A    between atoms: C_8  and  N_9 
REMARK    3  A    between atoms: N_15  and  C_17 
REMARK    4  A    between atoms: C_21  and  C_22 
ROOT
HETATM    1  N   UNL     1     -43.919  56.135 -53.731  1.00  0.00    -0.067 N 
HETATM    2  H   UNL     1     -44.340  55.311 -53.275  1.00  0.00     0.280 HD
HETATM    3  C   UNL     1     -44.850  56.495 -54.853  1.00  0.00     0.236 C 
HETATM    4  C   UNL     1     -44.236  57.567 -55.756  1.00  0.00     0.039 C 
HETATM    5  C   UNL     1     -42.824  57.209 -56.302  1.00  0.00    -0.013 C 
HETATM    6  C   UNL     1     -42.870  56.085 -57.375  1.00  0.00     0.245 C 
HETATM    7  N   UNL     1     -43.539  56.553 -58.645  1.00  0.00    -0.065 N 
HETATM    8  H   UNL     1     -44.503  56.863 -58.460  1.00  0.00     0.280 HD
HETATM    9  C   UNL     1     -42.818  57.738 -59.276  1.00  0.00     0.244 C 
HETATM   10  C   UNL     1     -42.781  58.899 -58.274  1.00  0.00     0.045 C 
HETATM   11  C   UNL     1     -42.153  58.462 -56.938  1.00  0.00     0.022 C 
HETATM   12  C   UNL     1     -41.940  56.768 -55.097  1.00  0.00     0.039 C 
HETATM   13  C   UNL     1     -42.564  55.702 -54.199  1.00  0.00     0.236 C 
ENDROOT
BRANCH   7  14
HETATM   14  C   UNL     1     -43.653  55.436 -59.645  1.00  0.00     0.188 A 
HETATM   15  C   UNL     1     -44.990  54.759 -59.754  1.00  0.00     0.035 A 
HETATM   16  C   UNL     1     -44.525  55.683 -60.843  1.00  0.00     0.035 A 
ENDBRANCH   7  14
BRANCH  10  17
HETATM   17  C   UNL     1     -42.065  60.098 -58.866  1.00  0.00    -0.052 A 
HETATM   18  C   UNL     1     -42.134  60.335 -60.248  1.00  0.00     0.007 A 
HETATM   19  C   UNL     1     -41.468  61.422 -60.817  1.00  0.00     0.001 A 
HETATM   20  C   UNL     1     -40.726  62.286 -60.016  1.00  0.00     0.000 A 
HETATM   21  C   UNL     1     -40.651  62.066 -58.644  1.00  0.00     0.001 A 
HETATM   22  C   UNL     1     -41.316  60.981 -58.070  1.00  0.00     0.007 A 
ENDBRANCH  10  17
BRANCH   1  23
HETATM   23  C   UNL     1     -43.883  57.140 -52.579  1.00  0.00     0.277 C 
BRANCH  23  24
HETATM   24  C   UNL     1     -42.865  56.766 -51.568  1.00  0.00     0.011 A 
HETATM   25  C   UNL     1     -42.836  55.671 -50.713  1.00  0.00     0.035 A 
HETATM   26  C   UNL     1     -43.740  54.498 -50.574  1.00  0.00     0.070 C 
HETATM   27  N   UNL     1     -41.700  55.826 -49.948  1.00  0.00    -0.278 N 
HETATM   28  C   UNL     1     -41.182  54.964 -48.907  1.00  0.00     0.179 C 
HETATM   29  N   UNL     1     -41.025  56.948 -50.244  1.00  0.00    -0.185 NA
HETATM   30  C   UNL     1     -41.690  57.484 -51.260  1.00  0.00     0.149 A 
ENDBRANCH  23  24
ENDBRANCH   1  23
TORSDOF 4
ENDMDL
MODEL 7
REMARK VINA RESULT:      -7.1      3.018      4.548
REMARK  4 active torsions:
REMARK  status: ('A' for Active; 'I' for Inactive)
REMARK    1  A    between atoms: C_7  and  C_8 
REMARK    2  A    between atoms: C_8  and  N_9 
REMARK    3  A    between atoms: N_15  and  C_17 
REMARK    4  A    between atoms: C_21  and  C_22 
ROOT
HETATM    1  N   UNL     1     -42.946  56.546 -54.472  1.00  0.00    -0.067 N 
HETATM    2  H   UNL     1     -42.218  56.646 -53.748  1.00  0.00     0.280 HD
HETATM    3  C   UNL     1     -42.244  56.759 -55.782  1.00  0.00     0.236 C 
HETATM    4  C   UNL     1     -43.246  56.860 -56.934  1.00  0.00     0.039 C 
HETATM    5  C   UNL     1     -44.356  57.928 -56.723  1.00  0.00    -0.013 C 
HETATM    6  C   UNL     1     -43.813  59.379 -56.839  1.00  0.00     0.245 C 
HETATM    7  N   UNL     1     -43.390  59.706 -58.252  1.00  0.00    -0.065 N 
HETATM    8  H   UNL     1     -42.658  59.059 -58.576  1.00  0.00     0.280 HD
HETATM    9  C   UNL     1     -44.542  59.584 -59.243  1.00  0.00     0.244 C 
HETATM   10  C   UNL     1     -45.092  58.152 -59.204  1.00  0.00     0.045 C 
HETATM   11  C   UNL     1     -45.492  57.747 -57.773  1.00  0.00     0.022 C 
HETATM   12  C   UNL     1     -44.983  57.698 -55.315  1.00  0.00     0.039 C 
HETATM   13  C   UNL     1     -43.975  57.594 -54.173  1.00  0.00     0.236 C 
ENDROOT
BRANCH   7  14
HETATM   14  C   UNL     1     -42.790  61.082 -58.338  1.00  0.00     0.188 A 
HETATM   15  C   UNL     1     -41.296  61.160 -58.481  1.00  0.00     0.035 A 
HETATM   16  C   UNL     1     -42.181  61.476 -59.653  1.00  0.00     0.035 A 
ENDBRANCH   7  14
BRANCH  10  17
HETATM   17  C   UNL     1     -46.246  57.993 -60.175  1.00  0.00    -0.052 A 
HETATM   18  C   UNL     1     -46.653  56.707 -60.565  1.00  0.00     0.007 A 
HETATM   19  C   UNL     1     -47.700  56.538 -61.473  1.00  0.00     0.001 A 
HETATM   20  C   UNL     1     -48.355  57.646 -62.001  1.00  0.00     0.000 A 
HETATM   21  C   UNL     1     -47.966  58.928 -61.622  1.00  0.00     0.001 A 
HETATM   22  C   UNL     1     -46.919  59.103 -60.714  1.00  0.00     0.007 A 
ENDBRANCH  10  17
BRANCH   1  23
HETATM   23  C   UNL     1     -43.431  55.117 -54.227  1.00  0.00     0.277 C 
BRANCH  23  24
HETATM   24  C   UNL     1     -42.591  54.427 -53.220  1.00  0.00     0.011 A 
HETATM   25  C   UNL     1     -41.401  53.730 -53.394  1.00  0.00     0.035 A 
HETATM   26  C   UNL     1     -40.551  53.507 -54.594  1.00  0.00     0.070 C 
HETATM   27  N   UNL     1     -41.066  53.247 -52.148  1.00  0.00    -0.278 N 
HETATM   28  C   UNL     1     -39.914  52.462 -51.759  1.00  0.00     0.179 C 
HETATM   29  N   UNL     1     -41.968  53.570 -51.207  1.00  0.00    -0.185 NA
HETATM   30  C   UNL     1     -42.853  54.332 -51.836  1.00  0.00     0.149 A 
ENDBRANCH  23  24
ENDBRANCH   1  23
TORSDOF 4
ENDMDL
MODEL 8
REMARK VINA RESULT:      -6.9     15.939     18.335
REMARK  4 active torsions:
REMARK  status: ('A' for Active; 'I' for Inactive)
REMARK    1  A    between atoms: C_7  and  C_8 
REMARK    2  A    between atoms: C_8  and  N_9 
REMARK    3  A    between atoms: N_15  and  C_17 
REMARK    4  A    between atoms: C_21  and  C_22 
ROOT
HETATM    1  N   UNL     1     -35.667  39.727 -51.036  1.00  0.00    -0.067 N 
HETATM    2  H   UNL     1     -35.222  39.498 -50.134  1.00  0.00     0.280 HD
HETATM    3  C   UNL     1     -35.153  38.706 -52.010  1.00  0.00     0.236 C 
HETATM    4  C   UNL     1     -35.557  39.059 -53.443  1.00  0.00     0.039 C 
HETATM    5  C   UNL     1     -35.153  40.495 -53.884  1.00  0.00    -0.013 C 
HETATM    6  C   UNL     1     -33.621  40.643 -54.096  1.00  0.00     0.245 C 
HETATM    7  N   UNL     1     -33.144  39.850 -55.289  1.00  0.00    -0.065 N 
HETATM    8  H   UNL     1     -33.360  38.850 -55.177  1.00  0.00     0.280 HD
HETATM    9  C   UNL     1     -33.814  40.294 -56.584  1.00  0.00     0.244 C 
HETATM   10  C   UNL     1     -35.333  40.128 -56.449  1.00  0.00     0.045 C 
HETATM   11  C   UNL     1     -35.868  40.876 -55.214  1.00  0.00     0.022 C 
HETATM   12  C   UNL     1     -35.645  41.490 -52.791  1.00  0.00     0.039 C 
HETATM   13  C   UNL     1     -35.242  41.126 -51.363  1.00  0.00     0.236 C 
ENDROOT
BRANCH   7  14
HETATM   14  C   UNL     1     -31.649  39.933 -55.436  1.00  0.00     0.188 A 
HETATM   15  C   UNL     1     -30.883  38.650 -55.277  1.00  0.00     0.035 A 
HETATM   16  C   UNL     1     -31.048  39.264 -56.638  1.00  0.00     0.035 A 
ENDBRANCH   7  14
BRANCH  10  17
HETATM   17  C   UNL     1     -36.036  40.565 -57.720  1.00  0.00    -0.052 A 
HETATM   18  C   UNL     1     -36.416  41.908 -57.876  1.00  0.00     0.007 A 
HETATM   19  C   UNL     1     -37.081  42.329 -59.030  1.00  0.00     0.001 A 
HETATM   20  C   UNL     1     -37.374  41.418 -60.041  1.00  0.00     0.000 A 
HETATM   21  C   UNL     1     -37.000  40.084 -59.902  1.00  0.00     0.001 A 
HETATM   22  C   UNL     1     -36.335  39.658 -58.751  1.00  0.00     0.007 A 
ENDBRANCH  10  17
BRANCH   1  23
HETATM   23  C   UNL     1     -37.151  39.597 -50.691  1.00  0.00     0.277 C 
BRANCH  23  24
HETATM   24  C   UNL     1     -37.344  38.952 -49.372  1.00  0.00     0.011 A 
HETATM   25  C   UNL     1     -38.455  38.279 -48.875  1.00  0.00     0.035 A 
HETATM   26  C   UNL     1     -39.756  37.920 -49.499  1.00  0.00     0.070 C 
HETATM   27  N   UNL     1     -38.128  37.921 -47.585  1.00  0.00    -0.278 N 
HETATM   28  C   UNL     1     -38.919  37.190 -46.618  1.00  0.00     0.179 C 
HETATM   29  N   UNL     1     -36.903  38.337 -47.227  1.00  0.00    -0.185 NA
HETATM   30  C   UNL     1     -36.405  38.903 -48.319  1.00  0.00     0.149 A 
ENDBRANCH  23  24
ENDBRANCH   1  23
TORSDOF 4
ENDMDL
MODEL 9
REMARK VINA RESULT:      -6.8      3.451      6.758
REMARK  4 active torsions:
REMARK  status: ('A' for Active; 'I' for Inactive)
REMARK    1  A    between atoms: C_7  and  C_8 
REMARK    2  A    between atoms: C_8  and  N_9 
REMARK    3  A    between atoms: N_15  and  C_17 
REMARK    4  A    between atoms: C_21  and  C_22 
ROOT
HETATM    1  N   UNL     1     -41.580  57.055 -53.152  1.00  0.00    -0.067 N 
HETATM    2  H   UNL     1     -41.278  56.599 -54.026  1.00  0.00     0.280 HD
HETATM    3  C   UNL     1     -42.967  57.564 -53.421  1.00  0.00     0.236 C 
HETATM    4  C   UNL     1     -43.456  58.461 -52.282  1.00  0.00     0.039 C 
HETATM    5  C   UNL     1     -42.494  59.633 -51.935  1.00  0.00    -0.013 C 
HETATM    6  C   UNL     1     -42.484  60.736 -53.030  1.00  0.00     0.245 C 
HETATM    7  N   UNL     1     -43.800  61.475 -53.089  1.00  0.00    -0.065 N 
HETATM    8  H   UNL     1     -44.576  60.829 -53.288  1.00  0.00     0.280 HD
HETATM    9  C   UNL     1     -44.137  62.163 -51.771  1.00  0.00     0.244 C 
HETATM   10  C   UNL     1     -44.205  61.112 -50.656  1.00  0.00     0.045 C 
HETATM   11  C   UNL     1     -42.904  60.291 -50.584  1.00  0.00     0.022 C 
HETATM   12  C   UNL     1     -41.064  59.044 -51.751  1.00  0.00     0.039 C 
HETATM   13  C   UNL     1     -40.587  58.146 -52.890  1.00  0.00     0.236 C 
ENDROOT
BRANCH   7  14
HETATM   14  C   UNL     1     -43.809  62.483 -54.206  1.00  0.00     0.188 A 
HETATM   15  C   UNL     1     -44.857  62.305 -55.268  1.00  0.00     0.035 A 
HETATM   16  C   UNL     1     -44.984  63.417 -54.267  1.00  0.00     0.035 A 
ENDBRANCH   7  14
BRANCH  10  17
HETATM   17  C   UNL     1     -44.534  61.760 -49.326  1.00  0.00    -0.052 A 
HETATM   18  C   UNL     1     -44.535  63.160 -49.217  1.00  0.00     0.007 A 
HETATM   19  C   UNL     1     -44.817  63.778 -47.997  1.00  0.00     0.001 A 
HETATM   20  C   UNL     1     -45.104  63.009 -46.873  1.00  0.00     0.000 A 
HETATM   21  C   UNL     1     -45.111  61.621 -46.965  1.00  0.00     0.001 A 
HETATM   22  C   UNL     1     -44.830  60.998 -48.183  1.00  0.00     0.007 A 
ENDBRANCH  10  17
BRANCH   1  23
HETATM   23  C   UNL     1     -41.502  55.897 -52.156  1.00  0.00     0.277 C 
BRANCH  23  24
HETATM   24  C   UNL     1     -40.986  54.666 -52.799  1.00  0.00     0.011 A 
HETATM   25  C   UNL     1     -40.520  53.496 -52.211  1.00  0.00     0.035 A 
HETATM   26  C   UNL     1     -40.451  53.060 -50.790  1.00  0.00     0.070 C 
HETATM   27  N   UNL     1     -40.115  52.691 -53.254  1.00  0.00    -0.278 N 
HETATM   28  C   UNL     1     -39.559  51.355 -53.206  1.00  0.00     0.179 C 
HETATM   29  N   UNL     1     -40.272  53.276 -54.451  1.00  0.00    -0.185 NA
HETATM   30  C   UNL     1     -40.853  54.439 -54.185  1.00  0.00     0.149 A 
ENDBRANCH  23  24
ENDBRANCH   1  23
TORSDOF 4
ENDMDL
MODEL 10
REMARK VINA RESULT:      -6.7      2.444      4.637
REMARK  4 active torsions:
REMARK  status: ('A' for Active; 'I' for Inactive)
REMARK    1  A    between atoms: C_7  and  C_8 
REMARK    2  A    between atoms: C_8  and  N_9 
REMARK    3  A    between atoms: N_15  and  C_17 
REMARK    4  A    between atoms: C_21  and  C_22 
ROOT
HETATM    1  N   UNL     1     -41.715  54.874 -54.035  1.00  0.00    -0.067 N 
HETATM    2  H   UNL     1     -41.438  54.037 -54.571  1.00  0.00     0.280 HD
HETATM    3  C   UNL     1     -43.212  54.935 -54.131  1.00  0.00     0.236 C 
HETATM    4  C   UNL     1     -43.747  56.254 -53.567  1.00  0.00     0.039 C 
HETATM    5  C   UNL     1     -43.102  57.523 -54.192  1.00  0.00    -0.013 C 
HETATM    6  C   UNL     1     -43.561  57.763 -55.657  1.00  0.00     0.245 C 
HETATM    7  N   UNL     1     -45.022  58.140 -55.729  1.00  0.00    -0.065 N 
HETATM    8  H   UNL     1     -45.613  57.403 -55.321  1.00  0.00     0.280 HD
HETATM    9  C   UNL     1     -45.328  59.416 -54.954  1.00  0.00     0.244 C 
HETATM   10  C   UNL     1     -44.934  59.222 -53.485  1.00  0.00     0.045 C 
HETATM   11  C   UNL     1     -43.463  58.785 -53.355  1.00  0.00     0.022 C 
HETATM   12  C   UNL     1     -41.553  57.354 -54.133  1.00  0.00     0.039 C 
HETATM   13  C   UNL     1     -41.030  56.033 -54.693  1.00  0.00     0.236 C 
ENDROOT
BRANCH   7  14
HETATM   14  C   UNL     1     -45.477  58.288 -57.155  1.00  0.00     0.188 A 
HETATM   15  C   UNL     1     -46.877  57.840 -57.467  1.00  0.00     0.035 A 
HETATM   16  C   UNL     1     -46.549  59.306 -57.422  1.00  0.00     0.035 A 
ENDBRANCH   7  14
BRANCH  10  17
HETATM   17  C   UNL     1     -45.221  60.476 -52.682  1.00  0.00    -0.052 A 
HETATM   18  C   UNL     1     -44.160  61.310 -52.293  1.00  0.00     0.007 A 
HETATM   19  C   UNL     1     -44.399  62.459 -51.538  1.00  0.00     0.001 A 
HETATM   20  C   UNL     1     -45.697  62.792 -51.161  1.00  0.00     0.000 A 
HETATM   21  C   UNL     1     -46.759  61.978 -51.541  1.00  0.00     0.001 A 
HETATM   22  C   UNL     1     -46.526  60.828 -52.297  1.00  0.00     0.007 A 
ENDBRANCH  10  17
BRANCH   1  23
HETATM   23  C   UNL     1     -41.172  54.544 -52.644  1.00  0.00     0.277 C 
BRANCH  23  24
HETATM   24  C   UNL     1     -40.614  53.173 -52.593  1.00  0.00     0.011 A 
HETATM   25  C   UNL     1     -40.278  52.400 -51.488  1.00  0.00     0.035 A 
HETATM   26  C   UNL     1     -40.427  52.641 -50.028  1.00  0.00     0.070 C 
HETATM   27  N   UNL     1     -39.757  51.229 -51.996  1.00  0.00    -0.278 N 
HETATM   28  C   UNL     1     -39.261  50.072 -51.282  1.00  0.00     0.179 C 
HETATM   29  N   UNL     1     -39.721  51.218 -53.338  1.00  0.00    -0.185 NA
HETATM   30  C   UNL     1     -40.293  52.359 -53.701  1.00  0.00     0.149 A 
ENDBRANCH  23  24
ENDBRANCH   1  23
TORSDOF 4
ENDMDL
