MODEL 1
REMARK VINA RESULT:      -8.6      0.000      0.000
REMARK  8 active torsions:
REMARK  status: ('A' for Active; 'I' for Inactive)
REMARK    1  A    between atoms: C_4  and  C_5 
REMARK    2  A    between atoms: C_5  and  N_6 
REMARK       I    between atoms: N_6  and  C_7 
REMARK       I    between atoms: C_7  and  N_8 
REMARK       I    between atoms: N_8  and  C_9 
REMARK    3  A    between atoms: C_9  and  C_10 
REMARK    4  A    between atoms: C_10  and  S_11 
REMARK    5  A    between atoms: S_11  and  C_12 
REMARK    6  A    between atoms: N_13  and  C_14 
REMARK    7  A    between atoms: C_21  and  C_22 
REMARK    8  A    between atoms: C_22  and  N_23 
ROOT
HETATM    1  C   UNL     1     -43.646  56.873 -54.031  1.00  0.00     0.196 A 
HETATM    2  N   UNL     1     -43.583  57.423 -55.298  1.00  0.00    -0.274 N 
HETATM    3  C   UNL     1     -43.280  56.341 -56.115  1.00  0.00     0.161 A 
HETATM    4  N   UNL     1     -43.152  55.250 -55.384  1.00  0.00    -0.132 NA
HETATM    5  N   UNL     1     -43.391  55.585 -54.080  1.00  0.00    -0.122 NA
ENDROOT
BRANCH   1   6
HETATM    6  S   UNL     1     -44.222  57.713 -52.630  1.00  0.00    -0.080 SA
BRANCH   6   7
HETATM    7  C   UNL     1     -43.113  57.060 -51.343  1.00  0.00     0.185 C 
BRANCH   7   8
HETATM    8  C   UNL     1     -43.694  55.831 -50.649  1.00  0.00     0.235 C 
HETATM    9  N   UNL     1     -42.874  54.737 -50.461  1.00  0.00    -0.279 N 
HETATM   10  C   UNL     1     -41.571  54.550 -50.865  1.00  0.00     0.323 C 
HETATM   11  H   UNL     1     -43.347  53.946 -50.055  1.00  0.00     0.173 HD
HETATM   12  N   UNL     1     -41.133  53.275 -50.611  1.00  0.00    -0.339 N 
HETATM   13  O   UNL     1     -40.879  55.401 -51.406  1.00  0.00    -0.247 OA
HETATM   14  H   UNL     1     -41.537  52.773 -49.834  1.00  0.00     0.164 HD
HETATM   15  O   UNL     1     -44.856  55.759 -50.237  1.00  0.00    -0.272 OA
BRANCH  12  16
HETATM   16  C   UNL     1     -39.787  52.887 -50.981  1.00  0.00     0.162 C 
BRANCH  16  17
HETATM   17  C   UNL     1     -39.816  51.853 -52.074  1.00  0.00    -0.040 A 
HETATM   18  C   UNL     1     -40.153  52.217 -53.386  1.00  0.00     0.009 A 
HETATM   19  C   UNL     1     -40.204  51.256 -54.397  1.00  0.00     0.001 A 
HETATM   20  C   UNL     1     -39.923  49.923 -54.107  1.00  0.00     0.000 A 
HETATM   21  C   UNL     1     -39.591  49.548 -52.805  1.00  0.00     0.001 A 
HETATM   22  C   UNL     1     -39.540  50.508 -51.793  1.00  0.00     0.009 A 
ENDBRANCH  16  17
ENDBRANCH  12  16
ENDBRANCH   7   8
ENDBRANCH   6   7
ENDBRANCH   1   6
BRANCH   2  23
HETATM   23  C   UNL     1     -43.735  58.776 -55.693  1.00  0.00     0.043 A 
HETATM   24  C   UNL     1     -45.013  59.285 -55.961  1.00  0.00     0.032 A 
HETATM   25  C   UNL     1     -45.167  60.622 -56.337  1.00  0.00     0.026 A 
HETATM   26  C   UNL     1     -44.051  61.445 -56.454  1.00  0.00     0.034 A 
HETATM   27 CL   UNL     1     -44.241  63.088 -56.917  1.00  0.00    -0.084 Cl
HETATM   28  C   UNL     1     -42.775  60.941 -56.201  1.00  0.00     0.026 A 
HETATM   29  C   UNL     1     -42.613  59.606 -55.820  1.00  0.00     0.032 A 
ENDBRANCH   2  23
BRANCH   3  30
HETATM   30  C   UNL     1     -42.965  56.394 -57.567  1.00  0.00     0.315 C 
BRANCH  30  31
HETATM   31  N   UNL     1     -44.166  55.995 -58.421  1.00  0.00    -0.064 N 
HETATM   32  H   UNL     1     -44.793  55.500 -57.766  1.00  0.00     0.280 HD
HETATM   33  C   UNL     1     -44.939  57.197 -58.919  1.00  0.00     0.235 C 
HETATM   34  C   UNL     1     -46.192  56.732 -59.646  1.00  0.00     0.028 C 
HETATM   35  C   UNL     1     -45.858  55.769 -60.779  1.00  0.00     0.003 C 
HETATM   36  C   UNL     1     -45.035  54.592 -60.270  1.00  0.00     0.028 C 
HETATM   37  C   UNL     1     -43.787  55.050 -59.528  1.00  0.00     0.235 C 
ENDBRANCH  30  31
ENDBRANCH   3  30
TORSDOF 8
ENDMDL
MODEL 2
REMARK VINA RESULT:      -8.4      3.553      6.615
REMARK  8 active torsions:
REMARK  status: ('A' for Active; 'I' for Inactive)
REMARK    1  A    between atoms: C_4  and  C_5 
REMARK    2  A    between atoms: C_5  and  N_6 
REMARK       I    between atoms: N_6  and  C_7 
REMARK       I    between atoms: C_7  and  N_8 
REMARK       I    between atoms: N_8  and  C_9 
REMARK    3  A    between atoms: C_9  and  C_10 
REMARK    4  A    between atoms: C_10  and  S_11 
REMARK    5  A    between atoms: S_11  and  C_12 
REMARK    6  A    between atoms: N_13  and  C_14 
REMARK    7  A    between atoms: C_21  and  C_22 
REMARK    8  A    between atoms: C_22  and  N_23 
ROOT
HETATM    1  C   UNL     1     -42.271  60.425 -53.751  1.00  0.00     0.196 A 
HETATM    2  N   UNL     1     -42.308  60.043 -52.422  1.00  0.00    -0.274 N 
HETATM    3  C   UNL     1     -41.257  59.141 -52.308  1.00  0.00     0.161 A 
HETATM    4  N   UNL     1     -40.668  58.990 -53.479  1.00  0.00    -0.132 NA
HETATM    5  N   UNL     1     -41.300  59.802 -54.378  1.00  0.00    -0.122 NA
ENDROOT
BRANCH   1   6
HETATM    6  S   UNL     1     -43.208  61.720 -54.420  1.00  0.00    -0.080 SA
BRANCH   6   7
HETATM    7  C   UNL     1     -44.587  60.807 -55.178  1.00  0.00     0.185 C 
BRANCH   7   8
HETATM    8  C   UNL     1     -44.185  60.138 -56.490  1.00  0.00     0.235 C 
HETATM    9  N   UNL     1     -44.064  58.764 -56.514  1.00  0.00    -0.279 N 
HETATM   10  C   UNL     1     -44.204  57.863 -55.482  1.00  0.00     0.323 C 
HETATM   11  H   UNL     1     -43.735  58.405 -57.395  1.00  0.00     0.173 HD
HETATM   12  N   UNL     1     -43.874  56.587 -55.866  1.00  0.00    -0.339 N 
HETATM   13  O   UNL     1     -44.557  58.151 -54.347  1.00  0.00    -0.247 OA
HETATM   14  H   UNL     1     -44.002  56.328 -56.833  1.00  0.00     0.164 HD
HETATM   15  O   UNL     1     -43.968  60.755 -57.538  1.00  0.00    -0.272 OA
BRANCH  12  16
HETATM   16  C   UNL     1     -43.947  55.503 -54.908  1.00  0.00     0.162 C 
BRANCH  16  17
HETATM   17  C   UNL     1     -42.602  54.850 -54.745  1.00  0.00    -0.040 A 
HETATM   18  C   UNL     1     -41.427  55.609 -54.848  1.00  0.00     0.009 A 
HETATM   19  C   UNL     1     -40.177  55.001 -54.721  1.00  0.00     0.001 A 
HETATM   20  C   UNL     1     -40.088  53.629 -54.495  1.00  0.00     0.000 A 
HETATM   21  C   UNL     1     -41.249  52.863 -54.396  1.00  0.00     0.001 A 
HETATM   22  C   UNL     1     -42.500  53.469 -54.522  1.00  0.00     0.009 A 
ENDBRANCH  16  17
ENDBRANCH  12  16
ENDBRANCH   7   8
ENDBRANCH   6   7
ENDBRANCH   1   6
BRANCH   2  23
HETATM   23  C   UNL     1     -43.222  60.423 -51.408  1.00  0.00     0.043 A 
HETATM   24  C   UNL     1     -44.449  59.756 -51.290  1.00  0.00     0.032 A 
HETATM   25  C   UNL     1     -45.347  60.120 -50.283  1.00  0.00     0.026 A 
HETATM   26  C   UNL     1     -45.026  61.149 -49.403  1.00  0.00     0.034 A 
HETATM   27 CL   UNL     1     -46.130  61.596 -48.166  1.00  0.00    -0.084 Cl
HETATM   28  C   UNL     1     -43.812  61.825 -49.524  1.00  0.00     0.026 A 
HETATM   29  C   UNL     1     -42.906  61.464 -50.526  1.00  0.00     0.032 A 
ENDBRANCH   2  23
BRANCH   3  30
HETATM   30  C   UNL     1     -40.928  58.320 -51.114  1.00  0.00     0.315 C 
BRANCH  30  31
HETATM   31  N   UNL     1     -41.359  56.866 -51.292  1.00  0.00    -0.064 N 
HETATM   32  H   UNL     1     -41.210  56.676 -52.297  1.00  0.00     0.280 HD
HETATM   33  C   UNL     1     -40.460  55.907 -50.543  1.00  0.00     0.235 C 
HETATM   34  C   UNL     1     -40.858  54.475 -50.869  1.00  0.00     0.028 C 
HETATM   35  C   UNL     1     -42.329  54.220 -50.565  1.00  0.00     0.003 C 
HETATM   36  C   UNL     1     -43.218  55.226 -51.286  1.00  0.00     0.028 C 
HETATM   37  C   UNL     1     -42.815  56.662 -50.976  1.00  0.00     0.235 C 
ENDBRANCH  30  31
ENDBRANCH   3  30
TORSDOF 8
ENDMDL
MODEL 3
REMARK VINA RESULT:      -8.4      4.524      9.485
REMARK  8 active torsions:
REMARK  status: ('A' for Active; 'I' for Inactive)
REMARK    1  A    between atoms: C_4  and  C_5 
REMARK    2  A    between atoms: C_5  and  N_6 
REMARK       I    between atoms: N_6  and  C_7 
REMARK       I    between atoms: C_7  and  N_8 
REMARK       I    between atoms: N_8  and  C_9 
REMARK    3  A    between atoms: C_9  and  C_10 
REMARK    4  A    between atoms: C_10  and  S_11 
REMARK    5  A    between atoms: S_11  and  C_12 
REMARK    6  A    between atoms: N_13  and  C_14 
REMARK    7  A    between atoms: C_21  and  C_22 
REMARK    8  A    between atoms: C_22  and  N_23 
ROOT
HETATM    1  C   UNL     1     -42.704  56.516 -56.421  1.00  0.00     0.196 A 
HETATM    2  N   UNL     1     -42.527  56.322 -55.064  1.00  0.00    -0.274 N 
HETATM    3  C   UNL     1     -42.724  54.957 -54.894  1.00  0.00     0.161 A 
HETATM    4  N   UNL     1     -43.017  54.401 -56.054  1.00  0.00    -0.132 NA
HETATM    5  N   UNL     1     -42.994  55.377 -57.010  1.00  0.00    -0.122 NA
ENDROOT
BRANCH   1   6
HETATM    6  S   UNL     1     -42.348  57.994 -57.252  1.00  0.00    -0.080 SA
BRANCH   6   7
HETATM    7  C   UNL     1     -43.218  57.734 -58.829  1.00  0.00     0.185 C 
BRANCH   7   8
HETATM    8  C   UNL     1     -42.262  57.371 -59.962  1.00  0.00     0.235 C 
HETATM    9  N   UNL     1     -41.784  58.386 -60.766  1.00  0.00    -0.279 N 
HETATM   10  C   UNL     1     -42.087  59.729 -60.738  1.00  0.00     0.323 C 
HETATM   11  H   UNL     1     -41.212  58.060 -61.527  1.00  0.00     0.173 HD
HETATM   12  N   UNL     1     -41.513  60.406 -61.785  1.00  0.00    -0.339 N 
HETATM   13  O   UNL     1     -42.798  60.267 -59.901  1.00  0.00    -0.247 OA
HETATM   14  H   UNL     1     -40.650  60.053 -62.171  1.00  0.00     0.164 HD
HETATM   15  O   UNL     1     -41.883  56.220 -60.201  1.00  0.00    -0.272 OA
BRANCH  12  16
HETATM   16  C   UNL     1     -41.732  61.831 -61.930  1.00  0.00     0.162 C 
BRANCH  16  17
HETATM   17  C   UNL     1     -40.508  62.599 -61.510  1.00  0.00    -0.040 A 
HETATM   18  C   UNL     1     -40.285  62.894 -60.156  1.00  0.00     0.009 A 
HETATM   19  C   UNL     1     -39.163  63.627 -59.767  1.00  0.00     0.001 A 
HETATM   20  C   UNL     1     -38.256  64.076 -60.725  1.00  0.00     0.000 A 
HETATM   21  C   UNL     1     -38.470  63.794 -62.074  1.00  0.00     0.001 A 
HETATM   22  C   UNL     1     -39.592  63.060 -62.465  1.00  0.00     0.009 A 
ENDBRANCH  16  17
ENDBRANCH  12  16
ENDBRANCH   7   8
ENDBRANCH   6   7
ENDBRANCH   1   6
BRANCH   2  23
HETATM   23  C   UNL     1     -42.260  57.279 -54.052  1.00  0.00     0.043 A 
HETATM   24  C   UNL     1     -43.322  57.944 -53.425  1.00  0.00     0.032 A 
HETATM   25  C   UNL     1     -43.063  58.878 -52.418  1.00  0.00     0.026 A 
HETATM   26  C   UNL     1     -41.750  59.153 -52.045  1.00  0.00     0.034 A 
HETATM   27 CL   UNL     1     -41.432  60.302 -50.809  1.00  0.00    -0.084 Cl
HETATM   28  C   UNL     1     -40.689  58.503 -52.675  1.00  0.00     0.026 A 
HETATM   29  C   UNL     1     -40.940  57.565 -53.680  1.00  0.00     0.032 A 
ENDBRANCH   2  23
BRANCH   3  30
HETATM   30  C   UNL     1     -42.782  54.230 -53.600  1.00  0.00     0.315 C 
BRANCH  30  31
HETATM   31  N   UNL     1     -41.428  53.630 -53.227  1.00  0.00    -0.064 N 
HETATM   32  H   UNL     1     -40.743  54.353 -53.505  1.00  0.00     0.280 HD
HETATM   33  C   UNL     1     -41.273  53.451 -51.733  1.00  0.00     0.235 C 
HETATM   34  C   UNL     1     -39.860  52.980 -51.419  1.00  0.00     0.028 C 
HETATM   35  C   UNL     1     -39.515  51.704 -52.177  1.00  0.00     0.003 C 
HETATM   36  C   UNL     1     -39.727  51.884 -53.675  1.00  0.00     0.028 C 
HETATM   37  C   UNL     1     -41.133  52.371 -53.995  1.00  0.00     0.235 C 
ENDBRANCH  30  31
ENDBRANCH   3  30
TORSDOF 8
ENDMDL
MODEL 4
REMARK VINA RESULT:      -8.3      4.881      9.902
REMARK  8 active torsions:
REMARK  status: ('A' for Active; 'I' for Inactive)
REMARK    1  A    between atoms: C_4  and  C_5 
REMARK    2  A    between atoms: C_5  and  N_6 
REMARK       I    between atoms: N_6  and  C_7 
REMARK       I    between atoms: C_7  and  N_8 
REMARK       I    between atoms: N_8  and  C_9 
REMARK    3  A    between atoms: C_9  and  C_10 
REMARK    4  A    between atoms: C_10  and  S_11 
REMARK    5  A    between atoms: S_11  and  C_12 
REMARK    6  A    between atoms: N_13  and  C_14 
REMARK    7  A    between atoms: C_21  and  C_22 
REMARK    8  A    between atoms: C_22  and  N_23 
ROOT
HETATM    1  C   UNL     1     -42.532  57.253 -56.261  1.00  0.00     0.196 A 
HETATM    2  N   UNL     1     -41.960  56.687 -55.136  1.00  0.00    -0.274 N 
HETATM    3  C   UNL     1     -41.781  57.764 -54.277  1.00  0.00     0.161 A 
HETATM    4  N   UNL     1     -42.191  58.874 -54.860  1.00  0.00    -0.132 NA
HETATM    5  N   UNL     1     -42.670  58.549 -56.099  1.00  0.00    -0.122 NA
ENDROOT
BRANCH   1   6
HETATM    6  S   UNL     1     -43.196  56.347 -57.580  1.00  0.00    -0.080 SA
BRANCH   6   7
HETATM    7  C   UNL     1     -43.236  57.608 -58.892  1.00  0.00     0.185 C 
BRANCH   7   8
HETATM    8  C   UNL     1     -42.265  57.293 -60.026  1.00  0.00     0.235 C 
HETATM    9  N   UNL     1     -41.800  58.337 -60.799  1.00  0.00    -0.279 N 
HETATM   10  C   UNL     1     -42.129  59.673 -60.739  1.00  0.00     0.323 C 
HETATM   11  H   UNL     1     -41.215  58.042 -61.563  1.00  0.00     0.173 HD
HETATM   12  N   UNL     1     -41.561  60.388 -61.764  1.00  0.00    -0.339 N 
HETATM   13  O   UNL     1     -42.858  60.176 -59.895  1.00  0.00    -0.247 OA
HETATM   14  H   UNL     1     -40.688  60.061 -62.151  1.00  0.00     0.164 HD
HETATM   15  O   UNL     1     -41.861  56.156 -60.290  1.00  0.00    -0.272 OA
BRANCH  12  16
HETATM   16  C   UNL     1     -41.806  61.811 -61.874  1.00  0.00     0.162 C 
BRANCH  16  17
HETATM   17  C   UNL     1     -40.603  62.592 -61.421  1.00  0.00    -0.040 A 
HETATM   18  C   UNL     1     -39.709  63.128 -62.362  1.00  0.00     0.009 A 
HETATM   19  C   UNL     1     -38.579  63.832 -61.944  1.00  0.00     0.001 A 
HETATM   20  C   UNL     1     -38.328  64.005 -60.584  1.00  0.00     0.000 A 
HETATM   21  C   UNL     1     -39.206  63.474 -59.641  1.00  0.00     0.001 A 
HETATM   22  C   UNL     1     -40.337  62.768 -60.056  1.00  0.00     0.009 A 
ENDBRANCH  16  17
ENDBRANCH  12  16
ENDBRANCH   7   8
ENDBRANCH   6   7
ENDBRANCH   1   6
BRANCH   2  23
HETATM   23  C   UNL     1     -41.586  55.339 -54.907  1.00  0.00     0.043 A 
HETATM   24  C   UNL     1     -42.562  54.393 -54.567  1.00  0.00     0.032 A 
HETATM   25  C   UNL     1     -42.199  53.060 -54.354  1.00  0.00     0.026 A 
HETATM   26  C   UNL     1     -40.866  52.676 -54.471  1.00  0.00     0.034 A 
HETATM   27 CL   UNL     1     -40.419  51.038 -54.208  1.00  0.00    -0.084 Cl
HETATM   28  C   UNL     1     -39.888  53.616 -54.796  1.00  0.00     0.026 A 
HETATM   29  C   UNL     1     -40.244  54.950 -55.015  1.00  0.00     0.032 A 
ENDBRANCH   2  23
BRANCH   3  30
HETATM   30  C   UNL     1     -41.076  57.739 -52.969  1.00  0.00     0.315 C 
BRANCH  30  31
HETATM   31  N   UNL     1     -41.945  57.134 -51.869  1.00  0.00    -0.064 N 
HETATM   32  H   UNL     1     -41.825  57.775 -51.067  1.00  0.00     0.280 HD
HETATM   33  C   UNL     1     -43.416  57.167 -52.220  1.00  0.00     0.235 C 
HETATM   34  C   UNL     1     -44.235  56.678 -51.034  1.00  0.00     0.028 C 
HETATM   35  C   UNL     1     -43.794  55.290 -50.584  1.00  0.00     0.003 C 
HETATM   36  C   UNL     1     -42.300  55.262 -50.284  1.00  0.00     0.028 C 
HETATM   37  C   UNL     1     -41.476  55.765 -51.462  1.00  0.00     0.235 C 
ENDBRANCH  30  31
ENDBRANCH   3  30
TORSDOF 8
ENDMDL
MODEL 5
REMARK VINA RESULT:      -8.3      2.821      4.170
REMARK  8 active torsions:
REMARK  status: ('A' for Active; 'I' for Inactive)
REMARK    1  A    between atoms: C_4  and  C_5 
REMARK    2  A    between atoms: C_5  and  N_6 
REMARK       I    between atoms: N_6  and  C_7 
REMARK       I    between atoms: C_7  and  N_8 
REMARK       I    between atoms: N_8  and  C_9 
REMARK    3  A    between atoms: C_9  and  C_10 
REMARK    4  A    between atoms: C_10  and  S_11 
REMARK    5  A    between atoms: S_11  and  C_12 
REMARK    6  A    between atoms: N_13  and  C_14 
REMARK    7  A    between atoms: C_21  and  C_22 
REMARK    8  A    between atoms: C_22  and  N_23 
ROOT
HETATM    1  C   UNL     1     -41.828  58.887 -53.605  1.00  0.00     0.196 A 
HETATM    2  N   UNL     1     -42.314  57.973 -54.521  1.00  0.00    -0.274 N 
HETATM    3  C   UNL     1     -43.049  58.750 -55.408  1.00  0.00     0.161 A 
HETATM    4  N   UNL     1     -43.015  60.014 -55.028  1.00  0.00    -0.132 NA
HETATM    5  N   UNL     1     -42.242  60.097 -53.904  1.00  0.00    -0.122 NA
ENDROOT
BRANCH   1   6
HETATM    6  S   UNL     1     -40.644  58.520 -52.394  1.00  0.00    -0.080 SA
BRANCH   6   7
HETATM    7  C   UNL     1     -41.668  58.506 -50.889  1.00  0.00     0.185 C 
BRANCH   7   8
HETATM    8  C   UNL     1     -42.854  57.554 -51.007  1.00  0.00     0.235 C 
HETATM    9  N   UNL     1     -42.711  56.268 -50.527  1.00  0.00    -0.279 N 
HETATM   10  C   UNL     1     -41.600  55.665 -49.981  1.00  0.00     0.323 C 
HETATM   11  H   UNL     1     -43.513  55.684 -50.698  1.00  0.00     0.173 HD
HETATM   12  N   UNL     1     -41.805  54.329 -49.744  1.00  0.00    -0.339 N 
HETATM   13  O   UNL     1     -40.541  56.231 -49.750  1.00  0.00    -0.247 OA
HETATM   14  H   UNL     1     -42.744  54.014 -49.547  1.00  0.00     0.164 HD
HETATM   15  O   UNL     1     -43.943  57.867 -51.500  1.00  0.00    -0.272 OA
BRANCH  12  16
HETATM   16  C   UNL     1     -40.741  53.523 -49.182  1.00  0.00     0.162 C 
BRANCH  16  17
HETATM   17  C   UNL     1     -40.310  52.462 -50.158  1.00  0.00    -0.040 A 
HETATM   18  C   UNL     1     -40.357  51.106 -49.799  1.00  0.00     0.009 A 
HETATM   19  C   UNL     1     -39.935  50.122 -50.694  1.00  0.00     0.001 A 
HETATM   20  C   UNL     1     -39.458  50.481 -51.953  1.00  0.00     0.000 A 
HETATM   21  C   UNL     1     -39.403  51.825 -52.319  1.00  0.00     0.001 A 
HETATM   22  C   UNL     1     -39.824  52.812 -51.426  1.00  0.00     0.009 A 
ENDBRANCH  16  17
ENDBRANCH  12  16
ENDBRANCH   7   8
ENDBRANCH   6   7
ENDBRANCH   1   6
BRANCH   2  23
HETATM   23  C   UNL     1     -42.161  56.563 -54.545  1.00  0.00     0.043 A 
HETATM   24  C   UNL     1     -40.945  56.002 -54.960  1.00  0.00     0.032 A 
HETATM   25  C   UNL     1     -40.786  54.614 -54.971  1.00  0.00     0.026 A 
HETATM   26  C   UNL     1     -41.837  53.790 -54.579  1.00  0.00     0.034 A 
HETATM   27 CL   UNL     1     -41.640  52.083 -54.594  1.00  0.00    -0.084 Cl
HETATM   28  C   UNL     1     -43.052  54.343 -54.177  1.00  0.00     0.026 A 
HETATM   29  C   UNL     1     -43.219  55.730 -54.159  1.00  0.00     0.032 A 
ENDBRANCH   2  23
BRANCH   3  30
HETATM   30  C   UNL     1     -43.901  58.252 -56.519  1.00  0.00     0.315 C 
BRANCH  30  31
HETATM   31  N   UNL     1     -43.064  57.667 -57.654  1.00  0.00    -0.064 N 
HETATM   32  H   UNL     1     -42.179  57.385 -57.201  1.00  0.00     0.280 HD
HETATM   33  C   UNL     1     -43.672  56.403 -58.221  1.00  0.00     0.235 C 
HETATM   34  C   UNL     1     -42.727  55.799 -59.249  1.00  0.00     0.028 C 
HETATM   35  C   UNL     1     -42.383  56.798 -60.347  1.00  0.00     0.003 C 
HETATM   36  C   UNL     1     -41.821  58.086 -59.757  1.00  0.00     0.028 C 
HETATM   37  C   UNL     1     -42.754  58.687 -58.715  1.00  0.00     0.235 C 
ENDBRANCH  30  31
ENDBRANCH   3  30
TORSDOF 8
ENDMDL
MODEL 6
REMARK VINA RESULT:      -8.2      2.033      2.656
REMARK  8 active torsions:
REMARK  status: ('A' for Active; 'I' for Inactive)
REMARK    1  A    between atoms: C_4  and  C_5 
REMARK    2  A    between atoms: C_5  and  N_6 
REMARK       I    between atoms: N_6  and  C_7 
REMARK       I    between atoms: C_7  and  N_8 
REMARK       I    between atoms: N_8  and  C_9 
REMARK    3  A    between atoms: C_9  and  C_10 
REMARK    4  A    between atoms: C_10  and  S_11 
REMARK    5  A    between atoms: S_11  and  C_12 
REMARK    6  A    between atoms: N_13  and  C_14 
REMARK    7  A    between atoms: C_21  and  C_22 
REMARK    8  A    between atoms: C_22  and  N_23 
ROOT
HETATM    1  C   UNL     1     -43.842  59.083 -54.492  1.00  0.00     0.196 A 
HETATM    2  N   UNL     1     -44.000  59.465 -55.811  1.00  0.00    -0.274 N 
HETATM    3  C   UNL     1     -45.043  58.667 -56.266  1.00  0.00     0.161 A 
HETATM    4  N   UNL     1     -45.447  57.866 -55.298  1.00  0.00    -0.132 NA
HETATM    5  N   UNL     1     -44.700  58.135 -54.186  1.00  0.00    -0.122 NA
ENDROOT
BRANCH   1   6
HETATM    6  S   UNL     1     -42.836  59.909 -53.349  1.00  0.00    -0.080 SA
BRANCH   6   7
HETATM    7  C   UNL     1     -41.417  58.775 -53.241  1.00  0.00     0.185 C 
BRANCH   7   8
HETATM    8  C   UNL     1     -41.468  57.905 -51.988  1.00  0.00     0.235 C 
HETATM    9  N   UNL     1     -41.214  56.555 -52.118  1.00  0.00    -0.279 N 
HETATM   10  C   UNL     1     -40.962  55.826 -53.259  1.00  0.00     0.323 C 
HETATM   11  H   UNL     1     -41.329  56.040 -51.260  1.00  0.00     0.173 HD
HETATM   12  N   UNL     1     -40.891  54.480 -53.002  1.00  0.00    -0.339 N 
HETATM   13  O   UNL     1     -40.835  56.303 -54.377  1.00  0.00    -0.247 OA
HETATM   14  H   UNL     1     -40.585  54.180 -52.088  1.00  0.00     0.164 HD
HETATM   15  O   UNL     1     -41.716  58.339 -50.858  1.00  0.00    -0.272 OA
BRANCH  12  16
HETATM   16  C   UNL     1     -40.646  53.550 -54.086  1.00  0.00     0.162 C 
BRANCH  16  17
HETATM   17  C   UNL     1     -40.241  52.205 -53.547  1.00  0.00    -0.040 A 
HETATM   18  C   UNL     1     -40.276  51.070 -54.372  1.00  0.00     0.009 A 
HETATM   19  C   UNL     1     -39.924  49.817 -53.869  1.00  0.00     0.001 A 
HETATM   20  C   UNL     1     -39.539  49.684 -52.536  1.00  0.00     0.000 A 
HETATM   21  C   UNL     1     -39.505  50.803 -51.705  1.00  0.00     0.001 A 
HETATM   22  C   UNL     1     -39.857  52.058 -52.207  1.00  0.00     0.009 A 
ENDBRANCH  16  17
ENDBRANCH  12  16
ENDBRANCH   7   8
ENDBRANCH   6   7
ENDBRANCH   1   6
BRANCH   2  23
HETATM   23  C   UNL     1     -43.253  60.407 -56.564  1.00  0.00     0.043 A 
HETATM   24  C   UNL     1     -42.070  60.009 -57.200  1.00  0.00     0.032 A 
HETATM   25  C   UNL     1     -41.339  60.931 -57.954  1.00  0.00     0.026 A 
HETATM   26  C   UNL     1     -41.783  62.246 -58.065  1.00  0.00     0.034 A 
HETATM   27 CL   UNL     1     -40.884  63.379 -58.991  1.00  0.00    -0.084 Cl
HETATM   28  C   UNL     1     -42.953  62.650 -57.423  1.00  0.00     0.026 A 
HETATM   29  C   UNL     1     -43.692  61.733 -56.671  1.00  0.00     0.032 A 
ENDBRANCH   2  23
BRANCH   3  30
HETATM   30  C   UNL     1     -45.535  58.574 -57.665  1.00  0.00     0.315 C 
BRANCH  30  31
HETATM   31  N   UNL     1     -45.230  57.211 -58.282  1.00  0.00    -0.064 N 
HETATM   32  H   UNL     1     -45.625  56.532 -57.610  1.00  0.00     0.280 HD
HETATM   33  C   UNL     1     -45.966  56.994 -59.585  1.00  0.00     0.235 C 
HETATM   34  C   UNL     1     -45.728  55.574 -60.076  1.00  0.00     0.028 C 
HETATM   35  C   UNL     1     -44.241  55.272 -60.214  1.00  0.00     0.003 C 
HETATM   36  C   UNL     1     -43.505  55.544 -58.908  1.00  0.00     0.028 C 
HETATM   37  C   UNL     1     -43.752  56.959 -58.402  1.00  0.00     0.235 C 
ENDBRANCH  30  31
ENDBRANCH   3  30
TORSDOF 8
ENDMDL
MODEL 7
REMARK VINA RESULT:      -8.2      2.897      5.645
REMARK  8 active torsions:
REMARK  status: ('A' for Active; 'I' for Inactive)
REMARK    1  A    between atoms: C_4  and  C_5 
REMARK    2  A    between atoms: C_5  and  N_6 
REMARK       I    between atoms: N_6  and  C_7 
REMARK       I    between atoms: C_7  and  N_8 
REMARK       I    between atoms: N_8  and  C_9 
REMARK    3  A    between atoms: C_9  and  C_10 
REMARK    4  A    between atoms: C_10  and  S_11 
REMARK    5  A    between atoms: S_11  and  C_12 
REMARK    6  A    between atoms: N_13  and  C_14 
REMARK    7  A    between atoms: C_21  and  C_22 
REMARK    8  A    between atoms: C_22  and  N_23 
ROOT
HETATM    1  C   UNL     1     -44.612  58.634 -56.910  1.00  0.00     0.196 A 
HETATM    2  N   UNL     1     -43.854  59.637 -56.335  1.00  0.00    -0.274 N 
HETATM    3  C   UNL     1     -44.076  59.483 -54.973  1.00  0.00     0.161 A 
HETATM    4  N   UNL     1     -44.916  58.486 -54.767  1.00  0.00    -0.132 NA
HETATM    5  N   UNL     1     -45.242  57.950 -55.981  1.00  0.00    -0.122 NA
ENDROOT
BRANCH   1   6
HETATM    6  S   UNL     1     -44.540  58.192 -58.583  1.00  0.00    -0.080 SA
BRANCH   6   7
HETATM    7  C   UNL     1     -43.123  57.051 -58.588  1.00  0.00     0.185 C 
BRANCH   7   8
HETATM    8  C   UNL     1     -43.548  55.601 -58.375  1.00  0.00     0.235 C 
HETATM    9  N   UNL     1     -43.232  54.996 -57.176  1.00  0.00    -0.279 N 
HETATM   10  C   UNL     1     -42.516  55.500 -56.112  1.00  0.00     0.323 C 
HETATM   11  H   UNL     1     -43.489  54.023 -57.136  1.00  0.00     0.173 HD
HETATM   12  N   UNL     1     -42.293  54.550 -55.147  1.00  0.00    -0.339 N 
HETATM   13  O   UNL     1     -42.102  56.647 -56.031  1.00  0.00    -0.247 OA
HETATM   14  H   UNL     1     -42.965  53.803 -55.044  1.00  0.00     0.164 HD
HETATM   15  O   UNL     1     -44.167  54.935 -59.211  1.00  0.00    -0.272 OA
BRANCH  12  16
HETATM   16  C   UNL     1     -41.543  54.892 -53.957  1.00  0.00     0.162 C 
BRANCH  16  17
HETATM   17  C   UNL     1     -40.807  53.690 -53.431  1.00  0.00    -0.040 A 
HETATM   18  C   UNL     1     -40.467  52.634 -54.291  1.00  0.00     0.009 A 
HETATM   19  C   UNL     1     -39.806  51.507 -53.801  1.00  0.00     0.001 A 
HETATM   20  C   UNL     1     -39.481  51.421 -52.449  1.00  0.00     0.000 A 
HETATM   21  C   UNL     1     -39.817  52.462 -51.584  1.00  0.00     0.001 A 
HETATM   22  C   UNL     1     -40.479  53.590 -52.072  1.00  0.00     0.009 A 
ENDBRANCH  16  17
ENDBRANCH  12  16
ENDBRANCH   7   8
ENDBRANCH   6   7
ENDBRANCH   1   6
BRANCH   2  23
HETATM   23  C   UNL     1     -43.068  60.635 -56.965  1.00  0.00     0.043 A 
HETATM   24  C   UNL     1     -43.582  61.929 -57.125  1.00  0.00     0.032 A 
HETATM   25  C   UNL     1     -42.805  62.919 -57.733  1.00  0.00     0.026 A 
HETATM   26  C   UNL     1     -41.524  62.616 -58.188  1.00  0.00     0.034 A 
HETATM   27 CL   UNL     1     -40.570  63.832 -58.936  1.00  0.00    -0.084 Cl
HETATM   28  C   UNL     1     -41.013  61.326 -58.043  1.00  0.00     0.026 A 
HETATM   29  C   UNL     1     -41.782  60.332 -57.431  1.00  0.00     0.032 A 
ENDBRANCH   2  23
BRANCH   3  30
HETATM   30  C   UNL     1     -43.603  60.390 -53.895  1.00  0.00     0.315 C 
BRANCH  30  31
HETATM   31  N   UNL     1     -42.617  59.693 -52.961  1.00  0.00    -0.064 N 
HETATM   32  H   UNL     1     -43.101  58.824 -52.679  1.00  0.00     0.280 HD
HETATM   33  C   UNL     1     -41.357  59.261 -53.678  1.00  0.00     0.235 C 
HETATM   34  C   UNL     1     -40.479  58.457 -52.730  1.00  0.00     0.028 C 
HETATM   35  C   UNL     1     -40.164  59.240 -51.461  1.00  0.00     0.003 C 
HETATM   36  C   UNL     1     -41.442  59.712 -50.778  1.00  0.00     0.028 C 
HETATM   37  C   UNL     1     -42.332  60.504 -51.727  1.00  0.00     0.235 C 
ENDBRANCH  30  31
ENDBRANCH   3  30
TORSDOF 8
ENDMDL
MODEL 8
REMARK VINA RESULT:      -8.1      3.296      4.883
REMARK  8 active torsions:
REMARK  status: ('A' for Active; 'I' for Inactive)
REMARK    1  A    between atoms: C_4  and  C_5 
REMARK    2  A    between atoms: C_5  and  N_6 
REMARK       I    between atoms: N_6  and  C_7 
REMARK       I    between atoms: C_7  and  N_8 
REMARK       I    between atoms: N_8  and  C_9 
REMARK    3  A    between atoms: C_9  and  C_10 
REMARK    4  A    between atoms: C_10  and  S_11 
REMARK    5  A    between atoms: S_11  and  C_12 
REMARK    6  A    between atoms: N_13  and  C_14 
REMARK    7  A    between atoms: C_21  and  C_22 
REMARK    8  A    between atoms: C_22  and  N_23 
ROOT
HETATM    1  C   UNL     1     -44.385  59.860 -54.242  1.00  0.00     0.196 A 
HETATM    2  N   UNL     1     -44.042  59.073 -55.326  1.00  0.00    -0.274 N 
HETATM    3  C   UNL     1     -44.329  57.781 -54.902  1.00  0.00     0.161 A 
HETATM    4  N   UNL     1     -44.779  57.808 -53.662  1.00  0.00    -0.132 NA
HETATM    5  N   UNL     1     -44.822  59.111 -53.255  1.00  0.00    -0.122 NA
ENDROOT
BRANCH   1   6
HETATM    6  S   UNL     1     -44.461  61.590 -54.277  1.00  0.00    -0.080 SA
BRANCH   6   7
HETATM    7  C   UNL     1     -43.137  62.028 -53.108  1.00  0.00     0.185 C 
BRANCH   7   8
HETATM    8  C   UNL     1     -43.549  61.800 -51.656  1.00  0.00     0.235 C 
HETATM    9  N   UNL     1     -42.911  60.807 -50.942  1.00  0.00    -0.279 N 
HETATM   10  C   UNL     1     -41.952  59.914 -51.367  1.00  0.00     0.323 C 
HETATM   11  H   UNL     1     -43.282  60.677 -50.015  1.00  0.00     0.173 HD
HETATM   12  N   UNL     1     -41.653  58.985 -50.402  1.00  0.00    -0.339 N 
HETATM   13  O   UNL     1     -41.435  59.920 -52.474  1.00  0.00    -0.247 OA
HETATM   14  H   UNL     1     -41.759  59.248 -49.433  1.00  0.00     0.164 HD
HETATM   15  O   UNL     1     -44.419  62.459 -51.077  1.00  0.00    -0.272 OA
BRANCH  12  16
HETATM   16  C   UNL     1     -40.674  57.953 -50.672  1.00  0.00     0.162 C 
BRANCH  16  17
HETATM   17  C   UNL     1     -41.340  56.608 -50.781  1.00  0.00    -0.040 A 
HETATM   18  C   UNL     1     -42.650  56.502 -51.272  1.00  0.00     0.009 A 
HETATM   19  C   UNL     1     -43.278  55.258 -51.351  1.00  0.00     0.001 A 
HETATM   20  C   UNL     1     -42.606  54.109 -50.937  1.00  0.00     0.000 A 
HETATM   21  C   UNL     1     -41.305  54.203 -50.443  1.00  0.00     0.001 A 
HETATM   22  C   UNL     1     -40.675  55.446 -50.363  1.00  0.00     0.009 A 
ENDBRANCH  16  17
ENDBRANCH  12  16
ENDBRANCH   7   8
ENDBRANCH   6   7
ENDBRANCH   1   6
BRANCH   2  23
HETATM   23  C   UNL     1     -43.480  59.460 -56.569  1.00  0.00     0.043 A 
HETATM   24  C   UNL     1     -44.308  59.620 -57.688  1.00  0.00     0.032 A 
HETATM   25  C   UNL     1     -43.759  60.014 -58.911  1.00  0.00     0.026 A 
HETATM   26  C   UNL     1     -42.389  60.239 -59.019  1.00  0.00     0.034 A 
HETATM   27 CL   UNL     1     -41.715  60.723 -60.522  1.00  0.00    -0.084 Cl
HETATM   28  C   UNL     1     -41.559  60.069 -57.911  1.00  0.00     0.026 A 
HETATM   29  C   UNL     1     -42.101  59.679 -56.683  1.00  0.00     0.032 A 
ENDBRANCH   2  23
BRANCH   3  30
HETATM   30  C   UNL     1     -44.022  56.525 -55.634  1.00  0.00     0.315 C 
BRANCH  30  31
HETATM   31  N   UNL     1     -42.939  55.711 -54.931  1.00  0.00    -0.064 N 
HETATM   32  H   UNL     1     -43.215  55.725 -53.934  1.00  0.00     0.280 HD
HETATM   33  C   UNL     1     -42.951  54.258 -55.352  1.00  0.00     0.235 C 
HETATM   34  C   UNL     1     -41.945  53.477 -54.520  1.00  0.00     0.028 C 
HETATM   35  C   UNL     1     -40.548  54.079 -54.619  1.00  0.00     0.003 C 
HETATM   36  C   UNL     1     -40.563  55.556 -54.242  1.00  0.00     0.028 C 
HETATM   37  C   UNL     1     -41.579  56.341 -55.060  1.00  0.00     0.235 C 
ENDBRANCH  30  31
ENDBRANCH   3  30
TORSDOF 8
ENDMDL
MODEL 9
REMARK VINA RESULT:      -7.9      2.052      2.819
REMARK  8 active torsions:
REMARK  status: ('A' for Active; 'I' for Inactive)
REMARK    1  A    between atoms: C_4  and  C_5 
REMARK    2  A    between atoms: C_5  and  N_6 
REMARK       I    between atoms: N_6  and  C_7 
REMARK       I    between atoms: C_7  and  N_8 
REMARK       I    between atoms: N_8  and  C_9 
REMARK    3  A    between atoms: C_9  and  C_10 
REMARK    4  A    between atoms: C_10  and  S_11 
REMARK    5  A    between atoms: S_11  and  C_12 
REMARK    6  A    between atoms: N_13  and  C_14 
REMARK    7  A    between atoms: C_21  and  C_22 
REMARK    8  A    between atoms: C_22  and  N_23 
ROOT
HETATM    1  C   UNL     1     -43.312  58.573 -55.652  1.00  0.00     0.196 A 
HETATM    2  N   UNL     1     -43.012  58.853 -56.972  1.00  0.00    -0.274 N 
HETATM    3  C   UNL     1     -42.958  57.602 -57.573  1.00  0.00     0.161 A 
HETATM    4  N   UNL     1     -43.183  56.664 -56.673  1.00  0.00    -0.132 NA
HETATM    5  N   UNL     1     -43.414  57.275 -55.473  1.00  0.00    -0.122 NA
ENDROOT
BRANCH   1   6
HETATM    6  S   UNL     1     -43.737  59.768 -54.472  1.00  0.00    -0.080 SA
BRANCH   6   7
HETATM    7  C   UNL     1     -42.885  59.130 -52.996  1.00  0.00     0.185 C 
BRANCH   7   8
HETATM    8  C   UNL     1     -41.418  58.810 -53.270  1.00  0.00     0.235 C 
HETATM    9  N   UNL     1     -40.970  57.529 -53.023  1.00  0.00    -0.279 N 
HETATM   10  C   UNL     1     -41.656  56.457 -52.497  1.00  0.00     0.323 C 
HETATM   11  H   UNL     1     -39.980  57.414 -53.168  1.00  0.00     0.173 HD
HETATM   12  N   UNL     1     -40.834  55.380 -52.276  1.00  0.00    -0.339 N 
HETATM   13  O   UNL     1     -42.850  56.454 -52.232  1.00  0.00    -0.247 OA
HETATM   14  H   UNL     1     -40.020  55.268 -52.862  1.00  0.00     0.164 HD
HETATM   15  O   UNL     1     -40.604  59.631 -53.707  1.00  0.00    -0.272 OA
BRANCH  12  16
HETATM   16  C   UNL     1     -41.377  54.162 -51.711  1.00  0.00     0.162 C 
BRANCH  16  17
HETATM   17  C   UNL     1     -40.752  52.955 -52.357  1.00  0.00    -0.040 A 
HETATM   18  C   UNL     1     -39.964  52.074 -51.602  1.00  0.00     0.009 A 
HETATM   19  C   UNL     1     -39.364  50.967 -52.204  1.00  0.00     0.001 A 
HETATM   20  C   UNL     1     -39.542  50.732 -53.566  1.00  0.00     0.000 A 
HETATM   21  C   UNL     1     -40.319  51.603 -54.328  1.00  0.00     0.001 A 
HETATM   22  C   UNL     1     -40.920  52.711 -53.727  1.00  0.00     0.009 A 
ENDBRANCH  16  17
ENDBRANCH  12  16
ENDBRANCH   7   8
ENDBRANCH   6   7
ENDBRANCH   1   6
BRANCH   2  23
HETATM   23  C   UNL     1     -42.762  60.107 -57.585  1.00  0.00     0.043 A 
HETATM   24  C   UNL     1     -43.826  60.843 -58.125  1.00  0.00     0.032 A 
HETATM   25  C   UNL     1     -43.585  62.086 -58.717  1.00  0.00     0.026 A 
HETATM   26  C   UNL     1     -42.288  62.588 -58.777  1.00  0.00     0.034 A 
HETATM   27 CL   UNL     1     -41.992  64.115 -59.506  1.00  0.00    -0.084 Cl
HETATM   28  C   UNL     1     -41.224  61.854 -58.252  1.00  0.00     0.026 A 
HETATM   29  C   UNL     1     -41.457  60.612 -57.654  1.00  0.00     0.032 A 
ENDBRANCH   2  23
BRANCH   3  30
HETATM   30  C   UNL     1     -42.537  57.313 -58.969  1.00  0.00     0.315 C 
BRANCH  30  31
HETATM   31  N   UNL     1     -43.721  56.904 -59.842  1.00  0.00    -0.064 N 
HETATM   32  H   UNL     1     -43.456  57.214 -60.793  1.00  0.00     0.280 HD
HETATM   33  C   UNL     1     -43.885  55.402 -59.917  1.00  0.00     0.235 C 
HETATM   34  C   UNL     1     -44.990  55.058 -60.906  1.00  0.00     0.028 C 
HETATM   35  C   UNL     1     -46.299  55.749 -60.544  1.00  0.00     0.003 C 
HETATM   36  C   UNL     1     -46.105  57.256 -60.422  1.00  0.00     0.028 C 
HETATM   37  C   UNL     1     -44.990  57.607 -59.446  1.00  0.00     0.235 C 
ENDBRANCH  30  31
ENDBRANCH   3  30
TORSDOF 8
ENDMDL
MODEL 10
REMARK VINA RESULT:      -7.9      2.917      4.774
REMARK  8 active torsions:
REMARK  status: ('A' for Active; 'I' for Inactive)
REMARK    1  A    between atoms: C_4  and  C_5 
REMARK    2  A    between atoms: C_5  and  N_6 
REMARK       I    between atoms: N_6  and  C_7 
REMARK       I    between atoms: C_7  and  N_8 
REMARK       I    between atoms: N_8  and  C_9 
REMARK    3  A    between atoms: C_9  and  C_10 
REMARK    4  A    between atoms: C_10  and  S_11 
REMARK    5  A    between atoms: S_11  and  C_12 
REMARK    6  A    between atoms: N_13  and  C_14 
REMARK    7  A    between atoms: C_21  and  C_22 
REMARK    8  A    between atoms: C_22  and  N_23 
ROOT
HETATM    1  C   UNL     1     -44.700  59.060 -55.769  1.00  0.00     0.196 A 
HETATM    2  N   UNL     1     -44.535  59.109 -57.141  1.00  0.00    -0.274 N 
HETATM    3  C   UNL     1     -44.293  60.452 -57.399  1.00  0.00     0.161 A 
HETATM    4  N   UNL     1     -44.337  61.138 -56.272  1.00  0.00    -0.132 NA
HETATM    5  N   UNL     1     -44.582  60.262 -55.253  1.00  0.00    -0.122 NA
ENDROOT
BRANCH   1   6
HETATM    6  S   UNL     1     -44.796  57.595 -54.849  1.00  0.00    -0.080 SA
BRANCH   6   7
HETATM    7  C   UNL     1     -43.640  57.953 -53.489  1.00  0.00     0.185 C 
BRANCH   7   8
HETATM    8  C   UNL     1     -43.776  56.959 -52.339  1.00  0.00     0.235 C 
HETATM    9  N   UNL     1     -42.954  55.852 -52.331  1.00  0.00    -0.279 N 
HETATM   10  C   UNL     1     -42.022  55.456 -53.265  1.00  0.00     0.323 C 
HETATM   11  H   UNL     1     -43.147  55.214 -51.577  1.00  0.00     0.173 HD
HETATM   12  N   UNL     1     -41.494  54.224 -52.974  1.00  0.00    -0.339 N 
HETATM   13  O   UNL     1     -41.708  56.103 -54.254  1.00  0.00    -0.247 OA
HETATM   14  H   UNL     1     -41.448  53.937 -52.007  1.00  0.00     0.164 HD
HETATM   15  O   UNL     1     -44.576  57.090 -51.407  1.00  0.00    -0.272 OA
BRANCH  12  16
HETATM   16  C   UNL     1     -40.506  53.635 -53.854  1.00  0.00     0.162 C 
BRANCH  16  17
HETATM   17  C   UNL     1     -40.181  52.231 -53.420  1.00  0.00    -0.040 A 
HETATM   18  C   UNL     1     -39.872  51.956 -52.080  1.00  0.00     0.009 A 
HETATM   19  C   UNL     1     -39.547  50.659 -51.680  1.00  0.00     0.001 A 
HETATM   20  C   UNL     1     -39.523  49.626 -52.615  1.00  0.00     0.000 A 
HETATM   21  C   UNL     1     -39.824  49.888 -53.951  1.00  0.00     0.001 A 
HETATM   22  C   UNL     1     -40.149  51.185 -54.353  1.00  0.00     0.009 A 
ENDBRANCH  16  17
ENDBRANCH  12  16
ENDBRANCH   7   8
ENDBRANCH   6   7
ENDBRANCH   1   6
BRANCH   2  23
HETATM   23  C   UNL     1     -44.637  58.061 -58.091  1.00  0.00     0.043 A 
HETATM   24  C   UNL     1     -45.873  57.780 -58.689  1.00  0.00     0.032 A 
HETATM   25  C   UNL     1     -45.974  56.757 -59.635  1.00  0.00     0.026 A 
HETATM   26  C   UNL     1     -44.848  56.013 -59.978  1.00  0.00     0.034 A 
HETATM   27 CL   UNL     1     -44.973  54.755 -61.141  1.00  0.00    -0.084 Cl
HETATM   28  C   UNL     1     -43.618  56.281 -59.377  1.00  0.00     0.026 A 
HETATM   29  C   UNL     1     -43.508  57.305 -58.432  1.00  0.00     0.032 A 
ENDBRANCH   2  23
BRANCH   3  30
HETATM   30  C   UNL     1     -44.177  61.085 -58.738  1.00  0.00     0.315 C 
BRANCH  30  31
HETATM   31  N   UNL     1     -42.895  61.904 -58.868  1.00  0.00    -0.064 N 
HETATM   32  H   UNL     1     -42.974  62.622 -58.128  1.00  0.00     0.280 HD
HETATM   33  C   UNL     1     -41.661  61.092 -58.539  1.00  0.00     0.235 C 
HETATM   34  C   UNL     1     -40.437  61.995 -58.554  1.00  0.00     0.028 C 
HETATM   35  C   UNL     1     -40.293  62.722 -59.886  1.00  0.00     0.003 C 
HETATM   36  C   UNL     1     -41.563  63.493 -60.227  1.00  0.00     0.028 C 
HETATM   37  C   UNL     1     -42.795  62.598 -60.198  1.00  0.00     0.235 C 
ENDBRANCH  30  31
ENDBRANCH   3  30
TORSDOF 8
ENDMDL
