MODEL 1
REMARK VINA RESULT:      -8.2      0.000      0.000
REMARK  5 active torsions:
REMARK  status: ('A' for Active; 'I' for Inactive)
REMARK    1  A    between atoms: C_4  and  N_5 
REMARK    2  A    between atoms: N_5  and  N_6 
REMARK       I    between atoms: N_6  and  C_7 
REMARK    3  A    between atoms: C_7  and  C_8 
REMARK    4  A    between atoms: C_12  and  C_13 
REMARK    5  A    between atoms: C_13  and  C_14 
ROOT
HETATM    1  C   UNL     1     -43.229  55.702 -54.090  1.00  0.00     0.102 A 
HETATM    2  N   UNL     1     -44.368  56.393 -53.740  1.00  0.00    -0.360 N 
HETATM    3  H   UNL     1     -44.846  56.270 -52.854  1.00  0.00     0.165 HD
HETATM    4  C   UNL     1     -44.730  57.255 -54.742  1.00  0.00     0.104 A 
HETATM    5  C   UNL     1     -43.828  57.120 -55.781  1.00  0.00     0.033 A 
HETATM    6  C   UNL     1     -42.898  56.118 -55.368  1.00  0.00     0.052 A 
ENDROOT
BRANCH   1   7
HETATM    7  C   UNL     1     -42.611  54.750 -53.191  1.00  0.00     0.282 C 
HETATM    8  N   UNL     1     -41.259  54.538 -53.400  1.00  0.00    -0.281 N 
HETATM    9  H   UNL     1     -40.706  55.164 -53.974  1.00  0.00     0.184 HD
HETATM   10  O   UNL     1     -43.235  54.185 -52.295  1.00  0.00    -0.265 OA
BRANCH   8  11
HETATM   11  N   UNL     1     -40.538  53.842 -52.407  1.00  0.00    -0.203 NA
HETATM   12  H   UNL     1     -41.091  53.814 -51.538  1.00  0.00     0.153 HD
BRANCH  11  13
HETATM   13  C   UNL     1     -40.216  52.510 -52.777  1.00  0.00     0.027 A 
HETATM   14  C   UNL     1     -39.768  51.642 -51.772  1.00  0.00     0.025 A 
HETATM   15  C   UNL     1     -39.482  50.304 -52.053  1.00  0.00     0.002 A 
HETATM   16  C   UNL     1     -39.669  49.809 -53.341  1.00  0.00     0.000 A 
HETATM   17  C   UNL     1     -40.149  50.649 -54.343  1.00  0.00     0.002 A 
HETATM   18  C   UNL     1     -40.431  51.988 -54.061  1.00  0.00     0.025 A 
ENDBRANCH  11  13
ENDBRANCH   8  11
ENDBRANCH   1   7
BRANCH   5  19
HETATM   19  C   UNL     1     -43.802  57.832 -57.057  1.00  0.00     0.195 C 
HETATM   20  O   UNL     1     -43.064  58.790 -57.261  1.00  0.00    -0.287 OA
BRANCH  19  21
HETATM   21  C   UNL     1     -44.755  57.440 -58.111  1.00  0.00     0.037 A 
HETATM   22  C   UNL     1     -44.378  56.580 -59.148  1.00  0.00     0.049 A 
HETATM   23 CL   UNL     1     -42.826  55.829 -59.208  1.00  0.00    -0.083 Cl
HETATM   24  C   UNL     1     -45.290  56.280 -60.165  1.00  0.00     0.048 A 
HETATM   25  C   UNL     1     -46.566  56.842 -60.139  1.00  0.00     0.035 A 
HETATM   26 CL   UNL     1     -47.685  56.474 -61.393  1.00  0.00    -0.084 Cl
HETATM   27  C   UNL     1     -46.946  57.702 -59.108  1.00  0.00     0.025 A 
HETATM   28  C   UNL     1     -46.039  58.007 -58.093  1.00  0.00     0.019 A 
ENDBRANCH  19  21
ENDBRANCH   5  19
TORSDOF 5
ENDMDL
MODEL 2
REMARK VINA RESULT:      -8.1      1.722      1.950
REMARK  5 active torsions:
REMARK  status: ('A' for Active; 'I' for Inactive)
REMARK    1  A    between atoms: C_4  and  N_5 
REMARK    2  A    between atoms: N_5  and  N_6 
REMARK       I    between atoms: N_6  and  C_7 
REMARK    3  A    between atoms: C_7  and  C_8 
REMARK    4  A    between atoms: C_12  and  C_13 
REMARK    5  A    between atoms: C_13  and  C_14 
ROOT
HETATM    1  C   UNL     1     -42.459  55.643 -55.828  1.00  0.00     0.102 A 
HETATM    2  N   UNL     1     -42.285  57.009 -55.845  1.00  0.00    -0.360 N 
HETATM    3  H   UNL     1     -42.040  57.551 -55.024  1.00  0.00     0.165 HD
HETATM    4  C   UNL     1     -42.472  57.498 -57.112  1.00  0.00     0.104 A 
HETATM    5  C   UNL     1     -42.796  56.442 -57.945  1.00  0.00     0.033 A 
HETATM    6  C   UNL     1     -42.808  55.278 -57.117  1.00  0.00     0.052 A 
ENDROOT
BRANCH   1   7
HETATM    7  C   UNL     1     -42.281  54.868 -54.618  1.00  0.00     0.282 C 
HETATM    8  N   UNL     1     -41.002  54.381 -54.415  1.00  0.00    -0.281 N 
HETATM    9  H   UNL     1     -40.211  54.730 -54.944  1.00  0.00     0.184 HD
HETATM   10  O   UNL     1     -43.195  54.673 -53.818  1.00  0.00    -0.265 OA
BRANCH   8  11
HETATM   11  N   UNL     1     -40.689  53.857 -53.144  1.00  0.00    -0.203 NA
HETATM   12  H   UNL     1     -41.507  53.947 -52.524  1.00  0.00     0.153 HD
BRANCH  11  13
HETATM   13  C   UNL     1     -40.302  52.491 -53.179  1.00  0.00     0.027 A 
HETATM   14  C   UNL     1     -39.827  51.914 -51.994  1.00  0.00     0.025 A 
HETATM   15  C   UNL     1     -39.477  50.563 -51.941  1.00  0.00     0.002 A 
HETATM   16  C   UNL     1     -39.625  49.763 -53.070  1.00  0.00     0.000 A 
HETATM   17  C   UNL     1     -40.132  50.311 -54.247  1.00  0.00     0.002 A 
HETATM   18  C   UNL     1     -40.478  51.664 -54.298  1.00  0.00     0.025 A 
ENDBRANCH  11  13
ENDBRANCH   8  11
ENDBRANCH   1   7
BRANCH   5  19
HETATM   19  C   UNL     1     -43.080  56.473 -59.377  1.00  0.00     0.195 C 
HETATM   20  O   UNL     1     -42.223  56.238 -60.223  1.00  0.00    -0.287 OA
BRANCH  19  21
HETATM   21  C   UNL     1     -44.422  56.879 -59.830  1.00  0.00     0.037 A 
HETATM   22  C   UNL     1     -45.398  55.931 -60.154  1.00  0.00     0.049 A 
HETATM   23 CL   UNL     1     -45.148  54.238 -59.943  1.00  0.00    -0.083 Cl
HETATM   24  C   UNL     1     -46.640  56.354 -60.639  1.00  0.00     0.048 A 
HETATM   25  C   UNL     1     -46.895  57.716 -60.799  1.00  0.00     0.035 A 
HETATM   26 CL   UNL     1     -48.422  58.232 -61.399  1.00  0.00    -0.084 Cl
HETATM   27  C   UNL     1     -45.924  58.665 -60.477  1.00  0.00     0.025 A 
HETATM   28  C   UNL     1     -44.682  58.249 -59.996  1.00  0.00     0.019 A 
ENDBRANCH  19  21
ENDBRANCH   5  19
TORSDOF 5
ENDMDL
MODEL 3
REMARK VINA RESULT:      -7.9      3.575      8.994
REMARK  5 active torsions:
REMARK  status: ('A' for Active; 'I' for Inactive)
REMARK    1  A    between atoms: C_4  and  N_5 
REMARK    2  A    between atoms: N_5  and  N_6 
REMARK       I    between atoms: N_6  and  C_7 
REMARK    3  A    between atoms: C_7  and  C_8 
REMARK    4  A    between atoms: C_12  and  C_13 
REMARK    5  A    between atoms: C_13  and  C_14 
ROOT
HETATM    1  C   UNL     1     -43.931  56.384 -54.704  1.00  0.00     0.102 A 
HETATM    2  N   UNL     1     -44.358  55.126 -54.339  1.00  0.00    -0.360 N 
HETATM    3  H   UNL     1     -45.335  54.873 -54.245  1.00  0.00     0.165 HD
HETATM    4  C   UNL     1     -43.285  54.295 -54.147  1.00  0.00     0.104 A 
HETATM    5  C   UNL     1     -42.127  55.018 -54.369  1.00  0.00     0.033 A 
HETATM    6  C   UNL     1     -42.548  56.343 -54.697  1.00  0.00     0.052 A 
ENDROOT
BRANCH   1   7
HETATM    7  C   UNL     1     -44.867  57.447 -55.005  1.00  0.00     0.282 C 
HETATM    8  N   UNL     1     -45.399  57.418 -56.283  1.00  0.00    -0.281 N 
HETATM    9  H   UNL     1     -45.320  56.596 -56.872  1.00  0.00     0.184 HD
HETATM   10  O   UNL     1     -45.181  58.303 -54.180  1.00  0.00    -0.265 OA
BRANCH   8  11
HETATM   11  N   UNL     1     -46.506  58.247 -56.557  1.00  0.00    -0.203 NA
HETATM   12  H   UNL     1     -46.324  59.194 -56.192  1.00  0.00     0.153 HD
BRANCH  11  13
HETATM   13  C   UNL     1     -46.801  58.350 -57.941  1.00  0.00     0.027 A 
HETATM   14  C   UNL     1     -47.054  59.626 -58.464  1.00  0.00     0.025 A 
HETATM   15  C   UNL     1     -47.301  59.809 -59.826  1.00  0.00     0.002 A 
HETATM   16  C   UNL     1     -47.271  58.718 -60.690  1.00  0.00     0.000 A 
HETATM   17  C   UNL     1     -46.984  57.448 -60.194  1.00  0.00     0.002 A 
HETATM   18  C   UNL     1     -46.741  57.267 -58.829  1.00  0.00     0.025 A 
ENDBRANCH  11  13
ENDBRANCH   8  11
ENDBRANCH   1   7
BRANCH   5  19
HETATM   19  C   UNL     1     -40.743  54.558 -54.288  1.00  0.00     0.195 C 
HETATM   20  O   UNL     1     -39.841  55.069 -54.942  1.00  0.00    -0.287 OA
BRANCH  19  21
HETATM   21  C   UNL     1     -40.429  53.386 -53.451  1.00  0.00     0.037 A 
HETATM   22  C   UNL     1     -40.432  53.467 -52.055  1.00  0.00     0.049 A 
HETATM   23 CL   UNL     1     -40.909  54.896 -51.213  1.00  0.00    -0.083 Cl
HETATM   24  C   UNL     1     -40.068  52.351 -51.295  1.00  0.00     0.048 A 
HETATM   25  C   UNL     1     -39.702  51.167 -51.935  1.00  0.00     0.035 A 
HETATM   26 CL   UNL     1     -39.252  49.796 -50.998  1.00  0.00    -0.084 Cl
HETATM   27  C   UNL     1     -39.697  51.082 -53.327  1.00  0.00     0.025 A 
HETATM   28  C   UNL     1     -40.056  52.193 -54.090  1.00  0.00     0.019 A 
ENDBRANCH  19  21
ENDBRANCH   5  19
TORSDOF 5
ENDMDL
MODEL 4
REMARK VINA RESULT:      -7.9      1.253      1.850
REMARK  5 active torsions:
REMARK  status: ('A' for Active; 'I' for Inactive)
REMARK    1  A    between atoms: C_4  and  N_5 
REMARK    2  A    between atoms: N_5  and  N_6 
REMARK       I    between atoms: N_6  and  C_7 
REMARK    3  A    between atoms: C_7  and  C_8 
REMARK    4  A    between atoms: C_12  and  C_13 
REMARK    5  A    between atoms: C_13  and  C_14 
ROOT
HETATM    1  C   UNL     1     -42.766  55.329 -53.735  1.00  0.00     0.102 A 
HETATM    2  N   UNL     1     -44.038  55.830 -53.565  1.00  0.00    -0.360 N 
HETATM    3  H   UNL     1     -44.629  55.598 -52.775  1.00  0.00     0.165 HD
HETATM    4  C   UNL     1     -44.358  56.679 -54.592  1.00  0.00     0.104 A 
HETATM    5  C   UNL     1     -43.289  56.727 -55.469  1.00  0.00     0.033 A 
HETATM    6  C   UNL     1     -42.299  55.851 -54.929  1.00  0.00     0.052 A 
ENDROOT
BRANCH   1   7
HETATM    7  C   UNL     1     -42.166  54.434 -52.768  1.00  0.00     0.282 C 
HETATM    8  N   UNL     1     -40.837  54.123 -53.002  1.00  0.00    -0.281 N 
HETATM    9  H   UNL     1     -40.274  54.656 -53.655  1.00  0.00     0.184 HD
HETATM   10  O   UNL     1     -42.783  53.998 -51.798  1.00  0.00    -0.265 OA
BRANCH   8  11
HETATM   11  N   UNL     1     -40.117  53.485 -51.971  1.00  0.00    -0.203 NA
HETATM   12  H   UNL     1     -40.600  53.633 -51.073  1.00  0.00     0.153 HD
BRANCH  11  13
HETATM   13  C   UNL     1     -39.965  52.088 -52.173  1.00  0.00     0.027 A 
HETATM   14  C   UNL     1     -39.886  51.623 -53.493  1.00  0.00     0.025 A 
HETATM   15  C   UNL     1     -39.684  50.269 -53.767  1.00  0.00     0.002 A 
HETATM   16  C   UNL     1     -39.530  49.364 -52.721  1.00  0.00     0.000 A 
HETATM   17  C   UNL     1     -39.568  49.815 -51.403  1.00  0.00     0.002 A 
HETATM   18  C   UNL     1     -39.774  51.170 -51.131  1.00  0.00     0.025 A 
ENDBRANCH  11  13
ENDBRANCH   8  11
ENDBRANCH   1   7
BRANCH   5  19
HETATM   19  C   UNL     1     -43.164  57.496 -56.704  1.00  0.00     0.195 C 
HETATM   20  O   UNL     1     -42.339  58.393 -56.840  1.00  0.00    -0.287 OA
BRANCH  19  21
HETATM   21  C   UNL     1     -44.117  57.243 -57.801  1.00  0.00     0.037 A 
HETATM   22  C   UNL     1     -45.318  57.953 -57.899  1.00  0.00     0.049 A 
HETATM   23 CL   UNL     1     -45.719  59.243 -56.826  1.00  0.00    -0.083 Cl
HETATM   24  C   UNL     1     -46.224  57.642 -58.917  1.00  0.00     0.048 A 
HETATM   25  C   UNL     1     -45.927  56.626 -59.824  1.00  0.00     0.035 A 
HETATM   26 CL   UNL     1     -47.046  56.243 -61.074  1.00  0.00    -0.084 Cl
HETATM   27  C   UNL     1     -44.731  55.914 -59.729  1.00  0.00     0.025 A 
HETATM   28  C   UNL     1     -43.824  56.217 -58.714  1.00  0.00     0.019 A 
ENDBRANCH  19  21
ENDBRANCH   5  19
TORSDOF 5
ENDMDL
MODEL 5
REMARK VINA RESULT:      -7.8      2.302      2.786
REMARK  5 active torsions:
REMARK  status: ('A' for Active; 'I' for Inactive)
REMARK    1  A    between atoms: C_4  and  N_5 
REMARK    2  A    between atoms: N_5  and  N_6 
REMARK       I    between atoms: N_6  and  C_7 
REMARK    3  A    between atoms: C_7  and  C_8 
REMARK    4  A    between atoms: C_12  and  C_13 
REMARK    5  A    between atoms: C_13  and  C_14 
ROOT
HETATM    1  C   UNL     1     -42.425  55.318 -55.154  1.00  0.00     0.102 A 
HETATM    2  N   UNL     1     -42.375  56.694 -55.187  1.00  0.00    -0.360 N 
HETATM    3  H   UNL     1     -42.122  57.264 -54.388  1.00  0.00     0.165 HD
HETATM    4  C   UNL     1     -42.696  57.153 -56.438  1.00  0.00     0.104 A 
HETATM    5  C   UNL     1     -42.982  56.065 -57.243  1.00  0.00     0.033 A 
HETATM    6  C   UNL     1     -42.831  54.912 -56.413  1.00  0.00     0.052 A 
ENDROOT
BRANCH   1   7
HETATM    7  C   UNL     1     -42.092  54.574 -53.958  1.00  0.00     0.282 C 
HETATM    8  N   UNL     1     -40.801  54.074 -53.917  1.00  0.00    -0.281 N 
HETATM    9  H   UNL     1     -40.086  54.398 -54.558  1.00  0.00     0.184 HD
HETATM   10  O   UNL     1     -42.889  54.413 -53.035  1.00  0.00    -0.265 OA
BRANCH   8  11
HETATM   11  N   UNL     1     -40.324  53.579 -52.686  1.00  0.00    -0.203 NA
HETATM   12  H   UNL     1     -41.029  53.742 -51.953  1.00  0.00     0.153 HD
BRANCH  11  13
HETATM   13  C   UNL     1     -40.022  52.192 -52.717  1.00  0.00     0.027 A 
HETATM   14  C   UNL     1     -39.789  51.546 -51.495  1.00  0.00     0.025 A 
HETATM   15  C   UNL     1     -39.538  50.173 -51.445  1.00  0.00     0.002 A 
HETATM   16  C   UNL     1     -39.544  49.422 -52.617  1.00  0.00     0.000 A 
HETATM   17  C   UNL     1     -39.811  50.042 -53.836  1.00  0.00     0.002 A 
HETATM   18  C   UNL     1     -40.058  51.417 -53.884  1.00  0.00     0.025 A 
ENDBRANCH  11  13
ENDBRANCH   8  11
ENDBRANCH   1   7
BRANCH   5  19
HETATM   19  C   UNL     1     -43.370  56.056 -58.651  1.00  0.00     0.195 C 
HETATM   20  O   UNL     1     -43.707  55.032 -59.235  1.00  0.00    -0.287 OA
BRANCH  19  21
HETATM   21  C   UNL     1     -43.276  57.308 -59.424  1.00  0.00     0.037 A 
HETATM   22  C   UNL     1     -44.406  58.093 -59.677  1.00  0.00     0.049 A 
HETATM   23 CL   UNL     1     -45.956  57.723 -59.016  1.00  0.00    -0.083 Cl
HETATM   24  C   UNL     1     -44.289  59.241 -60.467  1.00  0.00     0.048 A 
HETATM   25  C   UNL     1     -43.048  59.593 -60.998  1.00  0.00     0.035 A 
HETATM   26 CL   UNL     1     -42.907  61.004 -61.972  1.00  0.00    -0.084 Cl
HETATM   27  C   UNL     1     -41.919  58.813 -60.749  1.00  0.00     0.025 A 
HETATM   28  C   UNL     1     -42.031  57.665 -59.965  1.00  0.00     0.019 A 
ENDBRANCH  19  21
ENDBRANCH   5  19
TORSDOF 5
ENDMDL
MODEL 6
REMARK VINA RESULT:      -7.8      3.595      8.068
REMARK  5 active torsions:
REMARK  status: ('A' for Active; 'I' for Inactive)
REMARK    1  A    between atoms: C_4  and  N_5 
REMARK    2  A    between atoms: N_5  and  N_6 
REMARK       I    between atoms: N_6  and  C_7 
REMARK    3  A    between atoms: C_7  and  C_8 
REMARK    4  A    between atoms: C_12  and  C_13 
REMARK    5  A    between atoms: C_13  and  C_14 
ROOT
HETATM    1  C   UNL     1     -42.118  57.348 -55.094  1.00  0.00     0.102 A 
HETATM    2  N   UNL     1     -41.346  57.975 -54.142  1.00  0.00    -0.360 N 
HETATM    3  H   UNL     1     -40.973  58.912 -54.253  1.00  0.00     0.165 HD
HETATM    4  C   UNL     1     -41.182  57.163 -53.050  1.00  0.00     0.104 A 
HETATM    5  C   UNL     1     -41.840  55.970 -53.290  1.00  0.00     0.033 A 
HETATM    6  C   UNL     1     -42.407  56.090 -54.595  1.00  0.00     0.052 A 
ENDROOT
BRANCH   1   7
HETATM    7  C   UNL     1     -42.476  58.002 -56.335  1.00  0.00     0.282 C 
HETATM    8  N   UNL     1     -42.150  57.302 -57.484  1.00  0.00    -0.281 N 
HETATM    9  H   UNL     1     -41.898  56.321 -57.454  1.00  0.00     0.184 HD
HETATM   10  O   UNL     1     -43.046  59.092 -56.367  1.00  0.00    -0.265 OA
BRANCH   8  11
HETATM   11  N   UNL     1     -42.703  57.742 -58.704  1.00  0.00    -0.203 NA
HETATM   12  H   UNL     1     -41.957  57.821 -59.411  1.00  0.00     0.153 HD
BRANCH  11  13
HETATM   13  C   UNL     1     -43.709  56.876 -59.209  1.00  0.00     0.027 A 
HETATM   14  C   UNL     1     -44.982  57.415 -59.438  1.00  0.00     0.025 A 
HETATM   15  C   UNL     1     -46.006  56.636 -59.982  1.00  0.00     0.002 A 
HETATM   16  C   UNL     1     -45.759  55.311 -60.331  1.00  0.00     0.000 A 
HETATM   17  C   UNL     1     -44.489  54.770 -60.145  1.00  0.00     0.002 A 
HETATM   18  C   UNL     1     -43.467  55.551 -59.597  1.00  0.00     0.025 A 
ENDBRANCH  11  13
ENDBRANCH   8  11
ENDBRANCH   1   7
BRANCH   5  19
HETATM   19  C   UNL     1     -41.948  54.804 -52.416  1.00  0.00     0.195 C 
HETATM   20  O   UNL     1     -42.526  54.844 -51.336  1.00  0.00    -0.287 OA
BRANCH  19  21
HETATM   21  C   UNL     1     -41.269  53.556 -52.807  1.00  0.00     0.037 A 
HETATM   22  C   UNL     1     -40.235  53.018 -52.033  1.00  0.00     0.049 A 
HETATM   23 CL   UNL     1     -39.758  53.702 -50.523  1.00  0.00    -0.083 Cl
HETATM   24  C   UNL     1     -39.572  51.866 -52.467  1.00  0.00     0.048 A 
HETATM   25  C   UNL     1     -39.945  51.264 -53.669  1.00  0.00     0.035 A 
HETATM   26 CL   UNL     1     -39.126  49.848 -54.203  1.00  0.00    -0.084 Cl
HETATM   27  C   UNL     1     -40.975  51.797 -54.444  1.00  0.00     0.025 A 
HETATM   28  C   UNL     1     -41.637  52.948 -54.017  1.00  0.00     0.019 A 
ENDBRANCH  19  21
ENDBRANCH   5  19
TORSDOF 5
ENDMDL
MODEL 7
REMARK VINA RESULT:      -7.8      5.839      9.212
REMARK  5 active torsions:
REMARK  status: ('A' for Active; 'I' for Inactive)
REMARK    1  A    between atoms: C_4  and  N_5 
REMARK    2  A    between atoms: N_5  and  N_6 
REMARK       I    between atoms: N_6  and  C_7 
REMARK    3  A    between atoms: C_7  and  C_8 
REMARK    4  A    between atoms: C_12  and  C_13 
REMARK    5  A    between atoms: C_13  and  C_14 
ROOT
HETATM    1  C   UNL     1     -44.524  57.836 -51.032  1.00  0.00     0.102 A 
HETATM    2  N   UNL     1     -44.769  56.481 -51.005  1.00  0.00    -0.360 N 
HETATM    3  H   UNL     1     -45.616  56.075 -50.624  1.00  0.00     0.165 HD
HETATM    4  C   UNL     1     -43.727  55.796 -51.571  1.00  0.00     0.104 A 
HETATM    5  C   UNL     1     -42.764  56.709 -51.963  1.00  0.00     0.033 A 
HETATM    6  C   UNL     1     -43.269  57.993 -51.595  1.00  0.00     0.052 A 
ENDROOT
BRANCH   1   7
HETATM    7  C   UNL     1     -45.485  58.794 -50.528  1.00  0.00     0.282 C 
HETATM    8  N   UNL     1     -44.940  59.891 -49.884  1.00  0.00    -0.281 N 
HETATM    9  H   UNL     1     -43.955  60.118 -49.964  1.00  0.00     0.184 HD
HETATM   10  O   UNL     1     -46.698  58.654 -50.678  1.00  0.00    -0.265 OA
BRANCH   8  11
HETATM   11  N   UNL     1     -45.787  60.985 -49.611  1.00  0.00    -0.203 NA
HETATM   12  H   UNL     1     -46.769  60.699 -49.738  1.00  0.00     0.153 HD
BRANCH  11  13
HETATM   13  C   UNL     1     -45.636  61.497 -48.295  1.00  0.00     0.027 A 
HETATM   14  C   UNL     1     -45.652  60.584 -47.232  1.00  0.00     0.025 A 
HETATM   15  C   UNL     1     -45.457  61.010 -45.916  1.00  0.00     0.002 A 
HETATM   16  C   UNL     1     -45.216  62.355 -45.650  1.00  0.00     0.000 A 
HETATM   17  C   UNL     1     -45.160  63.270 -46.699  1.00  0.00     0.002 A 
HETATM   18  C   UNL     1     -45.359  62.842 -48.014  1.00  0.00     0.025 A 
ENDBRANCH  11  13
ENDBRANCH   8  11
ENDBRANCH   1   7
BRANCH   5  19
HETATM   19  C   UNL     1     -41.483  56.451 -52.614  1.00  0.00     0.195 C 
HETATM   20  O   UNL     1     -40.723  57.353 -52.951  1.00  0.00    -0.287 OA
BRANCH  19  21
HETATM   21  C   UNL     1     -41.122  55.063 -52.954  1.00  0.00     0.037 A 
HETATM   22  C   UNL     1     -40.608  54.188 -51.991  1.00  0.00     0.049 A 
HETATM   23 CL   UNL     1     -40.466  54.624 -50.328  1.00  0.00    -0.083 Cl
HETATM   24  C   UNL     1     -40.219  52.898 -52.364  1.00  0.00     0.048 A 
HETATM   25  C   UNL     1     -40.343  52.495 -53.694  1.00  0.00     0.035 A 
HETATM   26 CL   UNL     1     -39.860  50.908 -54.151  1.00  0.00    -0.084 Cl
HETATM   27  C   UNL     1     -40.854  53.364 -54.658  1.00  0.00     0.025 A 
HETATM   28  C   UNL     1     -41.241  54.653 -54.291  1.00  0.00     0.019 A 
ENDBRANCH  19  21
ENDBRANCH   5  19
TORSDOF 5
ENDMDL
MODEL 8
REMARK VINA RESULT:      -7.7      2.808      8.233
REMARK  5 active torsions:
REMARK  status: ('A' for Active; 'I' for Inactive)
REMARK    1  A    between atoms: C_4  and  N_5 
REMARK    2  A    between atoms: N_5  and  N_6 
REMARK       I    between atoms: N_6  and  C_7 
REMARK    3  A    between atoms: C_7  and  C_8 
REMARK    4  A    between atoms: C_12  and  C_13 
REMARK    5  A    between atoms: C_13  and  C_14 
ROOT
HETATM    1  C   UNL     1     -43.906  56.458 -54.615  1.00  0.00     0.102 A 
HETATM    2  N   UNL     1     -44.451  55.252 -54.233  1.00  0.00    -0.360 N 
HETATM    3  H   UNL     1     -45.364  54.931 -54.535  1.00  0.00     0.165 HD
HETATM    4  C   UNL     1     -43.583  54.571 -53.421  1.00  0.00     0.104 A 
HETATM    5  C   UNL     1     -42.451  55.346 -53.245  1.00  0.00     0.033 A 
HETATM    6  C   UNL     1     -42.677  56.547 -53.984  1.00  0.00     0.052 A 
ENDROOT
BRANCH   1   7
HETATM    7  C   UNL     1     -44.603  57.360 -55.507  1.00  0.00     0.282 C 
HETATM    8  N   UNL     1     -44.145  57.365 -56.813  1.00  0.00    -0.281 N 
HETATM    9  H   UNL     1     -43.534  56.636 -57.164  1.00  0.00     0.184 HD
HETATM   10  O   UNL     1     -45.547  58.057 -55.138  1.00  0.00    -0.265 OA
BRANCH   8  11
HETATM   11  N   UNL     1     -44.937  58.005 -57.789  1.00  0.00    -0.203 NA
HETATM   12  H   UNL     1     -44.458  58.857 -58.116  1.00  0.00     0.153 HD
BRANCH  11  13
HETATM   13  C   UNL     1     -45.212  57.185 -58.915  1.00  0.00     0.027 A 
HETATM   14  C   UNL     1     -44.181  56.364 -59.393  1.00  0.00     0.025 A 
HETATM   15  C   UNL     1     -44.394  55.493 -60.464  1.00  0.00     0.002 A 
HETATM   16  C   UNL     1     -45.653  55.413 -61.054  1.00  0.00     0.000 A 
HETATM   17  C   UNL     1     -46.698  56.195 -60.567  1.00  0.00     0.002 A 
HETATM   18  C   UNL     1     -46.481  57.068 -59.497  1.00  0.00     0.025 A 
ENDBRANCH  11  13
ENDBRANCH   8  11
ENDBRANCH   1   7
BRANCH   5  19
HETATM   19  C   UNL     1     -41.254  55.038 -52.465  1.00  0.00     0.195 C 
HETATM   20  O   UNL     1     -40.667  55.884 -51.799  1.00  0.00    -0.287 OA
BRANCH  19  21
HETATM   21  C   UNL     1     -40.682  53.682 -52.543  1.00  0.00     0.037 A 
HETATM   22  C   UNL     1     -40.309  53.120 -53.768  1.00  0.00     0.049 A 
HETATM   23 CL   UNL     1     -40.380  54.001 -55.250  1.00  0.00    -0.083 Cl
HETATM   24  C   UNL     1     -39.827  51.808 -53.810  1.00  0.00     0.048 A 
HETATM   25  C   UNL     1     -39.726  51.069 -52.631  1.00  0.00     0.035 A 
HETATM   26 CL   UNL     1     -39.137  49.453 -52.686  1.00  0.00    -0.084 Cl
HETATM   27  C   UNL     1     -40.098  51.625 -51.407  1.00  0.00     0.025 A 
HETATM   28  C   UNL     1     -40.582  52.932 -51.361  1.00  0.00     0.019 A 
ENDBRANCH  19  21
ENDBRANCH   5  19
TORSDOF 5
ENDMDL
MODEL 9
REMARK VINA RESULT:      -7.5      3.489      8.177
REMARK  5 active torsions:
REMARK  status: ('A' for Active; 'I' for Inactive)
REMARK    1  A    between atoms: C_4  and  N_5 
REMARK    2  A    between atoms: N_5  and  N_6 
REMARK       I    between atoms: N_6  and  C_7 
REMARK    3  A    between atoms: C_7  and  C_8 
REMARK    4  A    between atoms: C_12  and  C_13 
REMARK    5  A    between atoms: C_13  and  C_14 
ROOT
HETATM    1  C   UNL     1     -42.081  57.859 -53.537  1.00  0.00     0.102 A 
HETATM    2  N   UNL     1     -43.395  57.819 -53.127  1.00  0.00    -0.360 N 
HETATM    3  H   UNL     1     -44.073  58.538 -53.353  1.00  0.00     0.165 HD
HETATM    4  C   UNL     1     -43.635  56.680 -52.404  1.00  0.00     0.104 A 
HETATM    5  C   UNL     1     -42.456  55.962 -52.315  1.00  0.00     0.033 A 
HETATM    6  C   UNL     1     -41.475  56.729 -53.014  1.00  0.00     0.052 A 
ENDROOT
BRANCH   1   7
HETATM    7  C   UNL     1     -41.571  58.941 -54.352  1.00  0.00     0.282 C 
HETATM    8  N   UNL     1     -41.953  58.905 -55.682  1.00  0.00    -0.281 N 
HETATM    9  H   UNL     1     -42.708  58.309 -56.001  1.00  0.00     0.184 HD
HETATM   10  O   UNL     1     -40.865  59.838 -53.893  1.00  0.00    -0.265 OA
BRANCH   8  11
HETATM   11  N   UNL     1     -41.724  60.055 -56.466  1.00  0.00    -0.203 NA
HETATM   12  H   UNL     1     -40.802  60.452 -56.233  1.00  0.00     0.153 HD
BRANCH  11  13
HETATM   13  C   UNL     1     -41.761  59.799 -57.862  1.00  0.00     0.027 A 
HETATM   14  C   UNL     1     -41.893  58.468 -58.280  1.00  0.00     0.025 A 
HETATM   15  C   UNL     1     -41.989  58.146 -59.635  1.00  0.00     0.002 A 
HETATM   16  C   UNL     1     -41.982  59.157 -60.592  1.00  0.00     0.000 A 
HETATM   17  C   UNL     1     -41.890  60.489 -60.192  1.00  0.00     0.002 A 
HETATM   18  C   UNL     1     -41.791  60.808 -58.835  1.00  0.00     0.025 A 
ENDBRANCH  11  13
ENDBRANCH   8  11
ENDBRANCH   1   7
BRANCH   5  19
HETATM   19  C   UNL     1     -42.222  54.684 -51.647  1.00  0.00     0.195 C 
HETATM   20  O   UNL     1     -42.573  54.472 -50.491  1.00  0.00    -0.287 OA
BRANCH  19  21
HETATM   21  C   UNL     1     -41.464  53.637 -52.355  1.00  0.00     0.037 A 
HETATM   22  C   UNL     1     -41.795  53.257 -53.660  1.00  0.00     0.049 A 
HETATM   23 CL   UNL     1     -43.025  54.053 -54.571  1.00  0.00    -0.083 Cl
HETATM   24  C   UNL     1     -41.094  52.217 -54.278  1.00  0.00     0.048 A 
HETATM   25  C   UNL     1     -40.072  51.565 -53.588  1.00  0.00     0.035 A 
HETATM   26 CL   UNL     1     -39.213  50.283 -54.348  1.00  0.00    -0.084 Cl
HETATM   27  C   UNL     1     -39.739  51.940 -52.286  1.00  0.00     0.025 A 
HETATM   28  C   UNL     1     -40.438  52.974 -51.664  1.00  0.00     0.019 A 
ENDBRANCH  19  21
ENDBRANCH   5  19
TORSDOF 5
ENDMDL
MODEL 10
REMARK VINA RESULT:      -7.4      2.455      3.052
REMARK  5 active torsions:
REMARK  status: ('A' for Active; 'I' for Inactive)
REMARK    1  A    between atoms: C_4  and  N_5 
REMARK    2  A    between atoms: N_5  and  N_6 
REMARK       I    between atoms: N_6  and  C_7 
REMARK    3  A    between atoms: C_7  and  C_8 
REMARK    4  A    between atoms: C_12  and  C_13 
REMARK    5  A    between atoms: C_13  and  C_14 
ROOT
HETATM    1  C   UNL     1     -41.646  57.969 -52.867  1.00  0.00     0.102 A 
HETATM    2  N   UNL     1     -41.914  59.275 -52.520  1.00  0.00    -0.360 N 
HETATM    3  H   UNL     1     -41.954  59.601 -51.561  1.00  0.00     0.165 HD
HETATM    4  C   UNL     1     -42.096  60.039 -53.643  1.00  0.00     0.104 A 
HETATM    5  C   UNL     1     -41.966  59.224 -54.752  1.00  0.00     0.033 A 
HETATM    6  C   UNL     1     -41.706  57.913 -54.249  1.00  0.00     0.052 A 
ENDROOT
BRANCH   1   7
HETATM    7  C   UNL     1     -41.376  56.957 -51.868  1.00  0.00     0.282 C 
HETATM    8  N   UNL     1     -41.463  55.650 -52.317  1.00  0.00    -0.281 N 
HETATM    9  H   UNL     1     -41.484  55.429 -53.306  1.00  0.00     0.184 HD
HETATM   10  O   UNL     1     -41.073  57.236 -50.709  1.00  0.00    -0.265 OA
BRANCH   8  11
HETATM   11  N   UNL     1     -40.955  54.631 -51.485  1.00  0.00    -0.203 NA
HETATM   12  H   UNL     1     -41.675  54.356 -50.801  1.00  0.00     0.153 HD
BRANCH  11  13
HETATM   13  C   UNL     1     -40.551  53.472 -52.200  1.00  0.00     0.027 A 
HETATM   14  C   UNL     1     -40.706  53.476 -53.593  1.00  0.00     0.025 A 
HETATM   15  C   UNL     1     -40.283  52.393 -54.366  1.00  0.00     0.002 A 
HETATM   16  C   UNL     1     -39.671  51.301 -53.756  1.00  0.00     0.000 A 
HETATM   17  C   UNL     1     -39.475  51.297 -52.377  1.00  0.00     0.002 A 
HETATM   18  C   UNL     1     -39.903  52.381 -51.605  1.00  0.00     0.025 A 
ENDBRANCH  11  13
ENDBRANCH   8  11
ENDBRANCH   1   7
BRANCH   5  19
HETATM   19  C   UNL     1     -42.073  59.589 -56.162  1.00  0.00     0.195 C 
HETATM   20  O   UNL     1     -41.559  60.605 -56.620  1.00  0.00    -0.287 OA
BRANCH  19  21
HETATM   21  C   UNL     1     -42.897  58.754 -57.055  1.00  0.00     0.037 A 
HETATM   22  C   UNL     1     -44.294  58.772 -56.984  1.00  0.00     0.049 A 
HETATM   23 CL   UNL     1     -45.152  59.843 -55.940  1.00  0.00    -0.083 Cl
HETATM   24  C   UNL     1     -45.039  57.920 -57.804  1.00  0.00     0.048 A 
HETATM   25  C   UNL     1     -44.386  57.057 -58.684  1.00  0.00     0.035 A 
HETATM   26 CL   UNL     1     -45.306  56.007 -59.690  1.00  0.00    -0.084 Cl
HETATM   27  C   UNL     1     -42.993  57.035 -58.758  1.00  0.00     0.025 A 
HETATM   28  C   UNL     1     -42.244  57.881 -57.939  1.00  0.00     0.019 A 
ENDBRANCH  19  21
ENDBRANCH   5  19
TORSDOF 5
ENDMDL
