MODEL 1
REMARK VINA RESULT:      -8.6      0.000      0.000
REMARK  4 active torsions:
REMARK  status: ('A' for Active; 'I' for Inactive)
REMARK    1  A    between atoms: C_5  and  N_6 
REMARK       I    between atoms: N_6  and  C_7 
REMARK    2  A    between atoms: C_7  and  C_8 
REMARK    3  A    between atoms: N_10  and  C_11 
REMARK    4  A    between atoms: C_21  and  O_22 
ROOT
HETATM    1  N   UNL     1     -43.994  56.511 -56.885  1.00  0.00    -0.346 N 
HETATM    2  C   UNL     1     -42.874  56.746 -56.127  1.00  0.00     0.255 C 
HETATM    3  O   UNL     1     -42.204  57.766 -56.240  1.00  0.00    -0.268 OA
HETATM    4  H   UNL     1     -44.590  55.719 -56.692  1.00  0.00     0.163 HD
ENDROOT
BRANCH   2   5
HETATM    5  C   UNL     1     -42.559  55.726 -55.145  1.00  0.00     0.068 A 
HETATM    6  C   UNL     1     -41.493  54.848 -55.089  1.00  0.00     0.137 A 
HETATM    7  N   UNL     1     -41.670  54.016 -53.999  1.00  0.00    -0.243 N 
HETATM    8  N   UNL     1     -42.780  54.402 -53.302  1.00  0.00    -0.179 NA
HETATM    9  C   UNL     1     -43.311  55.399 -54.005  1.00  0.00     0.157 A 
BRANCH   7  10
HETATM   10  C   UNL     1     -40.911  52.892 -53.534  1.00  0.00     0.079 A 
HETATM   11  C   UNL     1     -40.279  52.787 -52.284  1.00  0.00     0.062 A 
HETATM   12 CL   UNL     1     -40.242  53.990 -51.045  1.00  0.00    -0.082 Cl
HETATM   13  C   UNL     1     -39.555  51.621 -51.961  1.00  0.00     0.026 A 
HETATM   14  C   UNL     1     -39.444  50.563 -52.860  1.00  0.00     0.002 A 
HETATM   15  C   UNL     1     -40.056  50.656 -54.099  1.00  0.00     0.002 A 
HETATM   16  C   UNL     1     -40.780  51.804 -54.432  1.00  0.00     0.033 A 
ENDBRANCH   7  10
ENDBRANCH   2   5
BRANCH   1  17
HETATM   17  C   UNL     1     -44.528  57.523 -57.771  1.00  0.00     0.147 C 
HETATM   18  C   UNL     1     -45.231  56.928 -58.959  1.00  0.00    -0.027 A 
HETATM   19  C   UNL     1     -46.440  57.587 -59.207  1.00  0.00    -0.047 A 
HETATM   20  C   UNL     1     -44.790  55.914 -59.797  1.00  0.00     0.010 A 
HETATM   21  C   UNL     1     -47.237  57.237 -60.285  1.00  0.00     0.008 A 
HETATM   22  C   UNL     1     -46.671  58.697 -58.223  1.00  0.00     0.073 C 
HETATM   23  C   UNL     1     -46.808  56.204 -61.121  1.00  0.00     0.001 A 
HETATM   24  C   UNL     1     -45.591  55.549 -60.880  1.00  0.00     0.001 A 
HETATM   25  C   UNL     1     -45.669  58.354 -57.107  1.00  0.00     0.149 C 
BRANCH  25  26
HETATM   26  O   UNL     1     -46.354  57.596 -56.091  1.00  0.00    -0.393 OA
HETATM   27  H   UNL     1     -47.036  57.079 -56.554  1.00  0.00     0.210 HD
ENDBRANCH  25  26
ENDBRANCH   1  17
TORSDOF 4
ENDMDL
MODEL 2
REMARK VINA RESULT:      -8.3      2.369      3.456
REMARK  4 active torsions:
REMARK  status: ('A' for Active; 'I' for Inactive)
REMARK    1  A    between atoms: C_5  and  N_6 
REMARK       I    between atoms: N_6  and  C_7 
REMARK    2  A    between atoms: C_7  and  C_8 
REMARK    3  A    between atoms: N_10  and  C_11 
REMARK    4  A    between atoms: C_21  and  O_22 
ROOT
HETATM    1  N   UNL     1     -42.195  56.707 -56.969  1.00  0.00    -0.346 N 
HETATM    2  C   UNL     1     -42.733  56.253 -55.791  1.00  0.00     0.255 C 
HETATM    3  O   UNL     1     -43.880  56.514 -55.447  1.00  0.00    -0.268 OA
HETATM    4  H   UNL     1     -41.290  56.383 -57.282  1.00  0.00     0.163 HD
ENDROOT
BRANCH   2   5
HETATM    5  C   UNL     1     -41.869  55.400 -54.998  1.00  0.00     0.068 A 
HETATM    6  C   UNL     1     -41.754  54.022 -54.981  1.00  0.00     0.137 A 
HETATM    7  N   UNL     1     -40.844  53.673 -54.001  1.00  0.00    -0.243 N 
HETATM    8  N   UNL     1     -40.305  54.799 -53.451  1.00  0.00    -0.179 NA
HETATM    9  C   UNL     1     -40.938  55.816 -54.032  1.00  0.00     0.157 A 
BRANCH   7  10
HETATM   10  C   UNL     1     -40.422  52.390 -53.519  1.00  0.00     0.079 A 
HETATM   11  C   UNL     1     -39.966  52.109 -52.219  1.00  0.00     0.062 A 
HETATM   12 CL   UNL     1     -39.779  53.241 -50.928  1.00  0.00    -0.082 Cl
HETATM   13  C   UNL     1     -39.573  50.798 -51.883  1.00  0.00     0.026 A 
HETATM   14  C   UNL     1     -39.618  49.765 -52.815  1.00  0.00     0.002 A 
HETATM   15  C   UNL     1     -40.058  50.029 -54.102  1.00  0.00     0.002 A 
HETATM   16  C   UNL     1     -40.455  51.323 -54.449  1.00  0.00     0.033 A 
ENDBRANCH   7  10
ENDBRANCH   2   5
BRANCH   1  17
HETATM   17  C   UNL     1     -43.003  57.412 -57.942  1.00  0.00     0.147 C 
HETATM   18  C   UNL     1     -42.402  58.733 -58.332  1.00  0.00    -0.027 A 
HETATM   19  C   UNL     1     -42.466  58.923 -59.717  1.00  0.00    -0.047 A 
HETATM   20  C   UNL     1     -41.895  59.723 -57.502  1.00  0.00     0.010 A 
HETATM   21  C   UNL     1     -42.012  60.096 -60.300  1.00  0.00     0.008 A 
HETATM   22  C   UNL     1     -43.123  57.759 -60.400  1.00  0.00     0.073 C 
HETATM   23  C   UNL     1     -41.482  61.087 -59.472  1.00  0.00     0.001 A 
HETATM   24  C   UNL     1     -41.427  60.903 -58.082  1.00  0.00     0.001 A 
HETATM   25  C   UNL     1     -43.064  56.671 -59.313  1.00  0.00     0.149 C 
BRANCH  25  26
HETATM   26  O   UNL     1     -41.890  55.865 -59.533  1.00  0.00    -0.393 OA
HETATM   27  H   UNL     1     -41.495  55.719 -58.657  1.00  0.00     0.210 HD
ENDBRANCH  25  26
ENDBRANCH   1  17
TORSDOF 4
ENDMDL
MODEL 3
REMARK VINA RESULT:      -8.3      1.776      2.433
REMARK  4 active torsions:
REMARK  status: ('A' for Active; 'I' for Inactive)
REMARK    1  A    between atoms: C_5  and  N_6 
REMARK       I    between atoms: N_6  and  C_7 
REMARK    2  A    between atoms: C_7  and  C_8 
REMARK    3  A    between atoms: N_10  and  C_11 
REMARK    4  A    between atoms: C_21  and  O_22 
ROOT
HETATM    1  N   UNL     1     -44.463  57.152 -56.410  1.00  0.00    -0.346 N 
HETATM    2  C   UNL     1     -43.214  57.365 -55.882  1.00  0.00     0.255 C 
HETATM    3  O   UNL     1     -42.345  57.992 -56.478  1.00  0.00    -0.268 OA
HETATM    4  H   UNL     1     -45.194  56.733 -55.853  1.00  0.00     0.163 HD
ENDROOT
BRANCH   2   5
HETATM    5  C   UNL     1     -43.003  56.840 -54.547  1.00  0.00     0.068 A 
HETATM    6  C   UNL     1     -41.877  56.261 -53.989  1.00  0.00     0.137 A 
HETATM    7  N   UNL     1     -42.189  55.852 -52.706  1.00  0.00    -0.243 N 
HETATM    8  N   UNL     1     -43.461  56.238 -52.396  1.00  0.00    -0.179 NA
HETATM    9  C   UNL     1     -43.941  56.800 -53.503  1.00  0.00     0.157 A 
BRANCH   7  10
HETATM   10  C   UNL     1     -41.421  55.133 -51.731  1.00  0.00     0.079 A 
HETATM   11  C   UNL     1     -40.681  53.962 -51.968  1.00  0.00     0.062 A 
HETATM   12 CL   UNL     1     -40.555  53.109 -53.465  1.00  0.00    -0.082 Cl
HETATM   13  C   UNL     1     -39.976  53.353 -50.910  1.00  0.00     0.026 A 
HETATM   14  C   UNL     1     -40.000  53.883 -49.622  1.00  0.00     0.002 A 
HETATM   15  C   UNL     1     -40.732  55.033 -49.373  1.00  0.00     0.002 A 
HETATM   16  C   UNL     1     -41.432  55.649 -50.412  1.00  0.00     0.033 A 
ENDBRANCH   7  10
ENDBRANCH   2   5
BRANCH   1  17
HETATM   17  C   UNL     1     -44.871  57.775 -57.651  1.00  0.00     0.147 C 
HETATM   18  C   UNL     1     -44.918  56.799 -58.792  1.00  0.00    -0.027 A 
HETATM   19  C   UNL     1     -46.076  56.977 -59.557  1.00  0.00    -0.047 A 
HETATM   20  C   UNL     1     -43.962  55.861 -59.159  1.00  0.00     0.010 A 
HETATM   21  C   UNL     1     -46.309  56.215 -60.691  1.00  0.00     0.008 A 
HETATM   22  C   UNL     1     -46.921  58.095 -59.019  1.00  0.00     0.073 C 
HETATM   23  C   UNL     1     -45.360  55.257 -61.053  1.00  0.00     0.001 A 
HETATM   24  C   UNL     1     -44.193  55.084 -60.295  1.00  0.00     0.001 A 
HETATM   25  C   UNL     1     -46.344  58.285 -57.605  1.00  0.00     0.149 C 
BRANCH  25  26
HETATM   26  O   UNL     1     -47.140  57.521 -56.678  1.00  0.00    -0.393 OA
HETATM   27  H   UNL     1     -46.804  56.609 -56.720  1.00  0.00     0.210 HD
ENDBRANCH  25  26
ENDBRANCH   1  17
TORSDOF 4
ENDMDL
MODEL 4
REMARK VINA RESULT:      -8.2      3.163      8.319
REMARK  4 active torsions:
REMARK  status: ('A' for Active; 'I' for Inactive)
REMARK    1  A    between atoms: C_5  and  N_6 
REMARK       I    between atoms: N_6  and  C_7 
REMARK    2  A    between atoms: C_7  and  C_8 
REMARK    3  A    between atoms: N_10  and  C_11 
REMARK    4  A    between atoms: C_21  and  O_22 
ROOT
HETATM    1  N   UNL     1     -42.221  55.093 -54.552  1.00  0.00    -0.346 N 
HETATM    2  C   UNL     1     -42.904  54.810 -55.708  1.00  0.00     0.255 C 
HETATM    3  O   UNL     1     -43.599  53.807 -55.834  1.00  0.00    -0.268 OA
HETATM    4  H   UNL     1     -41.751  55.979 -54.435  1.00  0.00     0.163 HD
ENDROOT
BRANCH   2   5
HETATM    5  C   UNL     1     -42.791  55.801 -56.760  1.00  0.00     0.068 A 
HETATM    6  C   UNL     1     -42.268  57.081 -56.720  1.00  0.00     0.137 A 
HETATM    7  N   UNL     1     -42.452  57.665 -57.960  1.00  0.00    -0.243 N 
HETATM    8  N   UNL     1     -42.998  56.756 -58.820  1.00  0.00    -0.179 NA
HETATM    9  C   UNL     1     -43.217  55.665 -58.090  1.00  0.00     0.157 A 
BRANCH   7  10
HETATM   10  C   UNL     1     -42.171  58.990 -58.431  1.00  0.00     0.079 A 
HETATM   11  C   UNL     1     -41.957  60.121 -57.625  1.00  0.00     0.062 A 
HETATM   12 CL   UNL     1     -42.016  60.181 -55.899  1.00  0.00    -0.082 Cl
HETATM   13  C   UNL     1     -41.698  61.370 -58.225  1.00  0.00     0.026 A 
HETATM   14  C   UNL     1     -41.655  61.515 -59.609  1.00  0.00     0.002 A 
HETATM   15  C   UNL     1     -41.872  60.410 -60.416  1.00  0.00     0.002 A 
HETATM   16  C   UNL     1     -42.126  59.165 -59.835  1.00  0.00     0.033 A 
ENDBRANCH   7  10
ENDBRANCH   2   5
BRANCH   1  17
HETATM   17  C   UNL     1     -42.391  54.287 -53.361  1.00  0.00     0.147 C 
HETATM   18  C   UNL     1     -41.287  53.282 -53.190  1.00  0.00    -0.027 A 
HETATM   19  C   UNL     1     -40.844  53.246 -51.863  1.00  0.00    -0.047 A 
HETATM   20  C   UNL     1     -40.761  52.415 -54.138  1.00  0.00     0.010 A 
HETATM   21  C   UNL     1     -39.859  52.357 -51.462  1.00  0.00     0.008 A 
HETATM   22  C   UNL     1     -41.607  54.212 -51.005  1.00  0.00     0.073 C 
HETATM   23  C   UNL     1     -39.313  51.496 -52.416  1.00  0.00     0.001 A 
HETATM   24  C   UNL     1     -39.764  51.522 -53.744  1.00  0.00     0.001 A 
HETATM   25  C   UNL     1     -42.267  55.126 -52.052  1.00  0.00     0.149 C 
BRANCH  25  26
HETATM   26  O   UNL     1     -41.431  56.284 -52.243  1.00  0.00    -0.393 OA
HETATM   27  H   UNL     1     -41.320  56.685 -51.364  1.00  0.00     0.210 HD
ENDBRANCH  25  26
ENDBRANCH   1  17
TORSDOF 4
ENDMDL
MODEL 5
REMARK VINA RESULT:      -8.0      3.424      8.506
REMARK  4 active torsions:
REMARK  status: ('A' for Active; 'I' for Inactive)
REMARK    1  A    between atoms: C_5  and  N_6 
REMARK       I    between atoms: N_6  and  C_7 
REMARK    2  A    between atoms: C_7  and  C_8 
REMARK    3  A    between atoms: N_10  and  C_11 
REMARK    4  A    between atoms: C_21  and  O_22 
ROOT
HETATM    1  N   UNL     1     -42.060  55.645 -54.057  1.00  0.00    -0.346 N 
HETATM    2  C   UNL     1     -43.104  56.346 -54.606  1.00  0.00     0.255 C 
HETATM    3  O   UNL     1     -44.276  56.095 -54.344  1.00  0.00    -0.268 OA
HETATM    4  H   UNL     1     -41.106  55.945 -54.200  1.00  0.00     0.163 HD
ENDROOT
BRANCH   2   5
HETATM    5  C   UNL     1     -42.731  57.439 -55.483  1.00  0.00     0.068 A 
HETATM    6  C   UNL     1     -42.901  57.579 -56.848  1.00  0.00     0.137 A 
HETATM    7  N   UNL     1     -42.313  58.767 -57.240  1.00  0.00    -0.243 N 
HETATM    8  N   UNL     1     -41.851  59.436 -56.143  1.00  0.00    -0.179 NA
HETATM    9  C   UNL     1     -42.082  58.627 -55.112  1.00  0.00     0.157 A 
BRANCH   7  10
HETATM   10  C   UNL     1     -42.135  59.350 -58.538  1.00  0.00     0.079 A 
HETATM   11  C   UNL     1     -42.082  58.647 -59.754  1.00  0.00     0.062 A 
HETATM   12 CL   UNL     1     -42.184  56.935 -59.959  1.00  0.00    -0.082 Cl
HETATM   13  C   UNL     1     -41.893  59.350 -60.961  1.00  0.00     0.026 A 
HETATM   14  C   UNL     1     -41.749  60.735 -60.980  1.00  0.00     0.002 A 
HETATM   15  C   UNL     1     -41.792  61.440 -59.788  1.00  0.00     0.002 A 
HETATM   16  C   UNL     1     -41.983  60.757 -58.584  1.00  0.00     0.033 A 
ENDBRANCH   7  10
ENDBRANCH   2   5
BRANCH   1  17
HETATM   17  C   UNL     1     -42.279  54.652 -53.027  1.00  0.00     0.147 C 
HETATM   18  C   UNL     1     -41.272  53.539 -53.084  1.00  0.00    -0.027 A 
HETATM   19  C   UNL     1     -40.805  53.219 -51.804  1.00  0.00    -0.047 A 
HETATM   20  C   UNL     1     -40.851  52.818 -54.193  1.00  0.00     0.010 A 
HETATM   21  C   UNL     1     -39.900  52.188 -51.609  1.00  0.00     0.008 A 
HETATM   22  C   UNL     1     -41.455  54.074 -50.755  1.00  0.00     0.073 C 
HETATM   23  C   UNL     1     -39.459  51.472 -52.724  1.00  0.00     0.001 A 
HETATM   24  C   UNL     1     -39.934  51.783 -54.007  1.00  0.00     0.001 A 
HETATM   25  C   UNL     1     -42.048  55.221 -51.593  1.00  0.00     0.149 C 
BRANCH  25  26
HETATM   26  O   UNL     1     -41.111  56.315 -51.603  1.00  0.00    -0.393 OA
HETATM   27  H   UNL     1     -40.391  56.060 -51.000  1.00  0.00     0.210 HD
ENDBRANCH  25  26
ENDBRANCH   1  17
TORSDOF 4
ENDMDL
MODEL 6
REMARK VINA RESULT:      -7.9      4.072      5.104
REMARK  4 active torsions:
REMARK  status: ('A' for Active; 'I' for Inactive)
REMARK    1  A    between atoms: C_5  and  N_6 
REMARK       I    between atoms: N_6  and  C_7 
REMARK    2  A    between atoms: C_7  and  C_8 
REMARK    3  A    between atoms: N_10  and  C_11 
REMARK    4  A    between atoms: C_21  and  O_22 
ROOT
HETATM    1  N   UNL     1     -42.501  57.072 -51.679  1.00  0.00    -0.346 N 
HETATM    2  C   UNL     1     -41.432  56.852 -50.846  1.00  0.00     0.255 C 
HETATM    3  O   UNL     1     -40.931  57.742 -50.168  1.00  0.00    -0.268 OA
HETATM    4  H   UNL     1     -42.965  56.300 -52.137  1.00  0.00     0.163 HD
ENDROOT
BRANCH   2   5
HETATM    5  C   UNL     1     -40.961  55.482 -50.783  1.00  0.00     0.068 A 
HETATM    6  C   UNL     1     -40.711  54.581 -51.802  1.00  0.00     0.137 A 
HETATM    7  N   UNL     1     -40.347  53.373 -51.236  1.00  0.00    -0.243 N 
HETATM    8  N   UNL     1     -40.269  53.506 -49.880  1.00  0.00    -0.179 NA
HETATM    9  C   UNL     1     -40.659  54.752 -49.622  1.00  0.00     0.157 A 
BRANCH   7  10
HETATM   10  C   UNL     1     -40.062  52.100 -51.830  1.00  0.00     0.079 A 
HETATM   11  C   UNL     1     -39.966  51.838 -53.207  1.00  0.00     0.062 A 
HETATM   12 CL   UNL     1     -40.199  52.972 -54.489  1.00  0.00    -0.082 Cl
HETATM   13  C   UNL     1     -39.687  50.530 -53.654  1.00  0.00     0.026 A 
HETATM   14  C   UNL     1     -39.510  49.479 -52.757  1.00  0.00     0.002 A 
HETATM   15  C   UNL     1     -39.610  49.721 -51.397  1.00  0.00     0.002 A 
HETATM   16  C   UNL     1     -39.882  51.013 -50.939  1.00  0.00     0.033 A 
ENDBRANCH   7  10
ENDBRANCH   2   5
BRANCH   1  17
HETATM   17  C   UNL     1     -43.187  58.346 -51.701  1.00  0.00     0.147 C 
HETATM   18  C   UNL     1     -43.514  58.793 -53.097  1.00  0.00    -0.027 A 
HETATM   19  C   UNL     1     -44.820  59.292 -53.170  1.00  0.00    -0.047 A 
HETATM   20  C   UNL     1     -42.683  58.814 -54.209  1.00  0.00     0.010 A 
HETATM   21  C   UNL     1     -45.324  59.806 -54.355  1.00  0.00     0.008 A 
HETATM   22  C   UNL     1     -45.501  59.243 -51.834  1.00  0.00     0.073 C 
HETATM   23  C   UNL     1     -44.499  59.811 -55.481  1.00  0.00     0.001 A 
HETATM   24  C   UNL     1     -43.186  59.322 -55.408  1.00  0.00     0.001 A 
HETATM   25  C   UNL     1     -44.602  58.272 -51.048  1.00  0.00     0.149 C 
BRANCH  25  26
HETATM   26  O   UNL     1     -45.161  56.947 -51.145  1.00  0.00    -0.393 OA
HETATM   27  H   UNL     1     -44.411  56.349 -51.305  1.00  0.00     0.210 HD
ENDBRANCH  25  26
ENDBRANCH   1  17
TORSDOF 4
ENDMDL
MODEL 7
REMARK VINA RESULT:      -7.9      4.838      8.899
REMARK  4 active torsions:
REMARK  status: ('A' for Active; 'I' for Inactive)
REMARK    1  A    between atoms: C_5  and  N_6 
REMARK       I    between atoms: N_6  and  C_7 
REMARK    2  A    between atoms: C_7  and  C_8 
REMARK    3  A    between atoms: N_10  and  C_11 
REMARK    4  A    between atoms: C_21  and  O_22 
ROOT
HETATM    1  N   UNL     1     -42.108  55.995 -52.936  1.00  0.00    -0.346 N 
HETATM    2  C   UNL     1     -42.003  57.015 -52.024  1.00  0.00     0.255 C 
HETATM    3  O   UNL     1     -40.929  57.361 -51.544  1.00  0.00    -0.268 OA
HETATM    4  H   UNL     1     -42.985  55.807 -53.400  1.00  0.00     0.163 HD
ENDROOT
BRANCH   2   5
HETATM    5  C   UNL     1     -43.243  57.693 -51.699  1.00  0.00     0.068 A 
HETATM    6  C   UNL     1     -43.617  59.008 -51.909  1.00  0.00     0.137 A 
HETATM    7  N   UNL     1     -44.871  59.196 -51.359  1.00  0.00    -0.243 N 
HETATM    8  N   UNL     1     -45.347  58.009 -50.882  1.00  0.00    -0.179 NA
HETATM    9  C   UNL     1     -44.364  57.132 -51.067  1.00  0.00     0.157 A 
BRANCH   7  10
HETATM   10  C   UNL     1     -45.677  60.375 -51.228  1.00  0.00     0.079 A 
HETATM   11  C   UNL     1     -45.697  61.239 -50.120  1.00  0.00     0.062 A 
HETATM   12 CL   UNL     1     -44.789  61.063 -48.662  1.00  0.00    -0.082 Cl
HETATM   13  C   UNL     1     -46.549  62.362 -50.124  1.00  0.00     0.026 A 
HETATM   14  C   UNL     1     -47.385  62.636 -51.203  1.00  0.00     0.002 A 
HETATM   15  C   UNL     1     -47.381  61.789 -52.299  1.00  0.00     0.002 A 
HETATM   16  C   UNL     1     -46.539  60.674 -52.312  1.00  0.00     0.033 A 
ENDBRANCH   7  10
ENDBRANCH   2   5
BRANCH   1  17
HETATM   17  C   UNL     1     -40.933  55.355 -53.488  1.00  0.00     0.147 C 
HETATM   18  C   UNL     1     -40.601  54.068 -52.788  1.00  0.00    -0.027 A 
HETATM   19  C   UNL     1     -40.274  53.066 -53.708  1.00  0.00    -0.047 A 
HETATM   20  C   UNL     1     -40.533  53.827 -51.422  1.00  0.00     0.010 A 
HETATM   21  C   UNL     1     -39.889  51.804 -53.285  1.00  0.00     0.008 A 
HETATM   22  C   UNL     1     -40.341  53.575 -55.118  1.00  0.00     0.073 C 
HETATM   23  C   UNL     1     -39.837  51.550 -51.913  1.00  0.00     0.001 A 
HETATM   24  C   UNL     1     -40.153  52.556 -50.988  1.00  0.00     0.001 A 
HETATM   25  C   UNL     1     -41.151  54.874 -54.956  1.00  0.00     0.149 C 
BRANCH  25  26
HETATM   26  O   UNL     1     -42.538  54.587 -55.218  1.00  0.00    -0.393 OA
HETATM   27  H   UNL     1     -42.705  54.875 -56.132  1.00  0.00     0.210 HD
ENDBRANCH  25  26
ENDBRANCH   1  17
TORSDOF 4
ENDMDL
MODEL 8
REMARK VINA RESULT:      -7.8      5.854      8.941
REMARK  4 active torsions:
REMARK  status: ('A' for Active; 'I' for Inactive)
REMARK    1  A    between atoms: C_5  and  N_6 
REMARK       I    between atoms: N_6  and  C_7 
REMARK    2  A    between atoms: C_7  and  C_8 
REMARK    3  A    between atoms: N_10  and  C_11 
REMARK    4  A    between atoms: C_21  and  O_22 
ROOT
HETATM    1  N   UNL     1     -43.380  56.912 -52.831  1.00  0.00    -0.346 N 
HETATM    2  C   UNL     1     -43.030  58.138 -52.325  1.00  0.00     0.255 C 
HETATM    3  O   UNL     1     -41.979  58.698 -52.619  1.00  0.00    -0.268 OA
HETATM    4  H   UNL     1     -44.299  56.528 -52.664  1.00  0.00     0.163 HD
ENDROOT
BRANCH   2   5
HETATM    5  C   UNL     1     -44.011  58.757 -51.454  1.00  0.00     0.068 A 
HETATM    6  C   UNL     1     -44.001  60.001 -50.849  1.00  0.00     0.137 A 
HETATM    7  N   UNL     1     -45.126  60.106 -50.052  1.00  0.00    -0.243 N 
HETATM    8  N   UNL     1     -45.903  58.994 -50.204  1.00  0.00    -0.179 NA
HETATM    9  C   UNL     1     -45.219  58.192 -51.017  1.00  0.00     0.157 A 
BRANCH   7  10
HETATM   10  C   UNL     1     -45.556  61.140 -49.157  1.00  0.00     0.079 A 
HETATM   11  C   UNL     1     -46.390  62.222 -49.489  1.00  0.00     0.062 A 
HETATM   12 CL   UNL     1     -47.053  62.568 -51.046  1.00  0.00    -0.082 Cl
HETATM   13  C   UNL     1     -46.727  63.174 -48.506  1.00  0.00     0.026 A 
HETATM   14  C   UNL     1     -46.245  63.074 -47.204  1.00  0.00     0.002 A 
HETATM   15  C   UNL     1     -45.417  62.017 -46.863  1.00  0.00     0.002 A 
HETATM   16  C   UNL     1     -45.077  61.063 -47.826  1.00  0.00     0.033 A 
ENDBRANCH   7  10
ENDBRANCH   2   5
BRANCH   1  17
HETATM   17  C   UNL     1     -42.583  56.265 -53.853  1.00  0.00     0.147 C 
HETATM   18  C   UNL     1     -41.827  55.080 -53.321  1.00  0.00    -0.027 A 
HETATM   19  C   UNL     1     -41.912  53.996 -54.202  1.00  0.00    -0.047 A 
HETATM   20  C   UNL     1     -41.064  54.997 -52.165  1.00  0.00     0.010 A 
HETATM   21  C   UNL     1     -41.251  52.807 -53.939  1.00  0.00     0.008 A 
HETATM   22  C   UNL     1     -42.721  54.340 -55.418  1.00  0.00     0.073 C 
HETATM   23  C   UNL     1     -40.497  52.711 -52.768  1.00  0.00     0.001 A 
HETATM   24  C   UNL     1     -40.401  53.800 -51.888  1.00  0.00     0.001 A 
HETATM   25  C   UNL     1     -43.459  55.614 -54.967  1.00  0.00     0.149 C 
BRANCH  25  26
HETATM   26  O   UNL     1     -44.758  55.240 -54.468  1.00  0.00    -0.393 OA
HETATM   27  H   UNL     1     -44.640  54.384 -54.021  1.00  0.00     0.210 HD
ENDBRANCH  25  26
ENDBRANCH   1  17
TORSDOF 4
ENDMDL
MODEL 9
REMARK VINA RESULT:      -7.6     15.799     18.749
REMARK  4 active torsions:
REMARK  status: ('A' for Active; 'I' for Inactive)
REMARK    1  A    between atoms: C_5  and  N_6 
REMARK       I    between atoms: N_6  and  C_7 
REMARK    2  A    between atoms: C_7  and  C_8 
REMARK    3  A    between atoms: N_10  and  C_11 
REMARK    4  A    between atoms: C_21  and  O_22 
ROOT
HETATM    1  N   UNL     1     -34.268  40.934 -53.014  1.00  0.00    -0.346 N 
HETATM    2  C   UNL     1     -35.195  41.835 -53.476  1.00  0.00     0.255 C 
HETATM    3  O   UNL     1     -35.634  42.744 -52.779  1.00  0.00    -0.268 OA
HETATM    4  H   UNL     1     -33.839  40.269 -53.641  1.00  0.00     0.163 HD
ENDROOT
BRANCH   2   5
HETATM    5  C   UNL     1     -35.588  41.672 -54.862  1.00  0.00     0.068 A 
HETATM    6  C   UNL     1     -36.518  40.817 -55.426  1.00  0.00     0.137 A 
HETATM    7  N   UNL     1     -36.484  40.981 -56.798  1.00  0.00    -0.243 N 
HETATM    8  N   UNL     1     -35.619  41.986 -57.120  1.00  0.00    -0.179 NA
HETATM    9  C   UNL     1     -35.076  42.370 -55.967  1.00  0.00     0.157 A 
BRANCH   7  10
HETATM   10  C   UNL     1     -37.177  40.294 -57.849  1.00  0.00     0.079 A 
HETATM   11  C   UNL     1     -37.512  40.833 -59.103  1.00  0.00     0.062 A 
HETATM   12 CL   UNL     1     -37.199  42.442 -59.648  1.00  0.00    -0.082 Cl
HETATM   13  C   UNL     1     -38.205  40.043 -60.042  1.00  0.00     0.026 A 
HETATM   14  C   UNL     1     -38.576  38.732 -59.755  1.00  0.00     0.002 A 
HETATM   15  C   UNL     1     -38.259  38.190 -58.520  1.00  0.00     0.002 A 
HETATM   16  C   UNL     1     -37.569  38.960 -57.580  1.00  0.00     0.033 A 
ENDBRANCH   7  10
ENDBRANCH   2   5
BRANCH   1  17
HETATM   17  C   UNL     1     -33.651  41.090 -51.714  1.00  0.00     0.147 C 
HETATM   18  C   UNL     1     -34.249  40.171 -50.686  1.00  0.00    -0.027 A 
HETATM   19  C   UNL     1     -33.250  39.573 -49.908  1.00  0.00    -0.047 A 
HETATM   20  C   UNL     1     -35.591  39.937 -50.421  1.00  0.00     0.010 A 
HETATM   21  C   UNL     1     -33.572  38.719 -48.865  1.00  0.00     0.008 A 
HETATM   22  C   UNL     1     -31.884  40.033 -50.323  1.00  0.00     0.073 C 
HETATM   23  C   UNL     1     -34.920  38.465 -48.606  1.00  0.00     0.001 A 
HETATM   24  C   UNL     1     -35.923  39.072 -49.377  1.00  0.00     0.001 A 
HETATM   25  C   UNL     1     -32.155  40.649 -51.708  1.00  0.00     0.149 C 
BRANCH  25  26
HETATM   26  O   UNL     1     -31.893  39.651 -52.714  1.00  0.00    -0.393 OA
HETATM   27  H   UNL     1     -32.725  39.538 -53.205  1.00  0.00     0.210 HD
ENDBRANCH  25  26
ENDBRANCH   1  17
TORSDOF 4
ENDMDL
MODEL 10
REMARK VINA RESULT:      -7.6      4.867      5.993
REMARK  4 active torsions:
REMARK  status: ('A' for Active; 'I' for Inactive)
REMARK    1  A    between atoms: C_5  and  N_6 
REMARK       I    between atoms: N_6  and  C_7 
REMARK    2  A    between atoms: C_7  and  C_8 
REMARK    3  A    between atoms: N_10  and  C_11 
REMARK    4  A    between atoms: C_21  and  O_22 
ROOT
HETATM    1  N   UNL     1     -44.103  58.874 -51.035  1.00  0.00    -0.346 N 
HETATM    2  C   UNL     1     -42.915  58.468 -51.588  1.00  0.00     0.255 C 
HETATM    3  O   UNL     1     -42.062  59.261 -51.973  1.00  0.00    -0.268 OA
HETATM    4  H   UNL     1     -44.736  58.203 -50.623  1.00  0.00     0.163 HD
ENDROOT
BRANCH   2   5
HETATM    5  C   UNL     1     -42.710  57.033 -51.645  1.00  0.00     0.068 A 
HETATM    6  C   UNL     1     -41.584  56.311 -51.996  1.00  0.00     0.137 A 
HETATM    7  N   UNL     1     -41.903  54.966 -51.967  1.00  0.00    -0.243 N 
HETATM    8  N   UNL     1     -43.182  54.806 -51.517  1.00  0.00    -0.179 NA
HETATM    9  C   UNL     1     -43.657  56.039 -51.354  1.00  0.00     0.157 A 
BRANCH   7  10
HETATM   10  C   UNL     1     -41.137  53.806 -52.318  1.00  0.00     0.079 A 
HETATM   11  C   UNL     1     -40.236  53.130 -51.477  1.00  0.00     0.062 A 
HETATM   12 CL   UNL     1     -39.824  53.558 -49.855  1.00  0.00    -0.082 Cl
HETATM   13  C   UNL     1     -39.541  52.002 -51.958  1.00  0.00     0.026 A 
HETATM   14  C   UNL     1     -39.720  51.540 -53.259  1.00  0.00     0.002 A 
HETATM   15  C   UNL     1     -40.599  52.201 -54.102  1.00  0.00     0.002 A 
HETATM   16  C   UNL     1     -41.298  53.318 -53.638  1.00  0.00     0.033 A 
ENDBRANCH   7  10
ENDBRANCH   2   5
BRANCH   1  17
HETATM   17  C   UNL     1     -44.362  60.269 -50.748  1.00  0.00     0.147 C 
HETATM   18  C   UNL     1     -45.310  60.888 -51.736  1.00  0.00    -0.027 A 
HETATM   19  C   UNL     1     -46.266  61.677 -51.085  1.00  0.00    -0.047 A 
HETATM   20  C   UNL     1     -45.281  60.806 -53.121  1.00  0.00     0.010 A 
HETATM   21  C   UNL     1     -47.218  62.384 -51.803  1.00  0.00     0.008 A 
HETATM   22  C   UNL     1     -46.055  61.679 -49.600  1.00  0.00     0.073 C 
HETATM   23  C   UNL     1     -47.206  62.289 -53.196  1.00  0.00     0.001 A 
HETATM   24  C   UNL     1     -46.241  61.508 -53.851  1.00  0.00     0.001 A 
HETATM   25  C   UNL     1     -45.124  60.469 -49.403  1.00  0.00     0.149 C 
BRANCH  25  26
HETATM   26  O   UNL     1     -45.928  59.319 -49.074  1.00  0.00    -0.393 OA
HETATM   27  H   UNL     1     -46.292  59.488 -48.188  1.00  0.00     0.210 HD
ENDBRANCH  25  26
ENDBRANCH   1  17
TORSDOF 4
ENDMDL
