MODEL 1
REMARK VINA RESULT:      -8.8      0.000      0.000
REMARK  6 active torsions:
REMARK  status: ('A' for Active; 'I' for Inactive)
REMARK    1  A    between atoms: O_2  and  C_3 
REMARK    2  A    between atoms: C_7  and  C_8 
REMARK    3  A    between atoms: C_8  and  N_9 
REMARK       I    between atoms: N_9  and  C_10 
REMARK    4  A    between atoms: C_10  and  C_12 
REMARK    5  A    between atoms: N_14  and  C_15 
REMARK    6  A    between atoms: C_23  and  C_27 
ROOT
HETATM    1  C   UNL     1     -42.781  57.675 -55.442  1.00  0.00     0.060 C 
HETATM    2  C   UNL     1     -42.155  58.572 -54.595  1.00  0.00     0.115 C 
HETATM    3  N   UNL     1     -41.486  57.884 -53.599  1.00  0.00    -0.321 N 
HETATM    4  C   UNL     1     -41.538  56.523 -53.903  1.00  0.00     0.051 A 
HETATM    5  C   UNL     1     -40.885  55.403 -53.337  1.00  0.00     0.043 A 
HETATM    6  C   UNL     1     -41.158  54.113 -53.826  1.00  0.00    -0.021 A 
HETATM    7  C   UNL     1     -42.054  53.961 -54.885  1.00  0.00     0.013 A 
HETATM    8  C   UNL     1     -42.662  55.072 -55.480  1.00  0.00     0.016 A 
HETATM    9  C   UNL     1     -42.389  56.372 -55.005  1.00  0.00     0.008 A 
ENDROOT
BRANCH   1  10
HETATM   10  C   UNL     1     -43.683  57.999 -56.547  1.00  0.00     0.254 C 
HETATM   11  N   UNL     1     -43.061  58.186 -57.761  1.00  0.00    -0.353 N 
HETATM   12  H   UNL     1     -42.103  57.886 -57.860  1.00  0.00     0.163 HD
HETATM   13  O   UNL     1     -44.897  58.084 -56.397  1.00  0.00    -0.268 OA
BRANCH  11  14
HETATM   14  C   UNL     1     -43.814  58.445 -58.965  1.00  0.00     0.161 C 
BRANCH  14  15
HETATM   15  C   UNL     1     -44.431  57.186 -59.515  1.00  0.00    -0.038 A 
HETATM   16  C   UNL     1     -43.655  56.033 -59.686  1.00  0.00     0.009 A 
HETATM   17  C   UNL     1     -44.224  54.868 -60.198  1.00  0.00     0.003 A 
HETATM   18  C   UNL     1     -45.576  54.841 -60.551  1.00  0.00     0.037 A 
HETATM   19  C   UNL     1     -46.362  55.983 -60.397  1.00  0.00     0.068 A 
HETATM   20  C   UNL     1     -45.783  57.150 -59.887  1.00  0.00     0.045 A 
BRANCH  19  21
HETATM   21  O   UNL     1     -47.690  56.092 -60.705  1.00  0.00    -0.356 OA
HETATM   22  C   UNL     1     -48.014  56.783 -61.905  1.00  0.00     0.210 C 
ENDBRANCH  19  21
ENDBRANCH  14  15
ENDBRANCH  11  14
ENDBRANCH   1  10
BRANCH   3  23
HETATM   23  C   UNL     1     -40.892  58.504 -52.455  1.00  0.00     0.039 A 
HETATM   24  C   UNL     1     -39.516  58.765 -52.417  1.00  0.00     0.030 A 
HETATM   25  C   UNL     1     -38.939  59.346 -51.284  1.00  0.00     0.002 A 
HETATM   26  C   UNL     1     -39.728  59.664 -50.181  1.00  0.00     0.000 A 
HETATM   27  C   UNL     1     -41.094  59.393 -50.205  1.00  0.00     0.002 A 
HETATM   28  C   UNL     1     -41.677  58.808 -51.332  1.00  0.00     0.030 A 
ENDBRANCH   3  23
BRANCH   6  29
HETATM   29  C   UNL     1     -40.497  52.963 -53.232  1.00  0.00     0.010 A 
HETATM   30  C   UNL     1     -40.063  51.744 -53.807  1.00  0.00     0.152 A 
HETATM   31  N   UNL     1     -39.469  50.935 -52.923  1.00  0.00    -0.187 NA
HETATM   32  N   UNL     1     -39.522  51.632 -51.778  1.00  0.00    -0.289 N 
HETATM   33  H   UNL     1     -39.122  51.216 -50.944  1.00  0.00     0.188 HD
HETATM   34  C   UNL     1     -40.122  52.851 -51.908  1.00  0.00     0.123 A 
ENDBRANCH   6  29
TORSDOF 6
ENDMDL
MODEL 2
REMARK VINA RESULT:      -8.5      3.194      7.707
REMARK  6 active torsions:
REMARK  status: ('A' for Active; 'I' for Inactive)
REMARK    1  A    between atoms: O_2  and  C_3 
REMARK    2  A    between atoms: C_7  and  C_8 
REMARK    3  A    between atoms: C_8  and  N_9 
REMARK       I    between atoms: N_9  and  C_10 
REMARK    4  A    between atoms: C_10  and  C_12 
REMARK    5  A    between atoms: N_14  and  C_15 
REMARK    6  A    between atoms: C_23  and  C_27 
ROOT
HETATM    1  C   UNL     1     -41.856  58.215 -54.533  1.00  0.00     0.060 C 
HETATM    2  C   UNL     1     -41.979  59.510 -55.005  1.00  0.00     0.115 C 
HETATM    3  N   UNL     1     -42.336  59.488 -56.341  1.00  0.00    -0.321 N 
HETATM    4  C   UNL     1     -42.614  58.166 -56.693  1.00  0.00     0.051 A 
HETATM    5  C   UNL     1     -43.181  57.598 -57.858  1.00  0.00     0.043 A 
HETATM    6  C   UNL     1     -43.312  56.202 -57.962  1.00  0.00    -0.021 A 
HETATM    7  C   UNL     1     -42.903  55.397 -56.899  1.00  0.00     0.013 A 
HETATM    8  C   UNL     1     -42.388  55.959 -55.725  1.00  0.00     0.016 A 
HETATM    9  C   UNL     1     -42.260  57.359 -55.604  1.00  0.00     0.008 A 
ENDROOT
BRANCH   1  10
HETATM   10  C   UNL     1     -41.383  57.807 -53.211  1.00  0.00     0.254 C 
HETATM   11  N   UNL     1     -42.158  56.852 -52.592  1.00  0.00    -0.353 N 
HETATM   12  H   UNL     1     -42.840  56.356 -53.145  1.00  0.00     0.163 HD
HETATM   13  O   UNL     1     -40.368  58.274 -52.705  1.00  0.00    -0.268 OA
BRANCH  11  14
HETATM   14  C   UNL     1     -41.793  56.293 -51.313  1.00  0.00     0.161 C 
BRANCH  14  15
HETATM   15  C   UNL     1     -41.165  54.932 -51.461  1.00  0.00    -0.038 A 
HETATM   16  C   UNL     1     -40.672  54.253 -50.339  1.00  0.00     0.009 A 
HETATM   17  C   UNL     1     -40.088  52.995 -50.477  1.00  0.00     0.003 A 
HETATM   18  C   UNL     1     -39.983  52.400 -51.736  1.00  0.00     0.037 A 
HETATM   19  C   UNL     1     -40.460  53.066 -52.865  1.00  0.00     0.068 A 
HETATM   20  C   UNL     1     -41.041  54.330 -52.722  1.00  0.00     0.045 A 
BRANCH  19  21
HETATM   21  O   UNL     1     -40.418  52.599 -54.151  1.00  0.00    -0.356 OA
HETATM   22  C   UNL     1     -40.267  51.195 -54.317  1.00  0.00     0.210 C 
ENDBRANCH  19  21
ENDBRANCH  14  15
ENDBRANCH  11  14
ENDBRANCH   1  10
BRANCH   3  23
HETATM   23  C   UNL     1     -42.364  60.643 -57.183  1.00  0.00     0.039 A 
HETATM   24  C   UNL     1     -43.360  61.617 -57.028  1.00  0.00     0.030 A 
HETATM   25  C   UNL     1     -43.397  62.729 -57.873  1.00  0.00     0.002 A 
HETATM   26  C   UNL     1     -42.447  62.875 -58.882  1.00  0.00     0.000 A 
HETATM   27  C   UNL     1     -41.463  61.903 -59.053  1.00  0.00     0.002 A 
HETATM   28  C   UNL     1     -41.424  60.786 -58.214  1.00  0.00     0.030 A 
ENDBRANCH   3  23
BRANCH   6  29
HETATM   29  C   UNL     1     -43.883  55.620 -59.167  1.00  0.00     0.010 A 
HETATM   30  C   UNL     1     -44.105  56.177 -60.450  1.00  0.00     0.152 A 
HETATM   31  N   UNL     1     -44.637  55.304 -61.310  1.00  0.00    -0.187 NA
HETATM   32  N   UNL     1     -44.760  54.184 -60.581  1.00  0.00    -0.289 N 
HETATM   33  H   UNL     1     -45.149  53.360 -61.028  1.00  0.00     0.188 HD
HETATM   34  C   UNL     1     -44.321  54.318 -59.296  1.00  0.00     0.123 A 
ENDBRANCH   6  29
TORSDOF 6
ENDMDL
MODEL 3
REMARK VINA RESULT:      -8.5      3.227      7.949
REMARK  6 active torsions:
REMARK  status: ('A' for Active; 'I' for Inactive)
REMARK    1  A    between atoms: O_2  and  C_3 
REMARK    2  A    between atoms: C_7  and  C_8 
REMARK    3  A    between atoms: C_8  and  N_9 
REMARK       I    between atoms: N_9  and  C_10 
REMARK    4  A    between atoms: C_10  and  C_12 
REMARK    5  A    between atoms: N_14  and  C_15 
REMARK    6  A    between atoms: C_23  and  C_27 
ROOT
HETATM    1  C   UNL     1     -41.845  57.704 -54.765  1.00  0.00     0.060 C 
HETATM    2  C   UNL     1     -41.974  59.063 -54.995  1.00  0.00     0.115 C 
HETATM    3  N   UNL     1     -42.442  59.277 -56.279  1.00  0.00    -0.321 N 
HETATM    4  C   UNL     1     -42.781  58.039 -56.828  1.00  0.00     0.051 A 
HETATM    5  C   UNL     1     -43.457  57.688 -58.020  1.00  0.00     0.043 A 
HETATM    6  C   UNL     1     -43.631  56.333 -58.351  1.00  0.00    -0.021 A 
HETATM    7  C   UNL     1     -43.156  55.351 -57.482  1.00  0.00     0.013 A 
HETATM    8  C   UNL     1     -42.531  55.695 -56.278  1.00  0.00     0.016 A 
HETATM    9  C   UNL     1     -42.358  57.052 -55.929  1.00  0.00     0.008 A 
ENDROOT
BRANCH   1  10
HETATM   10  C   UNL     1     -41.274  57.068 -53.579  1.00  0.00     0.254 C 
HETATM   11  N   UNL     1     -41.834  55.853 -53.252  1.00  0.00    -0.353 N 
HETATM   12  H   UNL     1     -42.415  55.394 -53.937  1.00  0.00     0.163 HD
HETATM   13  O   UNL     1     -40.361  57.577 -52.938  1.00  0.00    -0.268 OA
BRANCH  11  14
HETATM   14  C   UNL     1     -41.339  55.063 -52.150  1.00  0.00     0.161 C 
BRANCH  14  15
HETATM   15  C   UNL     1     -40.754  53.758 -52.621  1.00  0.00    -0.038 A 
HETATM   16  C   UNL     1     -40.705  53.456 -53.988  1.00  0.00     0.009 A 
HETATM   17  C   UNL     1     -40.166  52.247 -54.425  1.00  0.00     0.003 A 
HETATM   18  C   UNL     1     -39.672  51.322 -53.502  1.00  0.00     0.037 A 
HETATM   19  C   UNL     1     -39.721  51.602 -52.137  1.00  0.00     0.068 A 
HETATM   20  C   UNL     1     -40.267  52.815 -51.704  1.00  0.00     0.045 A 
BRANCH  19  21
HETATM   21  O   UNL     1     -39.276  50.786 -51.132  1.00  0.00    -0.356 OA
HETATM   22  C   UNL     1     -40.235  50.390 -50.159  1.00  0.00     0.210 C 
ENDBRANCH  19  21
ENDBRANCH  14  15
ENDBRANCH  11  14
ENDBRANCH   1  10
BRANCH   3  23
HETATM   23  C   UNL     1     -42.510  60.561 -56.904  1.00  0.00     0.039 A 
HETATM   24  C   UNL     1     -41.523  60.969 -57.811  1.00  0.00     0.030 A 
HETATM   25  C   UNL     1     -41.582  62.237 -58.395  1.00  0.00     0.002 A 
HETATM   26  C   UNL     1     -42.620  63.108 -58.075  1.00  0.00     0.000 A 
HETATM   27  C   UNL     1     -43.596  62.717 -57.161  1.00  0.00     0.002 A 
HETATM   28  C   UNL     1     -43.541  61.452 -56.570  1.00  0.00     0.030 A 
ENDBRANCH   3  23
BRANCH   6  29
HETATM   29  C   UNL     1     -44.314  55.975 -59.585  1.00  0.00     0.010 A 
HETATM   30  C   UNL     1     -44.229  54.813 -60.389  1.00  0.00     0.152 A 
HETATM   31  N   UNL     1     -45.043  54.853 -61.447  1.00  0.00    -0.187 NA
HETATM   32  N   UNL     1     -45.653  56.042 -61.327  1.00  0.00    -0.289 N 
HETATM   33  H   UNL     1     -46.336  56.305 -62.030  1.00  0.00     0.188 HD
HETATM   34  C   UNL     1     -45.257  56.750 -60.230  1.00  0.00     0.123 A 
ENDBRANCH   6  29
TORSDOF 6
ENDMDL
MODEL 4
REMARK VINA RESULT:      -8.4      1.213      2.029
REMARK  6 active torsions:
REMARK  status: ('A' for Active; 'I' for Inactive)
REMARK    1  A    between atoms: O_2  and  C_3 
REMARK    2  A    between atoms: C_7  and  C_8 
REMARK    3  A    between atoms: C_8  and  N_9 
REMARK       I    between atoms: N_9  and  C_10 
REMARK    4  A    between atoms: C_10  and  C_12 
REMARK    5  A    between atoms: N_14  and  C_15 
REMARK    6  A    between atoms: C_23  and  C_27 
ROOT
HETATM    1  C   UNL     1     -42.844  58.162 -55.430  1.00  0.00     0.060 C 
HETATM    2  C   UNL     1     -42.198  58.964 -54.506  1.00  0.00     0.115 C 
HETATM    3  N   UNL     1     -41.542  58.173 -53.580  1.00  0.00    -0.321 N 
HETATM    4  C   UNL     1     -41.625  56.846 -54.007  1.00  0.00     0.051 A 
HETATM    5  C   UNL     1     -40.996  55.666 -53.548  1.00  0.00     0.043 A 
HETATM    6  C   UNL     1     -41.298  54.433 -54.151  1.00  0.00    -0.021 A 
HETATM    7  C   UNL     1     -42.198  54.397 -55.216  1.00  0.00     0.013 A 
HETATM    8  C   UNL     1     -42.783  55.570 -55.706  1.00  0.00     0.016 A 
HETATM    9  C   UNL     1     -42.481  56.816 -55.115  1.00  0.00     0.008 A 
ENDROOT
BRANCH   1  10
HETATM   10  C   UNL     1     -43.741  58.604 -56.498  1.00  0.00     0.254 C 
HETATM   11  N   UNL     1     -44.968  57.979 -56.514  1.00  0.00    -0.353 N 
HETATM   12  H   UNL     1     -45.246  57.448 -55.703  1.00  0.00     0.163 HD
HETATM   13  O   UNL     1     -43.421  59.470 -57.304  1.00  0.00    -0.268 OA
BRANCH  11  14
HETATM   14  C   UNL     1     -45.992  58.348 -57.461  1.00  0.00     0.161 C 
BRANCH  14  15
HETATM   15  C   UNL     1     -45.961  57.467 -58.683  1.00  0.00    -0.038 A 
HETATM   16  C   UNL     1     -47.152  57.098 -59.321  1.00  0.00     0.009 A 
HETATM   17  C   UNL     1     -47.124  56.281 -60.449  1.00  0.00     0.003 A 
HETATM   18  C   UNL     1     -45.906  55.817 -60.954  1.00  0.00     0.037 A 
HETATM   19  C   UNL     1     -44.711  56.167 -60.326  1.00  0.00     0.068 A 
HETATM   20  C   UNL     1     -44.746  56.984 -59.191  1.00  0.00     0.045 A 
BRANCH  19  21
HETATM   21  O   UNL     1     -43.457  55.781 -60.713  1.00  0.00    -0.356 OA
HETATM   22  C   UNL     1     -42.388  56.105 -59.832  1.00  0.00     0.210 C 
ENDBRANCH  19  21
ENDBRANCH  14  15
ENDBRANCH  11  14
ENDBRANCH   1  10
BRANCH   3  23
HETATM   23  C   UNL     1     -40.934  58.673 -52.386  1.00  0.00     0.039 A 
HETATM   24  C   UNL     1     -41.718  59.043 -51.285  1.00  0.00     0.030 A 
HETATM   25  C   UNL     1     -41.117  59.558 -50.133  1.00  0.00     0.002 A 
HETATM   26  C   UNL     1     -39.735  59.714 -50.074  1.00  0.00     0.000 A 
HETATM   27  C   UNL     1     -38.949  59.365 -51.170  1.00  0.00     0.002 A 
HETATM   28  C   UNL     1     -39.544  58.854 -52.327  1.00  0.00     0.030 A 
ENDBRANCH   3  23
BRANCH   6  29
HETATM   29  C   UNL     1     -40.661  53.218 -53.667  1.00  0.00     0.010 A 
HETATM   30  C   UNL     1     -40.277  52.038 -54.347  1.00  0.00     0.152 A 
HETATM   31  N   UNL     1     -39.691  51.143 -53.546  1.00  0.00    -0.187 NA
HETATM   32  N   UNL     1     -39.700  51.746 -52.347  1.00  0.00    -0.289 N 
HETATM   33  H   UNL     1     -39.297  51.252 -51.558  1.00  0.00     0.188 HD
HETATM   34  C   UNL     1     -40.264  52.988 -52.365  1.00  0.00     0.123 A 
ENDBRANCH   6  29
TORSDOF 6
ENDMDL
MODEL 5
REMARK VINA RESULT:      -8.2      3.635      8.344
REMARK  6 active torsions:
REMARK  status: ('A' for Active; 'I' for Inactive)
REMARK    1  A    between atoms: O_2  and  C_3 
REMARK    2  A    between atoms: C_7  and  C_8 
REMARK    3  A    between atoms: C_8  and  N_9 
REMARK       I    between atoms: N_9  and  C_10 
REMARK    4  A    between atoms: C_10  and  C_12 
REMARK    5  A    between atoms: N_14  and  C_15 
REMARK    6  A    between atoms: C_23  and  C_27 
ROOT
HETATM    1  C   UNL     1     -43.882  56.925 -52.579  1.00  0.00     0.060 C 
HETATM    2  C   UNL     1     -42.985  55.941 -52.201  1.00  0.00     0.115 C 
HETATM    3  N   UNL     1     -42.415  55.373 -53.327  1.00  0.00    -0.321 N 
HETATM    4  C   UNL     1     -42.821  56.113 -54.438  1.00  0.00     0.051 A 
HETATM    5  C   UNL     1     -42.409  56.087 -55.791  1.00  0.00     0.043 A 
HETATM    6  C   UNL     1     -43.027  56.936 -56.726  1.00  0.00    -0.021 A 
HETATM    7  C   UNL     1     -44.023  57.813 -56.297  1.00  0.00     0.013 A 
HETATM    8  C   UNL     1     -44.397  57.876 -54.950  1.00  0.00     0.016 A 
HETATM    9  C   UNL     1     -43.778  57.036 -54.000  1.00  0.00     0.008 A 
ENDROOT
BRANCH   1  10
HETATM   10  C   UNL     1     -44.774  57.679 -51.700  1.00  0.00     0.254 C 
HETATM   11  N   UNL     1     -45.096  58.940 -52.151  1.00  0.00    -0.353 N 
HETATM   12  H   UNL     1     -44.892  59.171 -53.112  1.00  0.00     0.163 HD
HETATM   13  O   UNL     1     -45.206  57.215 -50.650  1.00  0.00    -0.268 OA
BRANCH  11  14
HETATM   14  C   UNL     1     -46.019  59.788 -51.435  1.00  0.00     0.161 C 
BRANCH  14  15
HETATM   15  C   UNL     1     -45.302  60.885 -50.694  1.00  0.00    -0.038 A 
HETATM   16  C   UNL     1     -44.389  61.713 -51.361  1.00  0.00     0.009 A 
HETATM   17  C   UNL     1     -43.724  62.726 -50.674  1.00  0.00     0.003 A 
HETATM   18  C   UNL     1     -43.957  62.925 -49.311  1.00  0.00     0.037 A 
HETATM   19  C   UNL     1     -44.855  62.105 -48.629  1.00  0.00     0.068 A 
HETATM   20  C   UNL     1     -45.517  61.086 -49.322  1.00  0.00     0.045 A 
BRANCH  19  21
HETATM   21  O   UNL     1     -45.171  62.190 -47.300  1.00  0.00    -0.356 OA
HETATM   22  C   UNL     1     -44.850  61.063 -46.494  1.00  0.00     0.210 C 
ENDBRANCH  19  21
ENDBRANCH  14  15
ENDBRANCH  11  14
ENDBRANCH   1  10
BRANCH   3  23
HETATM   23  C   UNL     1     -41.590  54.205 -53.304  1.00  0.00     0.039 A 
HETATM   24  C   UNL     1     -41.604  53.299 -54.373  1.00  0.00     0.030 A 
HETATM   25  C   UNL     1     -40.816  52.146 -54.332  1.00  0.00     0.002 A 
HETATM   26  C   UNL     1     -40.016  51.884 -53.222  1.00  0.00     0.000 A 
HETATM   27  C   UNL     1     -40.009  52.771 -52.147  1.00  0.00     0.002 A 
HETATM   28  C   UNL     1     -40.798  53.924 -52.181  1.00  0.00     0.030 A 
ENDBRANCH   3  23
BRANCH   6  29
HETATM   29  C   UNL     1     -42.611  56.896 -58.119  1.00  0.00     0.010 A 
HETATM   30  C   UNL     1     -42.886  55.957 -59.143  1.00  0.00     0.152 A 
HETATM   31  N   UNL     1     -42.332  56.288 -60.313  1.00  0.00    -0.187 NA
HETATM   32  N   UNL     1     -41.699  57.440 -60.044  1.00  0.00    -0.289 N 
HETATM   33  H   UNL     1     -41.194  57.897 -60.796  1.00  0.00     0.188 HD
HETATM   34  C   UNL     1     -41.837  57.849 -58.750  1.00  0.00     0.123 A 
ENDBRANCH   6  29
TORSDOF 6
ENDMDL
MODEL 6
REMARK VINA RESULT:      -8.1      2.329      3.803
REMARK  6 active torsions:
REMARK  status: ('A' for Active; 'I' for Inactive)
REMARK    1  A    between atoms: O_2  and  C_3 
REMARK    2  A    between atoms: C_7  and  C_8 
REMARK    3  A    between atoms: C_8  and  N_9 
REMARK       I    between atoms: N_9  and  C_10 
REMARK    4  A    between atoms: C_10  and  C_12 
REMARK    5  A    between atoms: N_14  and  C_15 
REMARK    6  A    between atoms: C_23  and  C_27 
ROOT
HETATM    1  C   UNL     1     -42.287  57.207 -55.863  1.00  0.00     0.060 C 
HETATM    2  C   UNL     1     -42.066  58.224 -54.952  1.00  0.00     0.115 C 
HETATM    3  N   UNL     1     -41.723  57.684 -53.725  1.00  0.00    -0.321 N 
HETATM    4  C   UNL     1     -41.554  56.308 -53.889  1.00  0.00     0.051 A 
HETATM    5  C   UNL     1     -41.044  55.311 -53.027  1.00  0.00     0.043 A 
HETATM    6  C   UNL     1     -41.025  53.968 -53.444  1.00  0.00    -0.021 A 
HETATM    7  C   UNL     1     -41.488  53.645 -54.720  1.00  0.00     0.013 A 
HETATM    8  C   UNL     1     -41.947  54.636 -55.594  1.00  0.00     0.016 A 
HETATM    9  C   UNL     1     -41.962  55.989 -55.190  1.00  0.00     0.008 A 
ENDROOT
BRANCH   1  10
HETATM   10  C   UNL     1     -42.780  57.350 -57.232  1.00  0.00     0.254 C 
HETATM   11  N   UNL     1     -41.856  57.838 -58.129  1.00  0.00    -0.353 N 
HETATM   12  H   UNL     1     -40.885  57.855 -57.855  1.00  0.00     0.163 HD
HETATM   13  O   UNL     1     -43.926  57.049 -57.551  1.00  0.00    -0.268 OA
BRANCH  11  14
HETATM   14  C   UNL     1     -42.163  57.977 -59.532  1.00  0.00     0.161 C 
BRANCH  14  15
HETATM   15  C   UNL     1     -41.995  59.399 -59.999  1.00  0.00    -0.038 A 
HETATM   16  C   UNL     1     -42.039  59.706 -61.365  1.00  0.00     0.009 A 
HETATM   17  C   UNL     1     -41.881  61.021 -61.798  1.00  0.00     0.003 A 
HETATM   18  C   UNL     1     -41.673  62.047 -60.874  1.00  0.00     0.037 A 
HETATM   19  C   UNL     1     -41.617  61.759 -59.510  1.00  0.00     0.068 A 
HETATM   20  C   UNL     1     -41.771  60.436 -59.082  1.00  0.00     0.045 A 
BRANCH  19  21
HETATM   21  O   UNL     1     -41.417  62.665 -58.504  1.00  0.00    -0.356 OA
HETATM   22  C   UNL     1     -42.566  63.065 -57.767  1.00  0.00     0.210 C 
ENDBRANCH  19  21
ENDBRANCH  14  15
ENDBRANCH  11  14
ENDBRANCH   1  10
BRANCH   3  23
HETATM   23  C   UNL     1     -41.610  58.444 -52.519  1.00  0.00     0.039 A 
HETATM   24  C   UNL     1     -42.747  58.996 -51.913  1.00  0.00     0.030 A 
HETATM   25  C   UNL     1     -42.625  59.761 -50.749  1.00  0.00     0.002 A 
HETATM   26  C   UNL     1     -41.371  59.986 -50.187  1.00  0.00     0.000 A 
HETATM   27  C   UNL     1     -40.234  59.455 -50.793  1.00  0.00     0.002 A 
HETATM   28  C   UNL     1     -40.348  58.693 -51.958  1.00  0.00     0.030 A 
ENDBRANCH   3  23
BRANCH   6  29
HETATM   29  C   UNL     1     -40.513  52.942 -52.549  1.00  0.00     0.010 A 
HETATM   30  C   UNL     1     -40.588  52.819 -51.141  1.00  0.00     0.152 A 
HETATM   31  N   UNL     1     -40.005  51.706 -50.685  1.00  0.00    -0.187 NA
HETATM   32  N   UNL     1     -39.552  51.113 -51.800  1.00  0.00    -0.289 N 
HETATM   33  H   UNL     1     -39.063  50.228 -51.709  1.00  0.00     0.188 HD
HETATM   34  C   UNL     1     -39.832  51.808 -52.941  1.00  0.00     0.123 A 
ENDBRANCH   6  29
TORSDOF 6
ENDMDL
MODEL 7
REMARK VINA RESULT:      -8.0      3.129      5.956
REMARK  6 active torsions:
REMARK  status: ('A' for Active; 'I' for Inactive)
REMARK    1  A    between atoms: O_2  and  C_3 
REMARK    2  A    between atoms: C_7  and  C_8 
REMARK    3  A    between atoms: C_8  and  N_9 
REMARK       I    between atoms: N_9  and  C_10 
REMARK    4  A    between atoms: C_10  and  C_12 
REMARK    5  A    between atoms: N_14  and  C_15 
REMARK    6  A    between atoms: C_23  and  C_27 
ROOT
HETATM    1  C   UNL     1     -42.885  55.929 -56.447  1.00  0.00     0.060 C 
HETATM    2  C   UNL     1     -42.319  54.840 -55.808  1.00  0.00     0.115 C 
HETATM    3  N   UNL     1     -42.317  55.051 -54.440  1.00  0.00    -0.321 N 
HETATM    4  C   UNL     1     -43.044  56.214 -54.180  1.00  0.00     0.051 A 
HETATM    5  C   UNL     1     -43.501  56.792 -52.973  1.00  0.00     0.043 A 
HETATM    6  C   UNL     1     -44.192  58.016 -53.002  1.00  0.00    -0.021 A 
HETATM    7  C   UNL     1     -44.440  58.631 -54.229  1.00  0.00     0.013 A 
HETATM    8  C   UNL     1     -44.033  58.036 -55.429  1.00  0.00     0.016 A 
HETATM    9  C   UNL     1     -43.347  56.803 -55.414  1.00  0.00     0.008 A 
ENDROOT
BRANCH   1  10
HETATM   10  C   UNL     1     -42.969  56.150 -57.890  1.00  0.00     0.254 C 
HETATM   11  N   UNL     1     -42.230  57.217 -58.352  1.00  0.00    -0.353 N 
HETATM   12  H   UNL     1     -41.538  57.622 -57.739  1.00  0.00     0.163 HD
HETATM   13  O   UNL     1     -43.638  55.432 -58.625  1.00  0.00    -0.268 OA
BRANCH  11  14
HETATM   14  C   UNL     1     -42.151  57.530 -59.758  1.00  0.00     0.161 C 
BRANCH  14  15
HETATM   15  C   UNL     1     -42.016  59.012 -59.990  1.00  0.00    -0.038 A 
HETATM   16  C   UNL     1     -41.930  59.521 -61.292  1.00  0.00     0.009 A 
HETATM   17  C   UNL     1     -41.802  60.892 -61.507  1.00  0.00     0.003 A 
HETATM   18  C   UNL     1     -41.752  61.774 -60.424  1.00  0.00     0.037 A 
HETATM   19  C   UNL     1     -41.826  61.284 -59.120  1.00  0.00     0.068 A 
HETATM   20  C   UNL     1     -41.950  59.906 -58.910  1.00  0.00     0.045 A 
BRANCH  19  21
HETATM   21  O   UNL     1     -41.786  62.034 -57.976  1.00  0.00    -0.356 OA
HETATM   22  C   UNL     1     -42.705  61.682 -56.949  1.00  0.00     0.210 C 
ENDBRANCH  19  21
ENDBRANCH  14  15
ENDBRANCH  11  14
ENDBRANCH   1  10
BRANCH   3  23
HETATM   23  C   UNL     1     -41.640  54.212 -53.501  1.00  0.00     0.039 A 
HETATM   24  C   UNL     1     -41.716  54.471 -52.126  1.00  0.00     0.030 A 
HETATM   25  C   UNL     1     -41.029  53.664 -51.216  1.00  0.00     0.002 A 
HETATM   26  C   UNL     1     -40.255  52.598 -51.671  1.00  0.00     0.000 A 
HETATM   27  C   UNL     1     -40.160  52.344 -53.037  1.00  0.00     0.002 A 
HETATM   28  C   UNL     1     -40.842  53.150 -53.952  1.00  0.00     0.030 A 
ENDBRANCH   3  23
BRANCH   6  29
HETATM   29  C   UNL     1     -44.648  58.615 -51.757  1.00  0.00     0.010 A 
HETATM   30  C   UNL     1     -45.816  58.385 -50.991  1.00  0.00     0.152 A 
HETATM   31  N   UNL     1     -45.864  59.128 -49.881  1.00  0.00    -0.187 NA
HETATM   32  N   UNL     1     -44.728  59.839 -49.933  1.00  0.00    -0.289 N 
HETATM   33  H   UNL     1     -44.534  60.491 -49.179  1.00  0.00     0.188 HD
HETATM   34  C   UNL     1     -43.964  59.568 -51.031  1.00  0.00     0.123 A 
ENDBRANCH   6  29
TORSDOF 6
ENDMDL
MODEL 8
REMARK VINA RESULT:      -8.0      2.951      9.237
REMARK  6 active torsions:
REMARK  status: ('A' for Active; 'I' for Inactive)
REMARK    1  A    between atoms: O_2  and  C_3 
REMARK    2  A    between atoms: C_7  and  C_8 
REMARK    3  A    between atoms: C_8  and  N_9 
REMARK       I    between atoms: N_9  and  C_10 
REMARK    4  A    between atoms: C_10  and  C_12 
REMARK    5  A    between atoms: N_14  and  C_15 
REMARK    6  A    between atoms: C_23  and  C_27 
ROOT
HETATM    1  C   UNL     1     -42.886  57.935 -55.748  1.00  0.00     0.060 C 
HETATM    2  C   UNL     1     -43.484  56.927 -56.483  1.00  0.00     0.115 C 
HETATM    3  N   UNL     1     -43.585  57.313 -57.808  1.00  0.00    -0.321 N 
HETATM    4  C   UNL     1     -42.891  58.514 -57.963  1.00  0.00     0.051 A 
HETATM    5  C   UNL     1     -42.527  59.252 -59.113  1.00  0.00     0.043 A 
HETATM    6  C   UNL     1     -41.850  60.476 -58.973  1.00  0.00    -0.021 A 
HETATM    7  C   UNL     1     -41.522  60.932 -57.696  1.00  0.00     0.013 A 
HETATM    8  C   UNL     1     -41.837  60.179 -56.559  1.00  0.00     0.016 A 
HETATM    9  C   UNL     1     -42.508  58.945 -56.687  1.00  0.00     0.008 A 
ENDROOT
BRANCH   1  10
HETATM   10  C   UNL     1     -42.703  57.970 -54.298  1.00  0.00     0.254 C 
HETATM   11  N   UNL     1     -42.289  56.780 -53.741  1.00  0.00    -0.353 N 
HETATM   12  H   UNL     1     -41.940  56.060 -54.355  1.00  0.00     0.163 HD
HETATM   13  O   UNL     1     -42.896  58.985 -53.637  1.00  0.00    -0.268 OA
BRANCH  11  14
HETATM   14  C   UNL     1     -41.998  56.664 -52.332  1.00  0.00     0.161 C 
BRANCH  14  15
HETATM   15  C   UNL     1     -41.332  55.353 -52.010  1.00  0.00    -0.038 A 
HETATM   16  C   UNL     1     -40.925  55.068 -50.700  1.00  0.00     0.009 A 
HETATM   17  C   UNL     1     -40.305  53.856 -50.401  1.00  0.00     0.003 A 
HETATM   18  C   UNL     1     -40.080  52.913 -51.407  1.00  0.00     0.037 A 
HETATM   19  C   UNL     1     -40.471  53.183 -52.718  1.00  0.00     0.068 A 
HETATM   20  C   UNL     1     -41.088  54.404 -53.013  1.00  0.00     0.045 A 
BRANCH  19  21
HETATM   21  O   UNL     1     -40.307  52.352 -53.793  1.00  0.00    -0.356 OA
HETATM   22  C   UNL     1     -39.482  51.210 -53.598  1.00  0.00     0.210 C 
ENDBRANCH  19  21
ENDBRANCH  14  15
ENDBRANCH  11  14
ENDBRANCH   1  10
BRANCH   3  23
HETATM   23  C   UNL     1     -44.317  56.589 -58.800  1.00  0.00     0.039 A 
HETATM   24  C   UNL     1     -43.778  55.437 -59.388  1.00  0.00     0.030 A 
HETATM   25  C   UNL     1     -44.488  54.751 -60.377  1.00  0.00     0.002 A 
HETATM   26  C   UNL     1     -45.736  55.213 -60.791  1.00  0.00     0.000 A 
HETATM   27  C   UNL     1     -46.272  56.367 -60.224  1.00  0.00     0.002 A 
HETATM   28  C   UNL     1     -45.565  57.059 -59.237  1.00  0.00     0.030 A 
ENDBRANCH   3  23
BRANCH   6  29
HETATM   29  C   UNL     1     -41.490  61.240 -60.157  1.00  0.00     0.010 A 
HETATM   30  C   UNL     1     -40.778  62.457 -60.295  1.00  0.00     0.152 A 
HETATM   31  N   UNL     1     -40.631  62.830 -61.570  1.00  0.00    -0.187 NA
HETATM   32  N   UNL     1     -41.249  61.856 -62.254  1.00  0.00    -0.289 N 
HETATM   33  H   UNL     1     -41.269  61.918 -63.267  1.00  0.00     0.188 HD
HETATM   34  C   UNL     1     -41.776  60.880 -61.458  1.00  0.00     0.123 A 
ENDBRANCH   6  29
TORSDOF 6
ENDMDL
MODEL 9
REMARK VINA RESULT:      -8.0      1.662      2.442
REMARK  6 active torsions:
REMARK  status: ('A' for Active; 'I' for Inactive)
REMARK    1  A    between atoms: O_2  and  C_3 
REMARK    2  A    between atoms: C_7  and  C_8 
REMARK    3  A    between atoms: C_8  and  N_9 
REMARK       I    between atoms: N_9  and  C_10 
REMARK    4  A    between atoms: C_10  and  C_12 
REMARK    5  A    between atoms: N_14  and  C_15 
REMARK    6  A    between atoms: C_23  and  C_27 
ROOT
HETATM    1  C   UNL     1     -42.313  57.165 -55.977  1.00  0.00     0.060 C 
HETATM    2  C   UNL     1     -42.170  58.219 -55.092  1.00  0.00     0.115 C 
HETATM    3  N   UNL     1     -41.877  57.731 -53.831  1.00  0.00    -0.321 N 
HETATM    4  C   UNL     1     -41.661  56.356 -53.937  1.00  0.00     0.051 A 
HETATM    5  C   UNL     1     -41.169  55.403 -53.015  1.00  0.00     0.043 A 
HETATM    6  C   UNL     1     -41.090  54.049 -53.384  1.00  0.00    -0.021 A 
HETATM    7  C   UNL     1     -41.476  53.669 -54.670  1.00  0.00     0.013 A 
HETATM    8  C   UNL     1     -41.915  54.617 -55.601  1.00  0.00     0.016 A 
HETATM    9  C   UNL     1     -41.990  55.981 -55.246  1.00  0.00     0.008 A 
ENDROOT
BRANCH   1  10
HETATM   10  C   UNL     1     -42.737  57.248 -57.375  1.00  0.00     0.254 C 
HETATM   11  N   UNL     1     -43.969  56.691 -57.636  1.00  0.00    -0.353 N 
HETATM   12  H   UNL     1     -44.571  56.472 -56.857  1.00  0.00     0.163 HD
HETATM   13  O   UNL     1     -42.049  57.782 -58.238  1.00  0.00    -0.268 OA
BRANCH  11  14
HETATM   14  C   UNL     1     -44.562  56.749 -58.950  1.00  0.00     0.161 C 
BRANCH  14  15
HETATM   15  C   UNL     1     -45.688  57.748 -59.008  1.00  0.00    -0.038 A 
HETATM   16  C   UNL     1     -46.332  58.158 -57.833  1.00  0.00     0.009 A 
HETATM   17  C   UNL     1     -47.375  59.080 -57.886  1.00  0.00     0.003 A 
HETATM   18  C   UNL     1     -47.793  59.603 -59.112  1.00  0.00     0.037 A 
HETATM   19  C   UNL     1     -47.169  59.199 -60.293  1.00  0.00     0.068 A 
HETATM   20  C   UNL     1     -46.125  58.269 -60.234  1.00  0.00     0.045 A 
BRANCH  19  21
HETATM   21  O   UNL     1     -47.480  59.629 -61.554  1.00  0.00    -0.356 OA
HETATM   22  C   UNL     1     -48.524  58.935 -62.226  1.00  0.00     0.210 C 
ENDBRANCH  19  21
ENDBRANCH  14  15
ENDBRANCH  11  14
ENDBRANCH   1  10
BRANCH   3  23
HETATM   23  C   UNL     1     -41.850  58.534 -52.648  1.00  0.00     0.039 A 
HETATM   24  C   UNL     1     -43.024  59.118 -52.153  1.00  0.00     0.030 A 
HETATM   25  C   UNL     1     -42.984  59.924 -51.012  1.00  0.00     0.002 A 
HETATM   26  C   UNL     1     -41.775  60.159 -50.362  1.00  0.00     0.000 A 
HETATM   27  C   UNL     1     -40.601  59.596 -50.857  1.00  0.00     0.002 A 
HETATM   28  C   UNL     1     -40.633  58.792 -52.000  1.00  0.00     0.030 A 
ENDBRANCH   3  23
BRANCH   6  29
HETATM   29  C   UNL     1     -40.598  53.070 -52.428  1.00  0.00     0.010 A 
HETATM   30  C   UNL     1     -40.767  52.976 -51.026  1.00  0.00     0.152 A 
HETATM   31  N   UNL     1     -40.169  51.903 -50.501  1.00  0.00    -0.187 NA
HETATM   32  N   UNL     1     -39.611  51.305 -51.565  1.00  0.00    -0.289 N 
HETATM   33  H   UNL     1     -39.090  50.447 -51.416  1.00  0.00     0.188 HD
HETATM   34  C   UNL     1     -39.840  51.959 -52.740  1.00  0.00     0.123 A 
ENDBRANCH   6  29
TORSDOF 6
ENDMDL
MODEL 10
REMARK VINA RESULT:      -8.0      2.422      5.627
REMARK  6 active torsions:
REMARK  status: ('A' for Active; 'I' for Inactive)
REMARK    1  A    between atoms: O_2  and  C_3 
REMARK    2  A    between atoms: C_7  and  C_8 
REMARK    3  A    between atoms: C_8  and  N_9 
REMARK       I    between atoms: N_9  and  C_10 
REMARK    4  A    between atoms: C_10  and  C_12 
REMARK    5  A    between atoms: N_14  and  C_15 
REMARK    6  A    between atoms: C_23  and  C_27 
ROOT
HETATM    1  C   UNL     1     -42.465  55.679 -56.502  1.00  0.00     0.060 C 
HETATM    2  C   UNL     1     -42.144  54.490 -55.873  1.00  0.00     0.115 C 
HETATM    3  N   UNL     1     -41.603  54.752 -54.626  1.00  0.00    -0.321 N 
HETATM    4  C   UNL     1     -41.732  56.119 -54.377  1.00  0.00     0.051 A 
HETATM    5  C   UNL     1     -41.515  56.891 -53.213  1.00  0.00     0.043 A 
HETATM    6  C   UNL     1     -41.689  58.285 -53.255  1.00  0.00    -0.021 A 
HETATM    7  C   UNL     1     -42.102  58.885 -54.445  1.00  0.00     0.013 A 
HETATM    8  C   UNL     1     -42.366  58.118 -55.586  1.00  0.00     0.016 A 
HETATM    9  C   UNL     1     -42.204  56.716 -55.552  1.00  0.00     0.008 A 
ENDROOT
BRANCH   1  10
HETATM   10  C   UNL     1     -42.948  55.842 -57.872  1.00  0.00     0.254 C 
HETATM   11  N   UNL     1     -42.126  56.588 -58.687  1.00  0.00    -0.353 N 
HETATM   12  H   UNL     1     -41.186  56.778 -58.374  1.00  0.00     0.163 HD
HETATM   13  O   UNL     1     -43.998  55.342 -58.261  1.00  0.00    -0.268 OA
BRANCH  11  14
HETATM   14  C   UNL     1     -42.424  56.787 -60.085  1.00  0.00     0.161 C 
BRANCH  14  15
HETATM   15  C   UNL     1     -42.888  58.194 -60.359  1.00  0.00    -0.038 A 
HETATM   16  C   UNL     1     -44.254  58.503 -60.350  1.00  0.00     0.009 A 
HETATM   17  C   UNL     1     -44.685  59.804 -60.606  1.00  0.00     0.003 A 
HETATM   18  C   UNL     1     -43.757  60.812 -60.879  1.00  0.00     0.037 A 
HETATM   19  C   UNL     1     -42.393  60.520 -60.900  1.00  0.00     0.068 A 
HETATM   20  C   UNL     1     -41.968  59.212 -60.648  1.00  0.00     0.045 A 
BRANCH  19  21
HETATM   21  O   UNL     1     -41.385  61.409 -61.155  1.00  0.00    -0.356 OA
HETATM   22  C   UNL     1     -40.887  62.146 -60.045  1.00  0.00     0.210 C 
ENDBRANCH  19  21
ENDBRANCH  14  15
ENDBRANCH  11  14
ENDBRANCH   1  10
BRANCH   3  23
HETATM   23  C   UNL     1     -40.994  53.762 -53.793  1.00  0.00     0.039 A 
HETATM   24  C   UNL     1     -41.012  53.894 -52.398  1.00  0.00     0.030 A 
HETATM   25  C   UNL     1     -40.390  52.937 -51.591  1.00  0.00     0.002 A 
HETATM   26  C   UNL     1     -39.741  51.848 -52.169  1.00  0.00     0.000 A 
HETATM   27  C   UNL     1     -39.704  51.719 -53.555  1.00  0.00     0.002 A 
HETATM   28  C   UNL     1     -40.320  52.675 -54.368  1.00  0.00     0.030 A 
ENDBRANCH   3  23
BRANCH   6  29
HETATM   29  C   UNL     1     -41.450  59.078 -52.060  1.00  0.00     0.010 A 
HETATM   30  C   UNL     1     -42.289  59.981 -51.362  1.00  0.00     0.152 A 
HETATM   31  N   UNL     1     -41.704  60.503 -50.280  1.00  0.00    -0.187 NA
HETATM   32  N   UNL     1     -40.487  59.938 -50.280  1.00  0.00    -0.289 N 
HETATM   33  H   UNL     1     -39.844  60.184 -49.535  1.00  0.00     0.188 HD
HETATM   34  C   UNL     1     -40.285  59.077 -51.319  1.00  0.00     0.123 A 
ENDBRANCH   6  29
TORSDOF 6
ENDMDL
