MODEL 1
REMARK VINA RESULT:      -9.1      0.000      0.000
REMARK  6 active torsions:
REMARK  status: ('A' for Active; 'I' for Inactive)
REMARK    1  A    between atoms: C_3  and  C_4 
REMARK    2  A    between atoms: N_5  and  C_6 
REMARK    3  A    between atoms: C_11  and  S_12 
REMARK    4  A    between atoms: S_12  and  C_13 
REMARK    5  A    between atoms: C_13  and  C_14 
REMARK       I    between atoms: C_14  and  N_15 
REMARK    6  A    between atoms: N_15  and  C_16 
ROOT
HETATM    1  S   UNL     1     -42.842  56.566 -54.266  1.00  0.00    -0.081 SA
ENDROOT
BRANCH   1   2
HETATM    2  C   UNL     1     -41.417  55.599 -54.101  1.00  0.00     0.192 C 
HETATM    3  N   UNL     1     -41.244  54.593 -53.184  1.00  0.00    -0.302 N 
HETATM    4  C   UNL     1     -40.359  53.725 -53.814  1.00  0.00     0.166 C 
HETATM    5  N   UNL     1     -39.817  54.354 -54.842  1.00  0.00    -0.128 NA
HETATM    6  N   UNL     1     -40.491  55.528 -55.029  1.00  0.00    -0.122 NA
BRANCH   3   7
HETATM    7  C   UNL     1     -41.890  54.369 -51.901  1.00  0.00     0.094 C 
HETATM    8  C   UNL     1     -41.850  55.602 -50.977  1.00  0.00     0.026 C 
HETATM    9  C   UNL     1     -42.866  55.317 -49.880  1.00  0.00     0.002 C 
HETATM   10  C   UNL     1     -43.883  54.367 -50.491  1.00  0.00     0.002 C 
HETATM   11  C   UNL     1     -43.402  54.087 -51.910  1.00  0.00     0.026 C 
ENDBRANCH   3   7
BRANCH   4  12
HETATM   12  C   UNL     1     -40.162  52.310 -53.501  1.00  0.00     0.034 A 
HETATM   13  C   UNL     1     -40.446  51.355 -54.495  1.00  0.00     0.017 A 
HETATM   14  C   UNL     1     -40.238  49.994 -54.266  1.00  0.00     0.001 A 
HETATM   15  C   UNL     1     -39.739  49.568 -53.039  1.00  0.00     0.002 A 
HETATM   16  C   UNL     1     -39.445  50.502 -52.044  1.00  0.00     0.025 A 
HETATM   17  C   UNL     1     -39.649  51.868 -52.273  1.00  0.00     0.048 A 
HETATM   18 CL   UNL     1     -39.291  52.958 -50.980  1.00  0.00    -0.083 Cl
ENDBRANCH   4  12
ENDBRANCH   1   2
BRANCH   1  19
HETATM   19  C   UNL     1     -42.147  57.977 -55.184  1.00  0.00     0.185 C 
BRANCH  19  20
HETATM   20  C   UNL     1     -42.663  58.003 -56.621  1.00  0.00     0.231 C 
HETATM   21  N   UNL     1     -43.513  56.947 -56.909  1.00  0.00    -0.326 N 
HETATM   22  H   UNL     1     -43.875  56.439 -56.101  1.00  0.00     0.169 HD
HETATM   23  O   UNL     1     -42.358  58.911 -57.391  1.00  0.00    -0.272 OA
BRANCH  21  24
HETATM   24  C   UNL     1     -44.161  56.662 -58.128  1.00  0.00     0.037 A 
HETATM   25  C   UNL     1     -45.403  57.192 -58.490  1.00  0.00     0.061 A 
HETATM   26  C   UNL     1     -45.926  56.785 -59.698  1.00  0.00     0.065 A 
HETATM   27  C   UNL     1     -45.259  55.904 -60.545  1.00  0.00     0.063 A 
HETATM   28  N   UNL     1     -47.137  57.117 -60.297  1.00  0.00    -0.306 N 
HETATM   29  N   UNL     1     -46.055  55.697 -61.665  1.00  0.00    -0.307 N 
HETATM   30  C   UNL     1     -44.032  55.379 -60.232  1.00  0.00     0.034 A 
HETATM   31  C   UNL     1     -47.232  56.445 -61.524  1.00  0.00     0.325 A 
HETATM   32  H   UNL     1     -45.852  55.113 -62.459  1.00  0.00     0.170 HD
HETATM   33  O   UNL     1     -48.161  56.495 -62.311  1.00  0.00    -0.247 OA
HETATM   34  C   UNL     1     -43.484  55.769 -59.004  1.00  0.00     0.032 A 
HETATM   35  H   UNL     1     -47.846  57.735 -59.937  1.00  0.00     0.170 HD
ENDBRANCH  21  24
ENDBRANCH  19  20
ENDBRANCH   1  19
TORSDOF 6
ENDMDL
MODEL 2
REMARK VINA RESULT:      -9.0      6.169      8.844
REMARK  6 active torsions:
REMARK  status: ('A' for Active; 'I' for Inactive)
REMARK    1  A    between atoms: C_3  and  C_4 
REMARK    2  A    between atoms: N_5  and  C_6 
REMARK    3  A    between atoms: C_11  and  S_12 
REMARK    4  A    between atoms: S_12  and  C_13 
REMARK    5  A    between atoms: C_13  and  C_14 
REMARK       I    between atoms: C_14  and  N_15 
REMARK    6  A    between atoms: N_15  and  C_16 
ROOT
HETATM    1  S   UNL     1     -44.125  58.324 -52.847  1.00  0.00    -0.081 SA
ENDROOT
BRANCH   1   2
HETATM    2  C   UNL     1     -43.384  56.880 -53.443  1.00  0.00     0.192 C 
HETATM    3  N   UNL     1     -42.150  56.410 -53.069  1.00  0.00    -0.302 N 
HETATM    4  C   UNL     1     -42.265  55.032 -53.223  1.00  0.00     0.166 C 
HETATM    5  N   UNL     1     -43.343  54.780 -53.943  1.00  0.00    -0.128 NA
HETATM    6  N   UNL     1     -44.053  55.940 -54.072  1.00  0.00    -0.122 NA
BRANCH   3   7
HETATM    7  C   UNL     1     -41.002  57.114 -52.523  1.00  0.00     0.094 C 
HETATM    8  C   UNL     1     -40.689  58.431 -53.260  1.00  0.00     0.026 C 
HETATM    9  C   UNL     1     -39.736  59.188 -52.347  1.00  0.00     0.002 C 
HETATM   10  C   UNL     1     -40.030  58.698 -50.939  1.00  0.00     0.002 C 
HETATM   11  C   UNL     1     -41.112  57.632 -51.079  1.00  0.00     0.026 C 
ENDBRANCH   3   7
BRANCH   4  12
HETATM   12  C   UNL     1     -41.433  54.016 -52.579  1.00  0.00     0.034 A 
HETATM   13  C   UNL     1     -41.589  53.795 -51.198  1.00  0.00     0.017 A 
HETATM   14  C   UNL     1     -40.851  52.810 -50.539  1.00  0.00     0.001 A 
HETATM   15  C   UNL     1     -39.948  52.030 -51.252  1.00  0.00     0.002 A 
HETATM   16  C   UNL     1     -39.785  52.231 -52.625  1.00  0.00     0.025 A 
HETATM   17  C   UNL     1     -40.526  53.215 -53.288  1.00  0.00     0.048 A 
HETATM   18 CL   UNL     1     -40.244  53.424 -54.981  1.00  0.00    -0.083 Cl
ENDBRANCH   4  12
ENDBRANCH   1   2
BRANCH   1  19
HETATM   19  C   UNL     1     -44.589  57.761 -51.178  1.00  0.00     0.185 C 
BRANCH  19  20
HETATM   20  C   UNL     1     -45.586  58.721 -50.533  1.00  0.00     0.231 C 
HETATM   21  N   UNL     1     -44.976  59.819 -49.947  1.00  0.00    -0.326 N 
HETATM   22  H   UNL     1     -44.003  59.979 -50.214  1.00  0.00     0.169 HD
HETATM   23  O   UNL     1     -46.796  58.517 -50.590  1.00  0.00    -0.272 OA
BRANCH  21  24
HETATM   24  C   UNL     1     -45.588  60.890 -49.265  1.00  0.00     0.037 A 
HETATM   25  C   UNL     1     -45.727  60.948 -47.874  1.00  0.00     0.061 A 
HETATM   26  C   UNL     1     -46.387  62.042 -47.359  1.00  0.00     0.065 A 
HETATM   27  C   UNL     1     -46.885  63.065 -48.163  1.00  0.00     0.063 A 
HETATM   28  N   UNL     1     -46.695  62.351 -46.039  1.00  0.00    -0.306 N 
HETATM   29  N   UNL     1     -47.493  64.003 -47.339  1.00  0.00    -0.307 N 
HETATM   30  C   UNL     1     -46.750  63.051 -49.527  1.00  0.00     0.034 A 
HETATM   31  C   UNL     1     -47.387  63.571 -46.010  1.00  0.00     0.325 A 
HETATM   32  H   UNL     1     -47.947  64.858 -47.617  1.00  0.00     0.170 HD
HETATM   33  O   UNL     1     -47.818  64.140 -45.023  1.00  0.00    -0.247 OA
HETATM   34  C   UNL     1     -46.093  61.943 -50.076  1.00  0.00     0.032 A 
HETATM   35  H   UNL     1     -46.472  61.811 -45.218  1.00  0.00     0.170 HD
ENDBRANCH  21  24
ENDBRANCH  19  20
ENDBRANCH   1  19
TORSDOF 6
ENDMDL
MODEL 3
REMARK VINA RESULT:      -8.9      3.866      7.723
REMARK  6 active torsions:
REMARK  status: ('A' for Active; 'I' for Inactive)
REMARK    1  A    between atoms: C_3  and  C_4 
REMARK    2  A    between atoms: N_5  and  C_6 
REMARK    3  A    between atoms: C_11  and  S_12 
REMARK    4  A    between atoms: S_12  and  C_13 
REMARK    5  A    between atoms: C_13  and  C_14 
REMARK       I    between atoms: C_14  and  N_15 
REMARK    6  A    between atoms: N_15  and  C_16 
ROOT
HETATM    1  S   UNL     1     -44.071  57.691 -56.521  1.00  0.00    -0.081 SA
ENDROOT
BRANCH   1   2
HETATM    2  C   UNL     1     -43.635  58.912 -55.377  1.00  0.00     0.192 C 
HETATM    3  N   UNL     1     -43.472  58.713 -54.030  1.00  0.00    -0.302 N 
HETATM    4  C   UNL     1     -42.534  59.674 -53.668  1.00  0.00     0.166 C 
HETATM    5  N   UNL     1     -42.439  60.555 -54.649  1.00  0.00    -0.128 NA
HETATM    6  N   UNL     1     -43.122  60.069 -55.728  1.00  0.00    -0.122 NA
BRANCH   3   7
HETATM    7  C   UNL     1     -44.024  57.689 -53.157  1.00  0.00     0.094 C 
HETATM    8  C   UNL     1     -42.946  56.827 -52.472  1.00  0.00     0.026 C 
HETATM    9  C   UNL     1     -43.666  56.096 -51.350  1.00  0.00     0.002 C 
HETATM   10  C   UNL     1     -44.851  56.971 -50.975  1.00  0.00     0.002 C 
HETATM   11  C   UNL     1     -44.814  58.163 -51.925  1.00  0.00     0.026 C 
ENDBRANCH   3   7
BRANCH   4  12
HETATM   12  C   UNL     1     -41.681  59.649 -52.481  1.00  0.00     0.034 A 
HETATM   13  C   UNL     1     -40.438  58.993 -52.560  1.00  0.00     0.017 A 
HETATM   14  C   UNL     1     -39.566  58.973 -51.470  1.00  0.00     0.001 A 
HETATM   15  C   UNL     1     -39.921  59.611 -50.287  1.00  0.00     0.002 A 
HETATM   16  C   UNL     1     -41.147  60.274 -50.194  1.00  0.00     0.025 A 
HETATM   17  C   UNL     1     -42.023  60.299 -51.286  1.00  0.00     0.048 A 
HETATM   18 CL   UNL     1     -43.534  61.112 -51.081  1.00  0.00    -0.083 Cl
ENDBRANCH   4  12
ENDBRANCH   1   2
BRANCH   1  19
HETATM   19  C   UNL     1     -42.457  56.871 -56.722  1.00  0.00     0.185 C 
BRANCH  19  20
HETATM   20  C   UNL     1     -42.401  55.568 -55.928  1.00  0.00     0.231 C 
HETATM   21  N   UNL     1     -41.172  55.356 -55.324  1.00  0.00    -0.326 N 
HETATM   22  H   UNL     1     -40.558  56.170 -55.274  1.00  0.00     0.169 HD
HETATM   23  O   UNL     1     -43.385  54.837 -55.833  1.00  0.00    -0.272 OA
BRANCH  21  24
HETATM   24  C   UNL     1     -40.774  54.263 -54.527  1.00  0.00     0.037 A 
HETATM   25  C   UNL     1     -40.511  52.987 -55.035  1.00  0.00     0.061 A 
HETATM   26  C   UNL     1     -40.173  52.012 -54.123  1.00  0.00     0.065 A 
HETATM   27  C   UNL     1     -40.071  52.264 -52.757  1.00  0.00     0.063 A 
HETATM   28  N   UNL     1     -39.890  50.665 -54.328  1.00  0.00    -0.306 N 
HETATM   29  N   UNL     1     -39.722  51.078 -52.124  1.00  0.00    -0.307 N 
HETATM   30  C   UNL     1     -40.303  53.507 -52.226  1.00  0.00     0.034 A 
HETATM   31  C   UNL     1     -39.608  50.069 -53.090  1.00  0.00     0.325 A 
HETATM   32  H   UNL     1     -39.572  50.932 -51.139  1.00  0.00     0.170 HD
HETATM   33  O   UNL     1     -39.327  48.901 -52.893  1.00  0.00    -0.247 OA
HETATM   34  C   UNL     1     -40.660  54.513 -53.132  1.00  0.00     0.032 A 
HETATM   35  H   UNL     1     -39.879  50.172 -55.206  1.00  0.00     0.170 HD
ENDBRANCH  21  24
ENDBRANCH  19  20
ENDBRANCH   1  19
TORSDOF 6
ENDMDL
MODEL 4
REMARK VINA RESULT:      -8.9      2.149      3.134
REMARK  6 active torsions:
REMARK  status: ('A' for Active; 'I' for Inactive)
REMARK    1  A    between atoms: C_3  and  C_4 
REMARK    2  A    between atoms: N_5  and  C_6 
REMARK    3  A    between atoms: C_11  and  S_12 
REMARK    4  A    between atoms: S_12  and  C_13 
REMARK    5  A    between atoms: C_13  and  C_14 
REMARK       I    between atoms: C_14  and  N_15 
REMARK    6  A    between atoms: N_15  and  C_16 
ROOT
HETATM    1  S   UNL     1     -44.225  58.224 -52.907  1.00  0.00    -0.081 SA
ENDROOT
BRANCH   1   2
HETATM    2  C   UNL     1     -43.378  56.843 -53.512  1.00  0.00     0.192 C 
HETATM    3  N   UNL     1     -42.164  56.396 -53.054  1.00  0.00    -0.302 N 
HETATM    4  C   UNL     1     -42.210  55.026 -53.292  1.00  0.00     0.166 C 
HETATM    5  N   UNL     1     -43.210  54.778 -54.119  1.00  0.00    -0.128 NA
HETATM    6  N   UNL     1     -43.952  55.919 -54.247  1.00  0.00    -0.122 NA
BRANCH   3   7
HETATM    7  C   UNL     1     -41.097  57.107 -52.371  1.00  0.00     0.094 C 
HETATM    8  C   UNL     1     -40.583  58.331 -53.154  1.00  0.00     0.026 C 
HETATM    9  C   UNL     1     -39.771  59.139 -52.152  1.00  0.00     0.002 C 
HETATM   10  C   UNL     1     -40.343  58.803 -50.785  1.00  0.00     0.002 C 
HETATM   11  C   UNL     1     -41.438  57.771 -51.026  1.00  0.00     0.026 C 
ENDBRANCH   3   7
BRANCH   4  12
HETATM   12  C   UNL     1     -41.398  54.005 -52.632  1.00  0.00     0.034 A 
HETATM   13  C   UNL     1     -41.576  53.791 -51.252  1.00  0.00     0.017 A 
HETATM   14  C   UNL     1     -40.857  52.801 -50.579  1.00  0.00     0.001 A 
HETATM   15  C   UNL     1     -39.952  52.009 -51.276  1.00  0.00     0.002 A 
HETATM   16  C   UNL     1     -39.768  52.202 -52.647  1.00  0.00     0.025 A 
HETATM   17  C   UNL     1     -40.490  53.191 -53.326  1.00  0.00     0.048 A 
HETATM   18 CL   UNL     1     -40.182  53.389 -55.015  1.00  0.00    -0.083 Cl
ENDBRANCH   4  12
ENDBRANCH   1   2
BRANCH   1  19
HETATM   19  C   UNL     1     -43.697  59.465 -54.132  1.00  0.00     0.185 C 
BRANCH  19  20
HETATM   20  C   UNL     1     -43.650  58.865 -55.535  1.00  0.00     0.231 C 
HETATM   21  N   UNL     1     -44.899  58.494 -56.006  1.00  0.00    -0.326 N 
HETATM   22  H   UNL     1     -45.696  58.872 -55.490  1.00  0.00     0.169 HD
HETATM   23  O   UNL     1     -42.593  58.779 -56.156  1.00  0.00    -0.272 OA
BRANCH  21  24
HETATM   24  C   UNL     1     -45.220  57.910 -57.248  1.00  0.00     0.037 A 
HETATM   25  C   UNL     1     -44.439  56.931 -57.871  1.00  0.00     0.061 A 
HETATM   26  C   UNL     1     -44.862  56.488 -59.105  1.00  0.00     0.065 A 
HETATM   27  C   UNL     1     -46.022  56.962 -59.714  1.00  0.00     0.063 A 
HETATM   28  N   UNL     1     -44.282  55.558 -59.960  1.00  0.00    -0.306 N 
HETATM   29  N   UNL     1     -46.156  56.321 -60.940  1.00  0.00    -0.307 N 
HETATM   30  C   UNL     1     -46.821  57.906 -59.125  1.00  0.00     0.034 A 
HETATM   31  C   UNL     1     -45.077  55.444 -61.110  1.00  0.00     0.325 A 
HETATM   32  H   UNL     1     -46.891  56.446 -61.616  1.00  0.00     0.170 HD
HETATM   33  O   UNL     1     -44.866  54.728 -62.072  1.00  0.00    -0.247 OA
HETATM   34  C   UNL     1     -46.406  58.381 -57.875  1.00  0.00     0.032 A 
HETATM   35  H   UNL     1     -43.435  55.035 -59.807  1.00  0.00     0.170 HD
ENDBRANCH  21  24
ENDBRANCH  19  20
ENDBRANCH   1  19
TORSDOF 6
ENDMDL
MODEL 5
REMARK VINA RESULT:      -8.8      3.895      8.822
REMARK  6 active torsions:
REMARK  status: ('A' for Active; 'I' for Inactive)
REMARK    1  A    between atoms: C_3  and  C_4 
REMARK    2  A    between atoms: N_5  and  C_6 
REMARK    3  A    between atoms: C_11  and  S_12 
REMARK    4  A    between atoms: S_12  and  C_13 
REMARK    5  A    between atoms: C_13  and  C_14 
REMARK       I    between atoms: C_14  and  N_15 
REMARK    6  A    between atoms: N_15  and  C_16 
ROOT
HETATM    1  S   UNL     1     -42.056  59.996 -55.641  1.00  0.00    -0.081 SA
ENDROOT
BRANCH   1   2
HETATM    2  C   UNL     1     -43.485  59.271 -56.292  1.00  0.00     0.192 C 
HETATM    3  N   UNL     1     -43.710  59.021 -57.622  1.00  0.00    -0.302 N 
HETATM    4  C   UNL     1     -44.552  57.914 -57.609  1.00  0.00     0.166 C 
HETATM    5  N   UNL     1     -45.032  57.769 -56.386  1.00  0.00    -0.128 NA
HETATM    6  N   UNL     1     -44.352  58.615 -55.556  1.00  0.00    -0.122 NA
BRANCH   3   7
HETATM    7  C   UNL     1     -43.143  59.646 -58.806  1.00  0.00     0.094 C 
HETATM    8  C   UNL     1     -42.101  58.765 -59.521  1.00  0.00     0.026 C 
HETATM    9  C   UNL     1     -41.910  59.397 -60.892  1.00  0.00     0.002 C 
HETATM   10  C   UNL     1     -43.208  60.125 -61.199  1.00  0.00     0.002 C 
HETATM   11  C   UNL     1     -44.098  59.939 -59.976  1.00  0.00     0.026 C 
ENDBRANCH   3   7
BRANCH   4  12
HETATM   12  C   UNL     1     -44.763  56.972 -58.707  1.00  0.00     0.034 A 
HETATM   13  C   UNL     1     -43.810  55.958 -58.916  1.00  0.00     0.017 A 
HETATM   14  C   UNL     1     -43.981  55.007 -59.924  1.00  0.00     0.001 A 
HETATM   15  C   UNL     1     -45.109  55.054 -60.735  1.00  0.00     0.002 A 
HETATM   16  C   UNL     1     -46.069  56.049 -60.537  1.00  0.00     0.025 A 
HETATM   17  C   UNL     1     -45.902  57.002 -59.525  1.00  0.00     0.048 A 
HETATM   18 CL   UNL     1     -47.118  58.219 -59.365  1.00  0.00    -0.083 Cl
ENDBRANCH   4  12
ENDBRANCH   1   2
BRANCH   1  19
HETATM   19  C   UNL     1     -42.188  59.430 -53.915  1.00  0.00     0.185 C 
BRANCH  19  20
HETATM   20  C   UNL     1     -41.284  58.225 -53.663  1.00  0.00     0.231 C 
HETATM   21  N   UNL     1     -41.895  57.019 -53.969  1.00  0.00    -0.326 N 
HETATM   22  H   UNL     1     -42.744  57.084 -54.533  1.00  0.00     0.169 HD
HETATM   23  O   UNL     1     -40.129  58.366 -53.266  1.00  0.00    -0.272 OA
BRANCH  21  24
HETATM   24  C   UNL     1     -41.358  55.721 -53.854  1.00  0.00     0.037 A 
HETATM   25  C   UNL     1     -41.196  55.053 -52.636  1.00  0.00     0.061 A 
HETATM   26  C   UNL     1     -40.616  53.804 -52.683  1.00  0.00     0.065 A 
HETATM   27  C   UNL     1     -40.220  53.205 -53.877  1.00  0.00     0.063 A 
HETATM   28  N   UNL     1     -40.307  52.930 -51.646  1.00  0.00    -0.306 N 
HETATM   29  N   UNL     1     -39.673  51.964 -53.575  1.00  0.00    -0.307 N 
HETATM   30  C   UNL     1     -40.381  53.821 -55.090  1.00  0.00     0.034 A 
HETATM   31  C   UNL     1     -39.716  51.778 -52.186  1.00  0.00     0.325 A 
HETATM   32  H   UNL     1     -39.297  51.290 -54.221  1.00  0.00     0.170 HD
HETATM   33  O   UNL     1     -39.313  50.809 -51.569  1.00  0.00    -0.247 OA
HETATM   34  C   UNL     1     -40.957  55.097 -55.068  1.00  0.00     0.032 A 
HETATM   35  H   UNL     1     -40.469  53.071 -50.661  1.00  0.00     0.170 HD
ENDBRANCH  21  24
ENDBRANCH  19  20
ENDBRANCH   1  19
TORSDOF 6
ENDMDL
MODEL 6
REMARK VINA RESULT:      -8.7      3.148      4.180
REMARK  6 active torsions:
REMARK  status: ('A' for Active; 'I' for Inactive)
REMARK    1  A    between atoms: C_3  and  C_4 
REMARK    2  A    between atoms: N_5  and  C_6 
REMARK    3  A    between atoms: C_11  and  S_12 
REMARK    4  A    between atoms: S_12  and  C_13 
REMARK    5  A    between atoms: C_13  and  C_14 
REMARK       I    between atoms: C_14  and  N_15 
REMARK    6  A    between atoms: N_15  and  C_16 
ROOT
HETATM    1  S   UNL     1     -43.300  61.487 -53.909  1.00  0.00    -0.081 SA
ENDROOT
BRANCH   1   2
HETATM    2  C   UNL     1     -42.295  60.165 -53.428  1.00  0.00     0.192 C 
HETATM    3  N   UNL     1     -42.642  59.195 -52.522  1.00  0.00    -0.302 N 
HETATM    4  C   UNL     1     -41.918  58.083 -52.939  1.00  0.00     0.166 C 
HETATM    5  N   UNL     1     -40.989  58.484 -53.789  1.00  0.00    -0.128 NA
HETATM    6  N   UNL     1     -41.234  59.791 -54.105  1.00  0.00    -0.122 NA
BRANCH   3   7
HETATM    7  C   UNL     1     -43.612  59.224 -51.439  1.00  0.00     0.094 C 
HETATM    8  C   UNL     1     -43.616  60.553 -50.661  1.00  0.00     0.026 C 
HETATM    9  C   UNL     1     -44.903  60.542 -49.850  1.00  0.00     0.002 C 
HETATM   10  C   UNL     1     -45.869  59.651 -50.613  1.00  0.00     0.002 C 
HETATM   11  C   UNL     1     -45.099  59.129 -51.821  1.00  0.00     0.026 C 
ENDBRANCH   3   7
BRANCH   4  12
HETATM   12  C   UNL     1     -42.216  56.687 -52.623  1.00  0.00     0.034 A 
HETATM   13  C   UNL     1     -43.012  55.949 -53.519  1.00  0.00     0.017 A 
HETATM   14  C   UNL     1     -43.293  54.601 -53.288  1.00  0.00     0.001 A 
HETATM   15  C   UNL     1     -42.781  53.971 -52.160  1.00  0.00     0.002 A 
HETATM   16  C   UNL     1     -41.983  54.686 -51.264  1.00  0.00     0.025 A 
HETATM   17  C   UNL     1     -41.696  56.036 -51.495  1.00  0.00     0.048 A 
HETATM   18 CL   UNL     1     -40.728  56.859 -50.322  1.00  0.00    -0.083 Cl
ENDBRANCH   4  12
ENDBRANCH   1   2
BRANCH   1  19
HETATM   19  C   UNL     1     -42.949  61.501 -55.696  1.00  0.00     0.185 C 
BRANCH  19  20
HETATM   20  C   UNL     1     -43.656  60.347 -56.403  1.00  0.00     0.231 C 
HETATM   21  N   UNL     1     -42.774  59.455 -56.992  1.00  0.00    -0.326 N 
HETATM   22  H   UNL     1     -41.801  59.530 -56.692  1.00  0.00     0.169 HD
HETATM   23  O   UNL     1     -44.880  60.244 -56.387  1.00  0.00    -0.272 OA
BRANCH  21  24
HETATM   24  C   UNL     1     -43.080  58.289 -57.724  1.00  0.00     0.037 A 
HETATM   25  C   UNL     1     -43.664  58.300 -58.995  1.00  0.00     0.061 A 
HETATM   26  C   UNL     1     -43.941  57.076 -59.563  1.00  0.00     0.065 A 
HETATM   27  C   UNL     1     -43.645  55.871 -58.932  1.00  0.00     0.063 A 
HETATM   28  N   UNL     1     -44.538  56.780 -60.784  1.00  0.00    -0.306 N 
HETATM   29  N   UNL     1     -44.054  54.836 -59.764  1.00  0.00    -0.307 N 
HETATM   30  C   UNL     1     -43.055  55.821 -57.695  1.00  0.00     0.034 A 
HETATM   31  C   UNL     1     -44.616  55.387 -60.923  1.00  0.00     0.325 A 
HETATM   32  H   UNL     1     -43.977  53.847 -59.591  1.00  0.00     0.170 HD
HETATM   33  O   UNL     1     -45.088  54.775 -61.865  1.00  0.00    -0.247 OA
HETATM   34  C   UNL     1     -42.774  57.053 -57.091  1.00  0.00     0.032 A 
HETATM   35  H   UNL     1     -44.867  57.434 -61.477  1.00  0.00     0.170 HD
ENDBRANCH  21  24
ENDBRANCH  19  20
ENDBRANCH   1  19
TORSDOF 6
ENDMDL
MODEL 7
REMARK VINA RESULT:      -8.6      4.051      8.260
REMARK  6 active torsions:
REMARK  status: ('A' for Active; 'I' for Inactive)
REMARK    1  A    between atoms: C_3  and  C_4 
REMARK    2  A    between atoms: N_5  and  C_6 
REMARK    3  A    between atoms: C_11  and  S_12 
REMARK    4  A    between atoms: S_12  and  C_13 
REMARK    5  A    between atoms: C_13  and  C_14 
REMARK       I    between atoms: C_14  and  N_15 
REMARK    6  A    between atoms: N_15  and  C_16 
ROOT
HETATM    1  S   UNL     1     -43.837  57.184 -56.581  1.00  0.00    -0.081 SA
ENDROOT
BRANCH   1   2
HETATM    2  C   UNL     1     -43.162  58.500 -55.685  1.00  0.00     0.192 C 
HETATM    3  N   UNL     1     -43.324  58.707 -54.338  1.00  0.00    -0.302 N 
HETATM    4  C   UNL     1     -42.163  59.377 -53.968  1.00  0.00     0.166 C 
HETATM    5  N   UNL     1     -41.563  59.811 -55.063  1.00  0.00    -0.128 NA
HETATM    6  N   UNL     1     -42.186  59.249 -56.142  1.00  0.00    -0.122 NA
BRANCH   3   7
HETATM    7  C   UNL     1     -44.373  58.258 -53.437  1.00  0.00     0.094 C 
HETATM    8  C   UNL     1     -43.844  57.423 -52.256  1.00  0.00     0.026 C 
HETATM    9  C   UNL     1     -44.989  57.370 -51.255  1.00  0.00     0.002 C 
HETATM   10  C   UNL     1     -45.817  58.620 -51.502  1.00  0.00     0.002 C 
HETATM   11  C   UNL     1     -45.159  59.339 -52.674  1.00  0.00     0.026 C 
ENDBRANCH   3   7
BRANCH   4  12
HETATM   12  C   UNL     1     -41.605  59.464 -52.620  1.00  0.00     0.034 A 
HETATM   13  C   UNL     1     -40.627  58.528 -52.234  1.00  0.00     0.017 A 
HETATM   14  C   UNL     1     -40.031  58.589 -50.973  1.00  0.00     0.001 A 
HETATM   15  C   UNL     1     -40.402  59.589 -50.080  1.00  0.00     0.002 A 
HETATM   16  C   UNL     1     -41.365  60.530 -50.449  1.00  0.00     0.025 A 
HETATM   17  C   UNL     1     -41.962  60.474 -51.714  1.00  0.00     0.048 A 
HETATM   18 CL   UNL     1     -43.168  61.656 -52.082  1.00  0.00    -0.083 Cl
ENDBRANCH   4  12
ENDBRANCH   1   2
BRANCH   1  19
HETATM   19  C   UNL     1     -42.481  55.979 -56.419  1.00  0.00     0.185 C 
BRANCH  19  20
HETATM   20  C   UNL     1     -42.592  55.201 -55.110  1.00  0.00     0.231 C 
HETATM   21  N   UNL     1     -41.402  55.170 -54.399  1.00  0.00    -0.326 N 
HETATM   22  H   UNL     1     -40.694  55.843 -54.693  1.00  0.00     0.169 HD
HETATM   23  O   UNL     1     -43.658  54.707 -54.750  1.00  0.00    -0.272 OA
BRANCH  21  24
HETATM   24  C   UNL     1     -41.147  54.542 -53.163  1.00  0.00     0.037 A 
HETATM   25  C   UNL     1     -41.446  55.117 -51.923  1.00  0.00     0.061 A 
HETATM   26  C   UNL     1     -41.097  54.397 -50.802  1.00  0.00     0.065 A 
HETATM   27  C   UNL     1     -40.491  53.144 -50.874  1.00  0.00     0.063 A 
HETATM   28  N   UNL     1     -41.241  54.723 -49.458  1.00  0.00    -0.306 N 
HETATM   29  N   UNL     1     -40.268  52.699 -49.576  1.00  0.00    -0.307 N 
HETATM   30  C   UNL     1     -40.201  52.542 -52.070  1.00  0.00     0.034 A 
HETATM   31  C   UNL     1     -40.727  53.674 -48.681  1.00  0.00     0.325 A 
HETATM   32  H   UNL     1     -39.847  51.830 -49.294  1.00  0.00     0.170 HD
HETATM   33  O   UNL     1     -40.682  53.624 -47.465  1.00  0.00    -0.247 OA
HETATM   34  C   UNL     1     -40.536  53.260 -53.225  1.00  0.00     0.032 A 
HETATM   35  H   UNL     1     -41.645  55.563 -49.074  1.00  0.00     0.170 HD
ENDBRANCH  21  24
ENDBRANCH  19  20
ENDBRANCH   1  19
TORSDOF 6
ENDMDL
MODEL 8
REMARK VINA RESULT:      -8.6      3.517      8.777
REMARK  6 active torsions:
REMARK  status: ('A' for Active; 'I' for Inactive)
REMARK    1  A    between atoms: C_3  and  C_4 
REMARK    2  A    between atoms: N_5  and  C_6 
REMARK    3  A    between atoms: C_11  and  S_12 
REMARK    4  A    between atoms: S_12  and  C_13 
REMARK    5  A    between atoms: C_13  and  C_14 
REMARK       I    between atoms: C_14  and  N_15 
REMARK    6  A    between atoms: N_15  and  C_16 
ROOT
HETATM    1  S   UNL     1     -42.165  60.327 -55.922  1.00  0.00    -0.081 SA
ENDROOT
BRANCH   1   2
HETATM    2  C   UNL     1     -43.667  59.604 -56.382  1.00  0.00     0.192 C 
HETATM    3  N   UNL     1     -44.073  59.375 -57.672  1.00  0.00    -0.302 N 
HETATM    4  C   UNL     1     -44.901  58.263 -57.561  1.00  0.00     0.166 C 
HETATM    5  N   UNL     1     -45.207  58.095 -56.287  1.00  0.00    -0.128 NA
HETATM    6  N   UNL     1     -44.422  58.931 -55.545  1.00  0.00    -0.122 NA
BRANCH   3   7
HETATM    7  C   UNL     1     -43.678  60.024 -58.912  1.00  0.00     0.094 C 
HETATM    8  C   UNL     1     -43.584  61.557 -58.793  1.00  0.00     0.026 C 
HETATM    9  C   UNL     1     -42.818  62.012 -60.026  1.00  0.00     0.002 C 
HETATM   10  C   UNL     1     -41.951  60.832 -60.436  1.00  0.00     0.002 C 
HETATM   11  C   UNL     1     -42.276  59.708 -59.459  1.00  0.00     0.026 C 
ENDBRANCH   3   7
BRANCH   4  12
HETATM   12  C   UNL     1     -45.259  57.338 -58.636  1.00  0.00     0.034 A 
HETATM   13  C   UNL     1     -46.515  57.479 -59.255  1.00  0.00     0.017 A 
HETATM   14  C   UNL     1     -46.892  56.651 -60.314  1.00  0.00     0.001 A 
HETATM   15  C   UNL     1     -46.018  55.670 -60.770  1.00  0.00     0.002 A 
HETATM   16  C   UNL     1     -44.765  55.521 -60.172  1.00  0.00     0.025 A 
HETATM   17  C   UNL     1     -44.382  56.353 -59.113  1.00  0.00     0.048 A 
HETATM   18 CL   UNL     1     -42.828  56.083 -58.406  1.00  0.00    -0.083 Cl
ENDBRANCH   4  12
ENDBRANCH   1   2
BRANCH   1  19
HETATM   19  C   UNL     1     -42.246  60.078 -54.120  1.00  0.00     0.185 C 
BRANCH  19  20
HETATM   20  C   UNL     1     -41.367  58.906 -53.688  1.00  0.00     0.231 C 
HETATM   21  N   UNL     1     -42.032  57.690 -53.726  1.00  0.00    -0.326 N 
HETATM   22  H   UNL     1     -42.909  57.682 -54.248  1.00  0.00     0.169 HD
HETATM   23  O   UNL     1     -40.188  59.071 -53.385  1.00  0.00    -0.272 OA
BRANCH  21  24
HETATM   24  C   UNL     1     -41.529  56.416 -53.391  1.00  0.00     0.037 A 
HETATM   25  C   UNL     1     -41.059  55.495 -54.332  1.00  0.00     0.061 A 
HETATM   26  C   UNL     1     -40.640  54.274 -53.852  1.00  0.00     0.065 A 
HETATM   27  C   UNL     1     -40.654  53.955 -52.496  1.00  0.00     0.063 A 
HETATM   28  N   UNL     1     -40.157  53.167 -54.543  1.00  0.00    -0.306 N 
HETATM   29  N   UNL     1     -40.177  52.658 -52.354  1.00  0.00    -0.307 N 
HETATM   30  C   UNL     1     -41.090  54.840 -51.545  1.00  0.00     0.034 A 
HETATM   31  C   UNL     1     -39.866  52.150 -53.622  1.00  0.00     0.325 A 
HETATM   32  H   UNL     1     -40.066  52.139 -51.498  1.00  0.00     0.170 HD
HETATM   33  O   UNL     1     -39.434  51.040 -53.876  1.00  0.00    -0.247 OA
HETATM   34  C   UNL     1     -41.533  56.084 -52.008  1.00  0.00     0.032 A 
HETATM   35  H   UNL     1     -40.025  53.080 -55.539  1.00  0.00     0.170 HD
ENDBRANCH  21  24
ENDBRANCH  19  20
ENDBRANCH   1  19
TORSDOF 6
ENDMDL
MODEL 9
REMARK VINA RESULT:      -8.5      3.916      9.265
REMARK  6 active torsions:
REMARK  status: ('A' for Active; 'I' for Inactive)
REMARK    1  A    between atoms: C_3  and  C_4 
REMARK    2  A    between atoms: N_5  and  C_6 
REMARK    3  A    between atoms: C_11  and  S_12 
REMARK    4  A    between atoms: S_12  and  C_13 
REMARK    5  A    between atoms: C_13  and  C_14 
REMARK       I    between atoms: C_14  and  N_15 
REMARK    6  A    between atoms: N_15  and  C_16 
ROOT
HETATM    1  S   UNL     1     -43.763  57.983 -54.577  1.00  0.00    -0.081 SA
ENDROOT
BRANCH   1   2
HETATM    2  C   UNL     1     -42.751  58.624 -55.824  1.00  0.00     0.192 C 
HETATM    3  N   UNL     1     -42.903  58.388 -57.167  1.00  0.00    -0.302 N 
HETATM    4  C   UNL     1     -42.388  59.536 -57.760  1.00  0.00     0.166 C 
HETATM    5  N   UNL     1     -41.696  60.202 -56.852  1.00  0.00    -0.128 NA
HETATM    6  N   UNL     1     -41.934  59.634 -55.633  1.00  0.00    -0.122 NA
BRANCH   3   7
HETATM    7  C   UNL     1     -43.545  57.284 -57.861  1.00  0.00     0.094 C 
HETATM    8  C   UNL     1     -44.792  57.710 -58.660  1.00  0.00     0.026 C 
HETATM    9  C   UNL     1     -45.093  56.545 -59.591  1.00  0.00     0.002 C 
HETATM   10  C   UNL     1     -43.766  55.838 -59.816  1.00  0.00     0.002 C 
HETATM   11  C   UNL     1     -42.741  56.583 -58.969  1.00  0.00     0.026 C 
ENDBRANCH   3   7
BRANCH   4  12
HETATM   12  C   UNL     1     -42.676  60.017 -59.111  1.00  0.00     0.034 A 
HETATM   13  C   UNL     1     -41.835  59.613 -60.163  1.00  0.00     0.017 A 
HETATM   14  C   UNL     1     -42.086  60.009 -61.478  1.00  0.00     0.001 A 
HETATM   15  C   UNL     1     -43.185  60.814 -61.760  1.00  0.00     0.002 A 
HETATM   16  C   UNL     1     -44.035  61.218 -60.729  1.00  0.00     0.025 A 
HETATM   17  C   UNL     1     -43.787  60.819 -59.410  1.00  0.00     0.048 A 
HETATM   18 CL   UNL     1     -44.867  61.389 -58.186  1.00  0.00    -0.083 Cl
ENDBRANCH   4  12
ENDBRANCH   1   2
BRANCH   1  19
HETATM   19  C   UNL     1     -42.624  58.115 -53.162  1.00  0.00     0.185 C 
BRANCH  19  20
HETATM   20  C   UNL     1     -41.568  57.013 -53.203  1.00  0.00     0.231 C 
HETATM   21  N   UNL     1     -42.062  55.777 -52.819  1.00  0.00    -0.326 N 
HETATM   22  H   UNL     1     -43.080  55.697 -52.792  1.00  0.00     0.169 HD
HETATM   23  O   UNL     1     -40.422  57.243 -53.585  1.00  0.00    -0.272 OA
BRANCH  21  24
HETATM   24  C   UNL     1     -41.368  54.553 -52.737  1.00  0.00     0.037 A 
HETATM   25  C   UNL     1     -41.313  53.620 -53.777  1.00  0.00     0.061 A 
HETATM   26  C   UNL     1     -40.630  52.450 -53.528  1.00  0.00     0.065 A 
HETATM   27  C   UNL     1     -39.998  52.193 -52.314  1.00  0.00     0.063 A 
HETATM   28  N   UNL     1     -40.436  51.344 -54.350  1.00  0.00    -0.306 N 
HETATM   29  N   UNL     1     -39.414  50.935 -52.390  1.00  0.00    -0.307 N 
HETATM   30  C   UNL     1     -40.015  53.092 -51.279  1.00  0.00     0.034 A 
HETATM   31  C   UNL     1     -39.680  50.390 -53.653  1.00  0.00     0.325 A 
HETATM   32  H   UNL     1     -38.884  50.464 -51.675  1.00  0.00     0.170 HD
HETATM   33  O   UNL     1     -39.330  49.298 -54.063  1.00  0.00    -0.247 OA
HETATM   34  C   UNL     1     -40.714  54.284 -51.503  1.00  0.00     0.032 A 
HETATM   35  H   UNL     1     -40.768  51.220 -55.293  1.00  0.00     0.170 HD
ENDBRANCH  21  24
ENDBRANCH  19  20
ENDBRANCH   1  19
TORSDOF 6
ENDMDL
MODEL 10
REMARK VINA RESULT:      -8.1      5.011      9.272
REMARK  6 active torsions:
REMARK  status: ('A' for Active; 'I' for Inactive)
REMARK    1  A    between atoms: C_3  and  C_4 
REMARK    2  A    between atoms: N_5  and  C_6 
REMARK    3  A    between atoms: C_11  and  S_12 
REMARK    4  A    between atoms: S_12  and  C_13 
REMARK    5  A    between atoms: C_13  and  C_14 
REMARK       I    between atoms: C_14  and  N_15 
REMARK    6  A    between atoms: N_15  and  C_16 
ROOT
HETATM    1  S   UNL     1     -41.458  58.447 -54.150  1.00  0.00    -0.081 SA
ENDROOT
BRANCH   1   2
HETATM    2  C   UNL     1     -41.470  59.482 -52.764  1.00  0.00     0.192 C 
HETATM    3  N   UNL     1     -42.312  60.548 -52.580  1.00  0.00    -0.302 N 
HETATM    4  C   UNL     1     -42.444  60.625 -51.197  1.00  0.00     0.166 C 
HETATM    5  N   UNL     1     -41.494  59.891 -50.645  1.00  0.00    -0.128 NA
HETATM    6  N   UNL     1     -40.889  59.163 -51.630  1.00  0.00    -0.122 NA
BRANCH   3   7
HETATM    7  C   UNL     1     -43.022  61.366 -53.550  1.00  0.00     0.094 C 
HETATM    8  C   UNL     1     -44.492  60.945 -53.742  1.00  0.00     0.026 C 
HETATM    9  C   UNL     1     -45.151  62.104 -54.475  1.00  0.00     0.002 C 
HETATM   10  C   UNL     1     -44.344  63.339 -54.111  1.00  0.00     0.002 C 
HETATM   11  C   UNL     1     -43.208  62.856 -53.217  1.00  0.00     0.026 C 
ENDBRANCH   3   7
BRANCH   4  12
HETATM   12  C   UNL     1     -43.530  61.275 -50.465  1.00  0.00     0.034 A 
HETATM   13  C   UNL     1     -43.335  62.587 -49.995  1.00  0.00     0.017 A 
HETATM   14  C   UNL     1     -44.352  63.271 -49.326  1.00  0.00     0.001 A 
HETATM   15  C   UNL     1     -45.580  62.653 -49.119  1.00  0.00     0.002 A 
HETATM   16  C   UNL     1     -45.794  61.354 -49.584  1.00  0.00     0.025 A 
HETATM   17  C   UNL     1     -44.778  60.667 -50.259  1.00  0.00     0.048 A 
HETATM   18 CL   UNL     1     -45.111  59.051 -50.775  1.00  0.00    -0.083 Cl
ENDBRANCH   4  12
ENDBRANCH   1   2
BRANCH   1  19
HETATM   19  C   UNL     1     -43.051  57.598 -53.909  1.00  0.00     0.185 C 
BRANCH  19  20
HETATM   20  C   UNL     1     -42.843  56.107 -53.647  1.00  0.00     0.231 C 
HETATM   21  N   UNL     1     -41.530  55.792 -53.339  1.00  0.00    -0.326 N 
HETATM   22  H   UNL     1     -40.932  56.581 -53.090  1.00  0.00     0.169 HD
HETATM   23  O   UNL     1     -43.784  55.318 -53.680  1.00  0.00    -0.272 OA
BRANCH  21  24
HETATM   24  C   UNL     1     -40.988  54.523 -53.048  1.00  0.00     0.037 A 
HETATM   25  C   UNL     1     -40.811  53.516 -54.002  1.00  0.00     0.061 A 
HETATM   26  C   UNL     1     -40.308  52.315 -53.554  1.00  0.00     0.065 A 
HETATM   27  C   UNL     1     -39.966  52.094 -52.221  1.00  0.00     0.063 A 
HETATM   28  N   UNL     1     -40.057  51.141 -54.256  1.00  0.00    -0.306 N 
HETATM   29  N   UNL     1     -39.502  50.790 -52.106  1.00  0.00    -0.307 N 
HETATM   30  C   UNL     1     -40.109  53.063 -51.263  1.00  0.00     0.034 A 
HETATM   31  C   UNL     1     -39.555  50.180 -53.367  1.00  0.00     0.325 A 
HETATM   32  H   UNL     1     -39.178  50.329 -51.272  1.00  0.00     0.170 HD
HETATM   33  O   UNL     1     -39.234  49.036 -53.636  1.00  0.00    -0.247 OA
HETATM   34  C   UNL     1     -40.629  54.291 -51.691  1.00  0.00     0.032 A 
HETATM   35  H   UNL     1     -40.199  50.977 -55.241  1.00  0.00     0.170 HD
ENDBRANCH  21  24
ENDBRANCH  19  20
ENDBRANCH   1  19
TORSDOF 6
ENDMDL
