MODEL 1
REMARK VINA RESULT:      -7.8      0.000      0.000
REMARK  11 active torsions:
REMARK  status: ('A' for Active; 'I' for Inactive)
REMARK    1  A    between atoms: C_1  and  C_7 
REMARK    2  A    between atoms: C_1  and  C_11 
REMARK    3  A    between atoms: C_8  and  C_13 
REMARK    4  A    between atoms: C_8  and  O_14 
REMARK       I    between atoms: C_11  and  N_12 
REMARK    5  A    between atoms: N_12  and  C_13 
REMARK    6  A    between atoms: C_18  and  N_19 
REMARK    7  A    between atoms: N_19  and  C_20 
REMARK    8  A    between atoms: C_20  and  C_21 
REMARK    9  A    between atoms: C_28  and  C_29 
REMARK   10  A    between atoms: C_29  and  O_30 
REMARK   11  A    between atoms: C_31  and  O_32 
ROOT
HETATM    1  C           1     -42.933  55.965 -54.212  0.00  0.00     0.012 A 
HETATM    2  C           1     -41.364  59.179 -53.500  0.00  0.00     0.016 C 
HETATM    3  C           1     -42.812  58.854 -53.952  0.00  0.00    -0.030 C 
HETATM    4  C           1     -43.466  57.957 -52.851  0.00  0.00     0.056 C 
HETATM    5  C           1     -44.686  58.990 -56.910  0.00  0.00     0.020 C 
HETATM    6  C           1     -42.950  56.560 -53.022  0.00  0.00     0.056 A 
HETATM    7  S           1     -42.375  54.616 -54.093  0.00  0.00    -0.055 SA
HETATM    8  C           1     -42.164  54.712 -52.641  0.00  0.00     0.167 A 
HETATM    9  N           1     -42.487  55.819 -52.115  0.00  0.00    -0.228 NA
HETATM   10  C           1     -43.397  56.731 -55.411  0.00  0.00     0.055 C 
HETATM   11  C           1     -42.775  58.150 -55.363  0.00  0.00     0.012 C 
HETATM   12  C           1     -43.166  59.007 -56.610  0.00  0.00     0.008 C 
HETATM   13  C           1     -42.716  60.470 -56.439  0.00  0.00     0.128 C 
HETATM   14  C           1     -43.085  61.138 -55.115  0.00  0.00     0.033 C 
HETATM   15  C           1     -43.593  60.180 -54.034  0.00  0.00     0.013 C 
ENDROOT
BRANCH   4  16
HETATM   16  C           1     -43.364  58.413 -51.380  0.00  0.00     0.114 C 
BRANCH  16  17
HETATM   17  C           1     -44.675  58.952 -50.817  0.00  0.00     0.218 C 
HETATM   18  N           1     -44.574  60.201 -50.266  0.00  0.00    -0.359 N 
HETATM   19  H           1     -43.675  60.678 -50.316  0.00  0.00     0.162 HD
HETATM   20  O           1     -45.704  58.323 -50.849  0.00  0.00    -0.274 OA
BRANCH  18  21
HETATM   21  C           1     -45.691  60.885 -49.603  0.00  0.00     0.148 C 
BRANCH  21  22
HETATM   22  C           1     -45.460  60.865 -48.092  0.00  0.00     0.186 C 
BRANCH  22  23
HETATM   23  O           1     -46.189  59.802 -47.530  0.00  0.00    -0.394 OA
HETATM   24  C           1     -46.323  59.926 -46.131  0.00  0.00     0.201 C 
ENDBRANCH  22  23
ENDBRANCH  21  22
ENDBRANCH  18  21
ENDBRANCH  16  17
ENDBRANCH   4  16
BRANCH  12  25
HETATM   25  C           1     -42.475  58.410 -57.864  0.00  0.00     0.176 C 
BRANCH  25  26
HETATM   26  O           1     -42.451  59.344 -58.924  0.00  0.00    -0.400 OA
HETATM   27  H           1     -42.944  58.998 -59.670  0.00  0.00     0.209 HD
ENDBRANCH  25  26
ENDBRANCH  12  25
BRANCH   8  28
HETATM   28  N           1     -41.666  53.716 -52.037  0.00  0.00    -0.365 N 
HETATM   29  H           1     -42.324  53.050 -51.560  0.00  0.00     0.162 HD
BRANCH  28  30
HETATM   30  C           1     -40.217  53.431 -51.963  0.00  0.00     0.160 C 
BRANCH  30  31
HETATM   31  C           1     -39.948  51.993 -52.345  0.00  0.00    -0.041 A 
HETATM   32  C           1     -39.963  51.613 -53.636  0.00  0.00     0.009 A 
HETATM   33  C           1     -39.752  50.336 -53.987  0.00  0.00     0.001 A 
HETATM   34  C           1     -39.518  49.412 -53.044  0.00  0.00     0.000 A 
HETATM   35  C           1     -39.494  49.775 -51.753  0.00  0.00     0.001 A 
HETATM   36  C           1     -39.709  51.055 -51.409  0.00  0.00     0.009 A 
ENDBRANCH  30  31
ENDBRANCH  28  30
ENDBRANCH   8  28
BRANCH  13  37
HETATM   37  O           1     -41.323  60.550 -56.645  0.00  0.00    -0.395 OA
HETATM   38  H           1     -41.146  61.356 -57.139  0.00  0.00     0.210 HD
ENDBRANCH  13  37
TORSDOF 11
ENDMDL
MODEL 2
REMARK VINA RESULT:      -7.8      2.582      6.273
REMARK  11 active torsions:
REMARK  status: ('A' for Active; 'I' for Inactive)
REMARK    1  A    between atoms: C_1  and  C_7 
REMARK    2  A    between atoms: C_1  and  C_11 
REMARK    3  A    between atoms: C_8  and  C_13 
REMARK    4  A    between atoms: C_8  and  O_14 
REMARK       I    between atoms: C_11  and  N_12 
REMARK    5  A    between atoms: N_12  and  C_13 
REMARK    6  A    between atoms: C_18  and  N_19 
REMARK    7  A    between atoms: N_19  and  C_20 
REMARK    8  A    between atoms: C_20  and  C_21 
REMARK    9  A    between atoms: C_28  and  C_29 
REMARK   10  A    between atoms: C_29  and  O_30 
REMARK   11  A    between atoms: C_31  and  O_32 
ROOT
HETATM    1  C           1     -41.767  58.384 -53.545  0.00  0.00     0.012 A 
HETATM    2  C           1     -45.024  57.820 -52.005  0.00  0.00     0.016 C 
HETATM    3  C           1     -44.507  59.027 -52.832  0.00  0.00    -0.030 C 
HETATM    4  C           1     -44.131  58.504 -54.256  0.00  0.00     0.056 C 
HETATM    5  C           1     -43.362  62.280 -52.212  0.00  0.00     0.020 C 
HETATM    6  C           1     -42.800  57.818 -54.164  0.00  0.00     0.056 A 
HETATM    7  S           1     -40.602  57.498 -53.598  0.00  0.00    -0.055 SA
HETATM    8  C           1     -41.295  56.450 -54.361  0.00  0.00     0.167 A 
HETATM    9  N           1     -42.513  56.683 -54.626  0.00  0.00    -0.228 NA
HETATM   10  C           1     -41.957  59.715 -52.888  0.00  0.00     0.055 C 
HETATM   11  C           1     -43.283  59.686 -52.086  0.00  0.00     0.012 C 
HETATM   12  C           1     -43.538  61.025 -51.321  0.00  0.00     0.008 C 
HETATM   13  C           1     -44.951  61.052 -50.708  0.00  0.00     0.128 C 
HETATM   14  C           1     -46.097  60.670 -51.643  0.00  0.00     0.033 C 
HETATM   15  C           1     -45.661  60.039 -52.968  0.00  0.00     0.013 C 
ENDROOT
BRANCH   4  16
HETATM   16  C           1     -45.157  57.631 -55.009  0.00  0.00     0.114 C 
BRANCH  16  17
HETATM   17  C           1     -45.222  57.923 -56.505  0.00  0.00     0.218 C 
HETATM   18  N           1     -44.417  57.119 -57.265  0.00  0.00    -0.359 N 
HETATM   19  H           1     -43.891  56.382 -56.797  0.00  0.00     0.162 HD
HETATM   20  O           1     -45.916  58.795 -56.968  0.00  0.00    -0.274 OA
BRANCH  18  21
HETATM   21  C           1     -44.266  57.268 -58.718  0.00  0.00     0.148 C 
BRANCH  21  22
HETATM   22  C           1     -43.797  55.938 -59.308  0.00  0.00     0.186 C 
BRANCH  22  23
HETATM   23  O           1     -43.997  55.959 -60.701  0.00  0.00    -0.394 OA
HETATM   24  C           1     -45.010  55.064 -61.108  0.00  0.00     0.201 C 
ENDBRANCH  22  23
ENDBRANCH  21  22
ENDBRANCH  18  21
ENDBRANCH  16  17
ENDBRANCH   4  16
BRANCH  12  25
HETATM   25  C           1     -42.492  61.157 -50.182  0.00  0.00     0.176 C 
BRANCH  25  26
HETATM   26  O           1     -42.165  59.892 -49.645  0.00  0.00    -0.400 OA
HETATM   27  H           1     -41.767  60.003 -48.778  0.00  0.00     0.209 HD
ENDBRANCH  25  26
ENDBRANCH  12  25
BRANCH   8  28
HETATM   28  N           1     -40.651  55.405 -54.672  0.00  0.00    -0.365 N 
HETATM   29  H           1     -39.614  55.491 -54.821  0.00  0.00     0.162 HD
BRANCH  28  30
HETATM   30  C           1     -41.266  54.070 -54.836  0.00  0.00     0.160 C 
BRANCH  30  31
HETATM   31  C           1     -40.646  53.087 -53.868  0.00  0.00    -0.041 A 
HETATM   32  C           1     -40.513  53.401 -52.566  0.00  0.00     0.009 A 
HETATM   33  C           1     -39.941  52.550 -51.701  0.00  0.00     0.001 A 
HETATM   34  C           1     -39.493  51.361 -52.129  0.00  0.00     0.000 A 
HETATM   35  C           1     -39.622  51.031 -53.423  0.00  0.00     0.001 A 
HETATM   36  C           1     -40.193  51.890 -54.283  0.00  0.00     0.009 A 
ENDBRANCH  30  31
ENDBRANCH  28  30
ENDBRANCH   8  28
BRANCH  13  37
HETATM   37  O           1     -44.971  60.229 -49.563  0.00  0.00    -0.395 OA
HETATM   38  H           1     -44.872  59.318 -49.856  0.00  0.00     0.210 HD
ENDBRANCH  13  37
TORSDOF 11
ENDMDL
MODEL 3
REMARK VINA RESULT:      -7.7      2.261      6.111
REMARK  11 active torsions:
REMARK  status: ('A' for Active; 'I' for Inactive)
REMARK    1  A    between atoms: C_1  and  C_7 
REMARK    2  A    between atoms: C_1  and  C_11 
REMARK    3  A    between atoms: C_8  and  C_13 
REMARK    4  A    between atoms: C_8  and  O_14 
REMARK       I    between atoms: C_11  and  N_12 
REMARK    5  A    between atoms: N_12  and  C_13 
REMARK    6  A    between atoms: C_18  and  N_19 
REMARK    7  A    between atoms: N_19  and  C_20 
REMARK    8  A    between atoms: C_20  and  C_21 
REMARK    9  A    between atoms: C_28  and  C_29 
REMARK   10  A    between atoms: C_29  and  O_30 
REMARK   11  A    between atoms: C_31  and  O_32 
ROOT
HETATM    1  C           1     -41.792  57.015 -51.746  0.00  0.00     0.012 A 
HETATM    2  C           1     -45.052  57.164 -53.374  0.00  0.00     0.016 C 
HETATM    3  C           1     -43.787  58.035 -53.593  0.00  0.00    -0.030 C 
HETATM    4  C           1     -42.634  57.092 -54.068  0.00  0.00     0.056 C 
HETATM    5  C           1     -42.670  61.235 -52.704  0.00  0.00     0.020 C 
HETATM    6  C           1     -42.099  56.369 -52.868  0.00  0.00     0.056 A 
HETATM    7  S           1     -41.301  56.071 -50.739  0.00  0.00    -0.055 SA
HETATM    8  C           1     -41.431  54.898 -51.617  0.00  0.00     0.167 A 
HETATM    9  N           1     -41.894  55.131 -52.774  0.00  0.00    -0.228 NA
HETATM   10  C           1     -42.031  58.490 -51.671  0.00  0.00     0.055 C 
HETATM   11  C           1     -43.435  58.793 -52.255  0.00  0.00     0.012 C 
HETATM   12  C           1     -43.793  60.313 -52.169  0.00  0.00     0.008 C 
HETATM   13  C           1     -45.091  60.620 -52.940  0.00  0.00     0.128 C 
HETATM   14  C           1     -45.177  60.065 -54.361  0.00  0.00     0.033 C 
HETATM   15  C           1     -44.093  59.044 -54.717  0.00  0.00     0.013 C 
ENDROOT
BRANCH   4  16
HETATM   16  C           1     -42.920  56.114 -55.227  0.00  0.00     0.114 C 
BRANCH  16  17
HETATM   17  C           1     -42.848  56.764 -56.605  0.00  0.00     0.218 C 
HETATM   18  N           1     -43.852  56.383 -57.454  0.00  0.00    -0.359 N 
HETATM   19  H           1     -44.571  55.754 -57.098  0.00  0.00     0.162 HD
HETATM   20  O           1     -41.975  57.537 -56.915  0.00  0.00    -0.274 OA
BRANCH  18  21
HETATM   21  C           1     -43.941  56.827 -58.851  0.00  0.00     0.148 C 
BRANCH  21  22
HETATM   22  C           1     -43.329  55.755 -59.753  0.00  0.00     0.186 C 
BRANCH  22  23
HETATM   23  O           1     -43.930  55.829 -61.023  0.00  0.00    -0.394 OA
HETATM   24  C           1     -45.098  55.042 -61.107  0.00  0.00     0.201 C 
ENDBRANCH  22  23
ENDBRANCH  21  22
ENDBRANCH  18  21
ENDBRANCH  16  17
ENDBRANCH   4  16
BRANCH  12  25
HETATM   25  C           1     -43.990  60.696 -50.679  0.00  0.00     0.176 C 
BRANCH  25  26
HETATM   26  O           1     -44.690  59.686 -49.982  0.00  0.00    -0.400 OA
HETATM   27  H           1     -44.086  58.979 -49.746  0.00  0.00     0.209 HD
ENDBRANCH  25  26
ENDBRANCH  12  25
BRANCH   8  28
HETATM   28  N           1     -41.101  53.764 -51.160  0.00  0.00    -0.365 N 
HETATM   29  H           1     -41.830  53.209 -50.645  0.00  0.00     0.162 HD
BRANCH  28  30
HETATM   30  C           1     -39.755  53.170 -51.308  0.00  0.00     0.160 C 
BRANCH  30  31
HETATM   31  C           1     -39.810  51.977 -52.236  0.00  0.00    -0.041 A 
HETATM   32  C           1     -39.555  50.739 -51.774  0.00  0.00     0.009 A 
HETATM   33  C           1     -39.575  49.675 -52.591  0.00  0.00     0.001 A 
HETATM   34  C           1     -39.855  49.835 -53.892  0.00  0.00     0.000 A 
HETATM   35  C           1     -40.116  51.062 -54.367  0.00  0.00     0.001 A 
HETATM   36  C           1     -40.091  52.122 -53.544  0.00  0.00     0.009 A 
ENDBRANCH  30  31
ENDBRANCH  28  30
ENDBRANCH   8  28
BRANCH  13  37
HETATM   37  O           1     -46.193  60.172 -52.183  0.00  0.00    -0.395 OA
HETATM   38  H           1     -46.012  60.369 -51.258  0.00  0.00     0.210 HD
ENDBRANCH  13  37
TORSDOF 11
ENDMDL
MODEL 4
REMARK VINA RESULT:      -7.7      2.508      6.141
REMARK  11 active torsions:
REMARK  status: ('A' for Active; 'I' for Inactive)
REMARK    1  A    between atoms: C_1  and  C_7 
REMARK    2  A    between atoms: C_1  and  C_11 
REMARK    3  A    between atoms: C_8  and  C_13 
REMARK    4  A    between atoms: C_8  and  O_14 
REMARK       I    between atoms: C_11  and  N_12 
REMARK    5  A    between atoms: N_12  and  C_13 
REMARK    6  A    between atoms: C_18  and  N_19 
REMARK    7  A    between atoms: N_19  and  C_20 
REMARK    8  A    between atoms: C_20  and  C_21 
REMARK    9  A    between atoms: C_28  and  C_29 
REMARK   10  A    between atoms: C_29  and  O_30 
REMARK   11  A    between atoms: C_31  and  O_32 
ROOT
HETATM    1  C           1     -42.009  58.500 -51.273  0.00  0.00     0.012 A 
HETATM    2  C           1     -45.646  58.247 -51.166  0.00  0.00     0.016 C 
HETATM    3  C           1     -44.735  59.190 -51.995  0.00  0.00    -0.030 C 
HETATM    4  C           1     -43.842  58.300 -52.919  0.00  0.00     0.056 C 
HETATM    5  C           1     -43.697  62.535 -51.882  0.00  0.00     0.020 C 
HETATM    6  C           1     -42.731  57.733 -52.086  0.00  0.00     0.056 A 
HETATM    7  S           1     -41.004  57.692 -50.579  0.00  0.00    -0.055 SA
HETATM    8  C           1     -41.397  56.438 -51.239  0.00  0.00     0.167 A 
HETATM    9  N           1     -42.369  56.528 -52.047  0.00  0.00    -0.228 NA
HETATM   10  C           1     -42.348  59.953 -51.157  0.00  0.00     0.055 C 
HETATM   11  C           1     -43.887  60.092 -51.018  0.00  0.00     0.012 C 
HETATM   12  C           1     -44.330  61.580 -50.839  0.00  0.00     0.008 C 
HETATM   13  C           1     -45.862  61.714 -50.915  0.00  0.00     0.128 C 
HETATM   14  C           1     -46.539  61.028 -52.100  0.00  0.00     0.033 C 
HETATM   15  C           1     -45.642  60.066 -52.883  0.00  0.00     0.013 C 
ENDROOT
BRANCH   4  16
HETATM   16  C           1     -44.525  57.202 -53.760  0.00  0.00     0.114 C 
BRANCH  16  17
HETATM   17  C           1     -44.405  57.424 -55.264  0.00  0.00     0.218 C 
HETATM   18  N           1     -43.261  56.911 -55.814  0.00  0.00    -0.359 N 
HETATM   19  H           1     -42.624  56.397 -55.207  0.00  0.00     0.162 HD
HETATM   20  O           1     -45.243  58.010 -55.905  0.00  0.00    -0.274 OA
BRANCH  18  21
HETATM   21  C           1     -42.903  57.069 -57.229  0.00  0.00     0.148 C 
BRANCH  21  22
HETATM   22  C           1     -43.133  55.742 -57.952  0.00  0.00     0.186 C 
BRANCH  22  23
HETATM   23  O           1     -44.078  55.935 -58.975  0.00  0.00    -0.394 OA
HETATM   24  C           1     -44.308  54.757 -59.718  0.00  0.00     0.201 C 
ENDBRANCH  22  23
ENDBRANCH  21  22
ENDBRANCH  18  21
ENDBRANCH  16  17
ENDBRANCH   4  16
BRANCH  12  25
HETATM   25  C           1     -43.848  62.081 -49.452  0.00  0.00     0.176 C 
BRANCH  25  26
HETATM   26  O           1     -44.041  61.093 -48.460  0.00  0.00    -0.400 OA
HETATM   27  H           1     -44.169  60.238 -48.877  0.00  0.00     0.209 HD
ENDBRANCH  25  26
ENDBRANCH  12  25
BRANCH   8  28
HETATM   28  N           1     -40.767  55.379 -50.944  0.00  0.00    -0.365 N 
HETATM   29  H           1     -39.741  55.458 -50.733  0.00  0.00     0.162 HD
BRANCH  28  30
HETATM   30  C           1     -41.388  54.038 -50.874  0.00  0.00     0.160 C 
BRANCH  30  31
HETATM   31  C           1     -40.842  53.153 -51.972  0.00  0.00    -0.041 A 
HETATM   32  C           1     -39.930  52.203 -51.695  0.00  0.00     0.009 A 
HETATM   33  C           1     -39.418  51.428 -52.662  0.00  0.00     0.001 A 
HETATM   34  C           1     -39.816  51.591 -53.932  0.00  0.00     0.000 A 
HETATM   35  C           1     -40.728  52.530 -54.224  0.00  0.00     0.001 A 
HETATM   36  C           1     -41.234  53.304 -53.251  0.00  0.00     0.009 A 
ENDBRANCH  30  31
ENDBRANCH  28  30
ENDBRANCH   8  28
BRANCH  13  37
HETATM   37  O           1     -46.425  61.254 -49.708  0.00  0.00    -0.395 OA
HETATM   38  H           1     -45.844  61.527 -48.991  0.00  0.00     0.210 HD
ENDBRANCH  13  37
TORSDOF 11
ENDMDL
MODEL 5
REMARK VINA RESULT:      -7.3      2.936      4.008
REMARK  11 active torsions:
REMARK  status: ('A' for Active; 'I' for Inactive)
REMARK    1  A    between atoms: C_1  and  C_7 
REMARK    2  A    between atoms: C_1  and  C_11 
REMARK    3  A    between atoms: C_8  and  C_13 
REMARK    4  A    between atoms: C_8  and  O_14 
REMARK       I    between atoms: C_11  and  N_12 
REMARK    5  A    between atoms: N_12  and  C_13 
REMARK    6  A    between atoms: C_18  and  N_19 
REMARK    7  A    between atoms: N_19  and  C_20 
REMARK    8  A    between atoms: C_20  and  C_21 
REMARK    9  A    between atoms: C_28  and  C_29 
REMARK   10  A    between atoms: C_29  and  O_30 
REMARK   11  A    between atoms: C_31  and  O_32 
ROOT
HETATM    1  C           1     -43.253  56.403 -56.207  0.00  0.00     0.012 A 
HETATM    2  C           1     -41.937  58.960 -58.451  0.00  0.00     0.016 C 
HETATM    3  C           1     -43.266  58.922 -57.650  0.00  0.00    -0.030 C 
HETATM    4  C           1     -42.906  58.849 -56.131  0.00  0.00     0.056 C 
HETATM    5  C           1     -46.652  58.295 -58.297  0.00  0.00     0.020 C 
HETATM    6  C           1     -42.513  57.437 -55.813  0.00  0.00     0.056 A 
HETATM    7  S           1     -42.637  55.148 -55.771  0.00  0.00    -0.055 SA
HETATM    8  C           1     -41.506  55.807 -55.103  0.00  0.00     0.167 A 
HETATM    9  N           1     -41.489  57.073 -55.178  0.00  0.00    -0.228 NA
HETATM   10  C           1     -44.479  56.660 -57.025  0.00  0.00     0.055 C 
HETATM   11  C           1     -44.130  57.692 -58.129  0.00  0.00     0.012 C 
HETATM   12  C           1     -45.345  57.984 -59.068  0.00  0.00     0.008 C 
HETATM   13  C           1     -45.042  59.159 -60.016  0.00  0.00     0.128 C 
HETATM   14  C           1     -44.474  60.419 -59.365  0.00  0.00     0.033 C 
HETATM   15  C           1     -44.017  60.242 -57.915  0.00  0.00     0.013 C 
ENDROOT
BRANCH   4  16
HETATM   16  C           1     -41.876  59.853 -55.573  0.00  0.00     0.114 C 
BRANCH  16  17
HETATM   17  C           1     -42.167  60.292 -54.142  0.00  0.00     0.218 C 
HETATM   18  N           1     -41.518  59.553 -53.190  0.00  0.00    -0.359 N 
HETATM   19  H           1     -40.876  58.824 -53.500  0.00  0.00     0.162 HD
HETATM   20  O           1     -42.913  61.203 -53.879  0.00  0.00    -0.274 OA
BRANCH  18  21
HETATM   21  C           1     -41.703  59.751 -51.747  0.00  0.00     0.148 C 
BRANCH  21  22
HETATM   22  C           1     -41.372  58.448 -51.019  0.00  0.00     0.186 C 
BRANCH  22  23
HETATM   23  O           1     -39.996  58.422 -50.729  0.00  0.00    -0.394 OA
HETATM   24  C           1     -39.503  59.693 -50.362  0.00  0.00     0.201 C 
ENDBRANCH  22  23
ENDBRANCH  21  22
ENDBRANCH  18  21
ENDBRANCH  16  17
ENDBRANCH   4  16
BRANCH  12  25
HETATM   25  C           1     -45.638  56.716 -59.914  0.00  0.00     0.176 C 
BRANCH  25  26
HETATM   26  O           1     -46.857  56.117 -59.526  0.00  0.00    -0.400 OA
HETATM   27  H           1     -46.724  55.605 -58.725  0.00  0.00     0.209 HD
ENDBRANCH  25  26
ENDBRANCH  12  25
BRANCH   8  28
HETATM   28  N           1     -40.637  55.083 -54.532  0.00  0.00    -0.365 N 
HETATM   29  H           1     -39.737  54.899 -55.042  0.00  0.00     0.162 HD
BRANCH  28  30
HETATM   30  C           1     -40.810  54.482 -53.192  0.00  0.00     0.160 C 
BRANCH  30  31
HETATM   31  C           1     -40.420  53.021 -53.221  0.00  0.00    -0.041 A 
HETATM   32  C           1     -39.851  52.443 -52.147  0.00  0.00     0.009 A 
HETATM   33  C           1     -39.477  51.155 -52.167  0.00  0.00     0.001 A 
HETATM   34  C           1     -39.671  50.419 -53.270  0.00  0.00     0.000 A 
HETATM   35  C           1     -40.242  50.978 -54.348  0.00  0.00     0.001 A 
HETATM   36  C           1     -40.611  52.269 -54.321  0.00  0.00     0.009 A 
ENDBRANCH  30  31
ENDBRANCH  28  30
ENDBRANCH   8  28
BRANCH  13  37
HETATM   37  O           1     -44.177  58.715 -61.038  0.00  0.00    -0.395 OA
HETATM   38  H           1     -44.705  58.221 -61.673  0.00  0.00     0.210 HD
ENDBRANCH  13  37
TORSDOF 11
ENDMDL
MODEL 6
REMARK VINA RESULT:      -7.3      1.544      2.006
REMARK  11 active torsions:
REMARK  status: ('A' for Active; 'I' for Inactive)
REMARK    1  A    between atoms: C_1  and  C_7 
REMARK    2  A    between atoms: C_1  and  C_11 
REMARK    3  A    between atoms: C_8  and  C_13 
REMARK    4  A    between atoms: C_8  and  O_14 
REMARK       I    between atoms: C_11  and  N_12 
REMARK    5  A    between atoms: N_12  and  C_13 
REMARK    6  A    between atoms: C_18  and  N_19 
REMARK    7  A    between atoms: N_19  and  C_20 
REMARK    8  A    between atoms: C_20  and  C_21 
REMARK    9  A    between atoms: C_28  and  C_29 
REMARK   10  A    between atoms: C_29  and  O_30 
REMARK   11  A    between atoms: C_31  and  O_32 
ROOT
HETATM    1  C           1     -43.193  55.733 -53.250  0.00  0.00     0.012 A 
HETATM    2  C           1     -41.119  58.643 -53.981  0.00  0.00     0.016 C 
HETATM    3  C           1     -42.658  58.529 -53.821  0.00  0.00    -0.030 C 
HETATM    4  C           1     -42.952  58.030 -52.370  0.00  0.00     0.056 C 
HETATM    5  C           1     -45.470  58.424 -55.910  0.00  0.00     0.020 C 
HETATM    6  C           1     -42.698  56.553 -52.325  0.00  0.00     0.056 A 
HETATM    7  S           1     -42.787  54.354 -52.969  0.00  0.00    -0.055 SA
HETATM    8  C           1     -42.042  54.704 -51.752  0.00  0.00     0.167 A 
HETATM    9  N           1     -42.018  55.939 -51.462  0.00  0.00    -0.228 NA
HETATM   10  C           1     -43.980  56.312 -54.383  0.00  0.00     0.055 C 
HETATM   11  C           1     -43.228  57.556 -54.924  0.00  0.00     0.012 C 
HETATM   12  C           1     -43.956  58.197 -56.149  0.00  0.00     0.008 C 
HETATM   13  C           1     -43.312  59.543 -56.533  0.00  0.00     0.128 C 
HETATM   14  C           1     -43.084  60.530 -55.390  0.00  0.00     0.033 C 
HETATM   15  C           1     -43.258  59.940 -53.988  0.00  0.00     0.013 C 
ENDROOT
BRANCH   4  16
HETATM   16  C           1     -42.259  58.750 -51.194  0.00  0.00     0.114 C 
BRANCH  16  17
HETATM   17  C           1     -43.116  59.839 -50.557  0.00  0.00     0.218 C 
HETATM   18  N           1     -44.442  59.515 -50.453  0.00  0.00    -0.359 N 
HETATM   19  H           1     -44.736  58.586 -50.754  0.00  0.00     0.162 HD
HETATM   20  O           1     -42.661  60.894 -50.189  0.00  0.00    -0.274 OA
BRANCH  18  21
HETATM   21  C           1     -45.462  60.437 -49.937  0.00  0.00     0.148 C 
BRANCH  21  22
HETATM   22  C           1     -46.111  61.168 -51.112  0.00  0.00     0.186 C 
BRANCH  22  23
HETATM   23  O           1     -46.763  62.318 -50.632  0.00  0.00    -0.394 OA
HETATM   24  C           1     -45.945  63.466 -50.707  0.00  0.00     0.201 C 
ENDBRANCH  22  23
ENDBRANCH  21  22
ENDBRANCH  18  21
ENDBRANCH  16  17
ENDBRANCH   4  16
BRANCH  12  25
HETATM   25  C           1     -43.854  57.227 -57.356  0.00  0.00     0.176 C 
BRANCH  25  26
HETATM   26  O           1     -45.096  57.107 -58.017  0.00  0.00    -0.400 OA
HETATM   27  H           1     -45.679  57.817 -57.741  0.00  0.00     0.209 HD
ENDBRANCH  25  26
ENDBRANCH  12  25
BRANCH   8  28
HETATM   28  N           1     -41.470  53.776 -51.107  0.00  0.00    -0.365 N 
HETATM   29  H           1     -42.047  53.223 -50.424  0.00  0.00     0.162 HD
BRANCH  28  30
HETATM   30  C           1     -40.043  53.419 -51.256  0.00  0.00     0.160 C 
BRANCH  30  31
HETATM   31  C           1     -39.910  52.070 -51.927  0.00  0.00    -0.041 A 
HETATM   32  C           1     -39.734  50.956 -51.194  0.00  0.00     0.009 A 
HETATM   33  C           1     -39.588  49.757 -51.776  0.00  0.00     0.001 A 
HETATM   34  C           1     -39.620  49.653 -53.112  0.00  0.00     0.000 A 
HETATM   35  C           1     -39.801  50.753 -53.858  0.00  0.00     0.001 A 
HETATM   36  C           1     -39.943  51.951 -53.268  0.00  0.00     0.009 A 
ENDBRANCH  30  31
ENDBRANCH  28  30
ENDBRANCH   8  28
BRANCH  13  37
HETATM   37  O           1     -42.097  59.296 -57.204  0.00  0.00    -0.395 OA
HETATM   38  H           1     -41.386  59.374 -56.560  0.00  0.00     0.210 HD
ENDBRANCH  13  37
TORSDOF 11
ENDMDL
MODEL 7
REMARK VINA RESULT:      -7.2      2.497      5.845
REMARK  11 active torsions:
REMARK  status: ('A' for Active; 'I' for Inactive)
REMARK    1  A    between atoms: C_1  and  C_7 
REMARK    2  A    between atoms: C_1  and  C_11 
REMARK    3  A    between atoms: C_8  and  C_13 
REMARK    4  A    between atoms: C_8  and  O_14 
REMARK       I    between atoms: C_11  and  N_12 
REMARK    5  A    between atoms: N_12  and  C_13 
REMARK    6  A    between atoms: C_18  and  N_19 
REMARK    7  A    between atoms: N_19  and  C_20 
REMARK    8  A    between atoms: C_20  and  C_21 
REMARK    9  A    between atoms: C_28  and  C_29 
REMARK   10  A    between atoms: C_29  and  O_30 
REMARK   11  A    between atoms: C_31  and  O_32 
ROOT
HETATM    1  C           1     -42.110  58.570 -51.351  0.00  0.00     0.012 A 
HETATM    2  C           1     -45.744  58.313 -51.174  0.00  0.00     0.016 C 
HETATM    3  C           1     -44.851  59.283 -51.991  0.00  0.00    -0.030 C 
HETATM    4  C           1     -43.978  58.425 -52.963  0.00  0.00     0.056 C 
HETATM    5  C           1     -43.809  62.623 -51.789  0.00  0.00     0.020 C 
HETATM    6  C           1     -42.850  57.830 -52.173  0.00  0.00     0.056 A 
HETATM    7  S           1     -41.090  57.740 -50.706  0.00  0.00    -0.055 SA
HETATM    8  C           1     -41.498  56.509 -51.398  0.00  0.00     0.167 A 
HETATM    9  N           1     -42.488  56.625 -52.182  0.00  0.00    -0.228 NA
HETATM   10  C           1     -42.446  60.018 -51.180  0.00  0.00     0.055 C 
HETATM   11  C           1     -43.981  60.152 -51.003  0.00  0.00     0.012 C 
HETATM   12  C           1     -44.419  61.634 -50.765  0.00  0.00     0.008 C 
HETATM   13  C           1     -45.953  61.770 -50.804  0.00  0.00     0.128 C 
HETATM   14  C           1     -46.656  61.123 -51.997  0.00  0.00     0.033 C 
HETATM   15  C           1     -45.776  60.188 -52.830  0.00  0.00     0.013 C 
ENDROOT
BRANCH   4  16
HETATM   16  C           1     -44.679  57.355 -53.825  0.00  0.00     0.114 C 
BRANCH  16  17
HETATM   17  C           1     -44.704  57.691 -55.313  0.00  0.00     0.218 C 
HETATM   18  N           1     -45.956  57.936 -55.808  0.00  0.00    -0.359 N 
HETATM   19  H           1     -46.742  57.922 -55.160  0.00  0.00     0.162 HD
HETATM   20  O           1     -43.705  57.726 -55.988  0.00  0.00    -0.274 OA
BRANCH  18  21
HETATM   21  C           1     -46.225  58.209 -57.226  0.00  0.00     0.148 C 
BRANCH  21  22
HETATM   22  C           1     -46.312  59.721 -57.433  0.00  0.00     0.186 C 
BRANCH  22  23
HETATM   23  O           1     -46.562  59.984 -58.792  0.00  0.00    -0.394 OA
HETATM   24  C           1     -45.827  59.133 -59.644  0.00  0.00     0.201 C 
ENDBRANCH  22  23
ENDBRANCH  21  22
ENDBRANCH  18  21
ENDBRANCH  16  17
ENDBRANCH   4  16
BRANCH  12  25
HETATM   25  C           1     -43.908  62.089 -49.373  0.00  0.00     0.176 C 
BRANCH  25  26
HETATM   26  O           1     -44.073  61.065 -48.413  0.00  0.00    -0.400 OA
HETATM   27  H           1     -43.220  60.674 -48.209  0.00  0.00     0.209 HD
ENDBRANCH  25  26
ENDBRANCH  12  25
BRANCH   8  28
HETATM   28  N           1     -40.863  55.440 -51.152  0.00  0.00    -0.365 N 
HETATM   29  H           1     -39.828  55.510 -50.985  0.00  0.00     0.162 HD
BRANCH  28  30
HETATM   30  C           1     -41.488  54.102 -51.083  0.00  0.00     0.160 C 
BRANCH  30  31
HETATM   31  C           1     -40.781  53.147 -52.019  0.00  0.00    -0.041 A 
HETATM   32  C           1     -40.962  53.236 -53.350  0.00  0.00     0.009 A 
HETATM   33  C           1     -40.362  52.379 -54.190  0.00  0.00     0.001 A 
HETATM   34  C           1     -39.564  51.416 -53.709  0.00  0.00     0.000 A 
HETATM   35  C           1     -39.370  51.318 -52.385  0.00  0.00     0.001 A 
HETATM   36  C           1     -39.975  52.177 -51.550  0.00  0.00     0.009 A 
ENDBRANCH  30  31
ENDBRANCH  28  30
ENDBRANCH   8  28
BRANCH  13  37
HETATM   37  O           1     -46.490  61.269 -49.601  0.00  0.00    -0.395 OA
HETATM   38  H           1     -46.984  60.471 -49.811  0.00  0.00     0.210 HD
ENDBRANCH  13  37
TORSDOF 11
ENDMDL
MODEL 8
REMARK VINA RESULT:      -7.2     16.708     18.732
REMARK  11 active torsions:
REMARK  status: ('A' for Active; 'I' for Inactive)
REMARK    1  A    between atoms: C_1  and  C_7 
REMARK    2  A    between atoms: C_1  and  C_11 
REMARK    3  A    between atoms: C_8  and  C_13 
REMARK    4  A    between atoms: C_8  and  O_14 
REMARK       I    between atoms: C_11  and  N_12 
REMARK    5  A    between atoms: N_12  and  C_13 
REMARK    6  A    between atoms: C_18  and  N_19 
REMARK    7  A    between atoms: N_19  and  C_20 
REMARK    8  A    between atoms: C_20  and  C_21 
REMARK    9  A    between atoms: C_28  and  C_29 
REMARK   10  A    between atoms: C_29  and  O_30 
REMARK   11  A    between atoms: C_31  and  O_32 
ROOT
HETATM    1  C           1     -35.637  39.013 -53.050  0.00  0.00     0.012 A 
HETATM    2  C           1     -36.175  42.398 -54.296  0.00  0.00     0.016 C 
HETATM    3  C           1     -36.858  41.065 -54.702  0.00  0.00    -0.030 C 
HETATM    4  C           1     -37.578  40.493 -53.439  0.00  0.00     0.056 C 
HETATM    5  C           1     -36.664  38.764 -57.338  0.00  0.00     0.020 C 
HETATM    6  C           1     -36.542  39.857 -52.560  0.00  0.00     0.056 A 
HETATM    7  S           1     -34.750  38.550 -51.981  0.00  0.00    -0.055 SA
HETATM    8  C           1     -35.430  39.322 -50.931  0.00  0.00     0.167 A 
HETATM    9  N           1     -36.402  40.037 -51.322  0.00  0.00    -0.228 NA
HETATM   10  C           1     -35.630  38.733 -54.520  0.00  0.00     0.055 C 
HETATM   11  C           1     -35.773  40.077 -55.280  0.00  0.00     0.012 C 
HETATM   12  C           1     -35.722  39.884 -56.831  0.00  0.00     0.008 C 
HETATM   13  C           1     -36.076  41.193 -57.562  0.00  0.00     0.128 C 
HETATM   14  C           1     -37.341  41.907 -57.090  0.00  0.00     0.033 C 
HETATM   15  C           1     -37.920  41.382 -55.773  0.00  0.00     0.013 C 
ENDROOT
BRANCH   4  16
HETATM   16  C           1     -38.493  41.435 -52.629  0.00  0.00     0.114 C 
BRANCH  16  17
HETATM   17  C           1     -39.976  41.098 -52.753  0.00  0.00     0.218 C 
HETATM   18  N           1     -40.445  40.275 -51.765  0.00  0.00    -0.359 N 
HETATM   19  H           1     -39.803  39.999 -51.022  0.00  0.00     0.162 HD
HETATM   20  O           1     -40.665  41.516 -53.651  0.00  0.00    -0.274 OA
BRANCH  18  21
HETATM   21  C           1     -41.821  39.765 -51.724  0.00  0.00     0.148 C 
BRANCH  21  22
HETATM   22  C           1     -42.039  39.029 -50.401  0.00  0.00     0.186 C 
BRANCH  22  23
HETATM   23  O           1     -43.420  38.854 -50.197  0.00  0.00    -0.394 OA
HETATM   24  C           1     -43.710  37.657 -49.508  0.00  0.00     0.201 C 
ENDBRANCH  22  23
ENDBRANCH  21  22
ENDBRANCH  18  21
ENDBRANCH  16  17
ENDBRANCH   4  16
BRANCH  12  25
HETATM   25  C           1     -34.287  39.453 -57.234  0.00  0.00     0.176 C 
BRANCH  25  26
HETATM   26  O           1     -33.316  40.178 -56.507  0.00  0.00    -0.400 OA
HETATM   27  H           1     -32.884  39.597 -55.878  0.00  0.00     0.209 HD
ENDBRANCH  25  26
ENDBRANCH  12  25
BRANCH   8  28
HETATM   28  N           1     -34.994  39.241 -49.745  0.00  0.00    -0.365 N 
HETATM   29  H           1     -35.121  40.073 -49.115  0.00  0.00     0.162 HD
BRANCH  28  30
HETATM   30  C           1     -34.321  38.047 -49.189  0.00  0.00     0.160 C 
BRANCH  30  31
HETATM   31  C           1     -33.139  38.462 -48.342  0.00  0.00    -0.041 A 
HETATM   32  C           1     -32.901  37.864 -47.160  0.00  0.00     0.009 A 
HETATM   33  C           1     -31.872  38.239 -46.386  0.00  0.00     0.001 A 
HETATM   34  C           1     -31.057  39.224 -46.787  0.00  0.00     0.000 A 
HETATM   35  C           1     -31.276  39.827 -47.965  0.00  0.00     0.001 A 
HETATM   36  C           1     -32.310  39.448 -48.733  0.00  0.00     0.009 A 
ENDBRANCH  30  31
ENDBRANCH  28  30
ENDBRANCH   8  28
BRANCH  13  37
HETATM   37  O           1     -34.975  42.071 -57.493  0.00  0.00    -0.395 OA
HETATM   38  H           1     -34.663  42.220 -58.392  0.00  0.00     0.210 HD
ENDBRANCH  13  37
TORSDOF 11
ENDMDL
MODEL 9
REMARK VINA RESULT:      -7.1      3.532      8.114
REMARK  11 active torsions:
REMARK  status: ('A' for Active; 'I' for Inactive)
REMARK    1  A    between atoms: C_1  and  C_7 
REMARK    2  A    between atoms: C_1  and  C_11 
REMARK    3  A    between atoms: C_8  and  C_13 
REMARK    4  A    between atoms: C_8  and  O_14 
REMARK       I    between atoms: C_11  and  N_12 
REMARK    5  A    between atoms: N_12  and  C_13 
REMARK    6  A    between atoms: C_18  and  N_19 
REMARK    7  A    between atoms: N_19  and  C_20 
REMARK    8  A    between atoms: C_20  and  C_21 
REMARK    9  A    between atoms: C_28  and  C_29 
REMARK   10  A    between atoms: C_29  and  O_30 
REMARK   11  A    between atoms: C_31  and  O_32 
ROOT
HETATM    1  C           1     -43.755  57.262 -55.278  0.00  0.00     0.012 A 
HETATM    2  C           1     -40.503  57.531 -53.649  0.00  0.00     0.016 C 
HETATM    3  C           1     -41.765  56.730 -53.232  0.00  0.00    -0.030 C 
HETATM    4  C           1     -42.073  55.698 -54.365  0.00  0.00     0.056 C 
HETATM    5  C           1     -44.371  57.043 -50.910  0.00  0.00     0.020 C 
HETATM    6  C           1     -42.739  56.430 -55.492  0.00  0.00     0.056 A 
HETATM    7  S           1     -44.208  57.841 -56.544  0.00  0.00    -0.055 SA
HETATM    8  C           1     -43.225  57.110 -57.357  0.00  0.00     0.167 A 
HETATM    9  N           1     -42.432  56.360 -56.711  0.00  0.00    -0.228 NA
HETATM   10  C           1     -44.209  57.503 -53.872  0.00  0.00     0.055 C 
HETATM   11  C           1     -42.960  57.729 -52.981  0.00  0.00     0.012 C 
HETATM   12  C           1     -43.343  58.042 -51.498  0.00  0.00     0.008 C 
HETATM   13  C           1     -42.095  58.052 -50.595  0.00  0.00     0.128 C 
HETATM   14  C           1     -41.157  56.854 -50.730  0.00  0.00     0.033 C 
HETATM   15  C           1     -41.431  55.957 -51.940  0.00  0.00     0.013 C 
ENDROOT
BRANCH   4  16
HETATM   16  C           1     -40.919  54.812 -54.881  0.00  0.00     0.114 C 
BRANCH  16  17
HETATM   17  C           1     -41.076  53.338 -54.521  0.00  0.00     0.218 C 
HETATM   18  N           1     -39.952  52.773 -53.984  0.00  0.00    -0.359 N 
HETATM   19  H           1     -39.140  53.370 -53.826  0.00  0.00     0.162 HD
HETATM   20  O           1     -42.101  52.729 -54.706  0.00  0.00    -0.274 OA
BRANCH  18  21
HETATM   21  C           1     -39.852  51.351 -53.629  0.00  0.00     0.148 C 
BRANCH  21  22
HETATM   22  C           1     -39.485  51.232 -52.150  0.00  0.00     0.186 C 
BRANCH  22  23
HETATM   23  O           1     -39.576  52.502 -51.552  0.00  0.00    -0.394 OA
HETATM   24  C           1     -40.430  52.502 -50.428  0.00  0.00     0.201 C 
ENDBRANCH  22  23
ENDBRANCH  21  22
ENDBRANCH  18  21
ENDBRANCH  16  17
ENDBRANCH   4  16
BRANCH  12  25
HETATM   25  C           1     -44.019  59.437 -51.441  0.00  0.00     0.176 C 
BRANCH  25  26
HETATM   26  O           1     -44.081  59.916 -50.113  0.00  0.00    -0.400 OA
HETATM   27  H           1     -44.039  59.178 -49.501  0.00  0.00     0.209 HD
ENDBRANCH  25  26
ENDBRANCH  12  25
BRANCH   8  28
HETATM   28  N           1     -43.224  57.292 -58.610  0.00  0.00    -0.365 N 
HETATM   29  H           1     -42.609  56.675 -59.198  0.00  0.00     0.162 HD
BRANCH  28  30
HETATM   30  C           1     -44.037  58.318 -59.300  0.00  0.00     0.160 C 
BRANCH  30  31
HETATM   31  C           1     -45.252  57.680 -59.934  0.00  0.00    -0.041 A 
HETATM   32  C           1     -45.290  56.354 -60.161  0.00  0.00     0.009 A 
HETATM   33  C           1     -46.351  55.779 -60.747  0.00  0.00     0.001 A 
HETATM   34  C           1     -47.400  56.528 -61.114  0.00  0.00     0.000 A 
HETATM   35  C           1     -47.381  57.850 -60.890  0.00  0.00     0.001 A 
HETATM   36  C           1     -46.315  58.419 -60.306  0.00  0.00     0.009 A 
ENDBRANCH  30  31
ENDBRANCH  28  30
ENDBRANCH   8  28
BRANCH  13  37
HETATM   37  O           1     -41.380  59.248 -50.811  0.00  0.00    -0.395 OA
HETATM   38  H           1     -41.068  59.241 -51.722  0.00  0.00     0.210 HD
ENDBRANCH  13  37
TORSDOF 11
ENDMDL
MODEL 10
REMARK VINA RESULT:      -7.0      2.527      5.560
REMARK  11 active torsions:
REMARK  status: ('A' for Active; 'I' for Inactive)
REMARK    1  A    between atoms: C_1  and  C_7 
REMARK    2  A    between atoms: C_1  and  C_11 
REMARK    3  A    between atoms: C_8  and  C_13 
REMARK    4  A    between atoms: C_8  and  O_14 
REMARK       I    between atoms: C_11  and  N_12 
REMARK    5  A    between atoms: N_12  and  C_13 
REMARK    6  A    between atoms: C_18  and  N_19 
REMARK    7  A    between atoms: N_19  and  C_20 
REMARK    8  A    between atoms: C_20  and  C_21 
REMARK    9  A    between atoms: C_28  and  C_29 
REMARK   10  A    between atoms: C_29  and  O_30 
REMARK   11  A    between atoms: C_31  and  O_32 
ROOT
HETATM    1  C           1     -41.781  58.382 -53.531  0.00  0.00     0.012 A 
HETATM    2  C           1     -45.022  57.820 -51.955  0.00  0.00     0.016 C 
HETATM    3  C           1     -44.513  59.026 -52.789  0.00  0.00    -0.030 C 
HETATM    4  C           1     -44.152  58.500 -54.216  0.00  0.00     0.056 C 
HETATM    5  C           1     -43.362  62.280 -52.187  0.00  0.00     0.020 C 
HETATM    6  C           1     -42.821  57.815 -54.137  0.00  0.00     0.056 A 
HETATM    7  S           1     -40.616  57.496 -53.595  0.00  0.00    -0.055 SA
HETATM    8  C           1     -41.318  56.447 -54.348  0.00  0.00     0.167 A 
HETATM    9  N           1     -42.538  56.679 -54.601  0.00  0.00    -0.228 NA
HETATM   10  C           1     -41.964  59.714 -52.875  0.00  0.00     0.055 C 
HETATM   11  C           1     -43.281  59.686 -52.058  0.00  0.00     0.012 C 
HETATM   12  C           1     -43.528  61.027 -51.292  0.00  0.00     0.008 C 
HETATM   13  C           1     -44.934  61.054 -50.664  0.00  0.00     0.128 C 
HETATM   14  C           1     -46.091  60.671 -51.586  0.00  0.00     0.033 C 
HETATM   15  C           1     -45.669  60.038 -52.915  0.00  0.00     0.013 C 
ENDROOT
BRANCH   4  16
HETATM   16  C           1     -45.186  57.627 -54.957  0.00  0.00     0.114 C 
BRANCH  16  17
HETATM   17  C           1     -45.462  58.088 -56.385  0.00  0.00     0.218 C 
HETATM   18  N           1     -46.552  58.908 -56.504  0.00  0.00    -0.359 N 
HETATM   19  H           1     -47.048  59.176 -55.655  0.00  0.00     0.162 HD
HETATM   20  O           1     -44.782  57.748 -57.322  0.00  0.00    -0.274 OA
BRANCH  18  21
HETATM   21  C           1     -47.045  59.414 -57.791  0.00  0.00     0.148 C 
BRANCH  21  22
HETATM   22  C           1     -47.019  60.943 -57.767  0.00  0.00     0.186 C 
BRANCH  22  23
HETATM   23  O           1     -45.797  61.371 -57.218  0.00  0.00    -0.394 OA
HETATM   24  C           1     -44.858  61.722 -58.212  0.00  0.00     0.201 C 
ENDBRANCH  22  23
ENDBRANCH  21  22
ENDBRANCH  18  21
ENDBRANCH  16  17
ENDBRANCH   4  16
BRANCH  12  25
HETATM   25  C           1     -42.470  61.161 -50.166  0.00  0.00     0.176 C 
BRANCH  25  26
HETATM   26  O           1     -42.140  59.897 -49.626  0.00  0.00    -0.400 OA
HETATM   27  H           1     -42.881  59.297 -49.734  0.00  0.00     0.209 HD
ENDBRANCH  25  26
ENDBRANCH  12  25
BRANCH   8  28
HETATM   28  N           1     -40.677  55.401 -54.665  0.00  0.00    -0.365 N 
HETATM   29  H           1     -39.641  55.486 -54.821  0.00  0.00     0.162 HD
BRANCH  28  30
HETATM   30  C           1     -41.294  54.067 -54.826  0.00  0.00     0.160 C 
BRANCH  30  31
HETATM   31  C           1     -40.665  53.082 -53.867  0.00  0.00    -0.041 A 
HETATM   32  C           1     -40.525  53.390 -52.564  0.00  0.00     0.009 A 
HETATM   33  C           1     -39.945  52.536 -51.707  0.00  0.00     0.001 A 
HETATM   34  C           1     -39.498  51.351 -52.143  0.00  0.00     0.000 A 
HETATM   35  C           1     -39.635  51.026 -53.437  0.00  0.00     0.001 A 
HETATM   36  C           1     -40.213  51.886 -54.289  0.00  0.00     0.009 A 
ENDBRANCH  30  31
ENDBRANCH  28  30
ENDBRANCH   8  28
BRANCH  13  37
HETATM   37  O           1     -44.942  60.234 -49.518  0.00  0.00    -0.395 OA
HETATM   38  H           1     -44.261  60.560 -48.920  0.00  0.00     0.210 HD
ENDBRANCH  13  37
TORSDOF 11
ENDMDL
