MODEL 1
REMARK VINA RESULT:     -10.9      0.000      0.000
REMARK  6 active torsions:
REMARK  status: ('A' for Active; 'I' for Inactive)
REMARK    1  A    between atoms: N_1  and  C_2 
REMARK    2  A    between atoms: C_6  and  C_8 
REMARK    3  A    between atoms: C_13  and  C_18 
REMARK    4  A    between atoms: C_24  and  C_28 
REMARK       I    between atoms: C_28  and  N_30 
REMARK    5  A    between atoms: N_30  and  C_31 
REMARK    6  A    between atoms: C_31  and  C_32 
ROOT
HETATM    1  C   UNL     1     -42.378  60.176 -53.210  1.00  0.00     0.084 C 
HETATM    2  C   UNL     1     -43.649  60.454 -52.408  1.00  0.00     0.188 C 
HETATM    3  O   UNL     1     -44.400  59.275 -52.083  1.00  0.00    -0.350 OA
HETATM    4  C   UNL     1     -43.663  58.213 -51.633  1.00  0.00     0.075 A 
HETATM    5  C   UNL     1     -44.388  57.155 -51.085  1.00  0.00     0.038 A 
HETATM    6  C   UNL     1     -43.733  55.999 -50.648  1.00  0.00     0.020 A 
HETATM    7  C   UNL     1     -42.340  55.905 -50.746  1.00  0.00     0.032 A 
HETATM    8  C   UNL     1     -41.621  56.967 -51.317  1.00  0.00     0.027 A 
HETATM    9  C   UNL     1     -42.277  58.118 -51.778  1.00  0.00    -0.023 A 
HETATM   10  C   UNL     1     -41.483  59.228 -52.409  1.00  0.00     0.056 C 
ENDROOT
BRANCH   1  11
HETATM   11  C   UNL     1     -42.647  59.644 -54.592  1.00  0.00     0.111 A 
HETATM   12  N   UNL     1     -41.763  59.549 -55.568  1.00  0.00    -0.233 NA
HETATM   13  C   UNL     1     -42.424  58.951 -56.612  1.00  0.00     0.085 A 
HETATM   14  C   UNL     1     -41.965  58.593 -57.885  1.00  0.00     0.035 A 
HETATM   15  C   UNL     1     -43.745  58.691 -56.278  1.00  0.00     0.063 A 
HETATM   16  C   UNL     1     -42.859  57.975 -58.777  1.00  0.00     0.016 A 
HETATM   17  C   UNL     1     -44.200  57.707 -58.431  1.00  0.00    -0.005 A 
HETATM   18  C   UNL     1     -44.653  58.084 -57.148  1.00  0.00     0.045 A 
HETATM   19  N   UNL     1     -43.864  59.147 -54.993  1.00  0.00    -0.342 N 
HETATM   20  H   UNL     1     -44.700  59.104 -54.424  1.00  0.00     0.167 HD
BRANCH  17  21
HETATM   21  C   UNL     1     -45.132  57.049 -59.373  1.00  0.00     0.071 A 
HETATM   22  C   UNL     1     -46.474  57.363 -59.443  1.00  0.00     0.052 A 
HETATM   23  C   UNL     1     -47.210  56.671 -60.374  1.00  0.00     0.122 A 
HETATM   24  N   UNL     1     -46.687  55.736 -61.186  1.00  0.00    -0.231 NA
HETATM   25  C   UNL     1     -45.379  55.513 -61.065  1.00  0.00     0.199 A 
HETATM   26  N   UNL     1     -44.578  56.118 -60.185  1.00  0.00    -0.218 NA
BRANCH  25  27
HETATM   27  N   UNL     1     -44.818  54.546 -61.874  1.00  0.00    -0.271 NA
HETATM   28  H   UNL     1     -44.557  53.752 -61.308  1.00  0.00     0.127 HD
HETATM   29  H   UNL     1     -44.097  54.967 -62.443  1.00  0.00     0.127 HD
ENDBRANCH  25  27
ENDBRANCH  17  21
ENDBRANCH   1  11
BRANCH   7  30
HETATM   30  C   UNL     1     -41.577  54.699 -50.306  1.00  0.00     0.251 C 
HETATM   31  O   UNL     1     -41.740  54.255 -49.174  1.00  0.00    -0.268 OA
HETATM   32  N   UNL     1     -40.730  54.124 -51.225  1.00  0.00    -0.353 N 
HETATM   33  H   UNL     1     -40.659  54.482 -52.164  1.00  0.00     0.163 HD
BRANCH  32  34
HETATM   34  C   UNL     1     -39.910  52.978 -50.900  1.00  0.00     0.161 C 
BRANCH  34  35
HETATM   35  C   UNL     1     -39.910  51.990 -52.037  1.00  0.00    -0.041 A 
HETATM   36  C   UNL     1     -40.272  52.405 -53.328  1.00  0.00     0.009 A 
HETATM   37  C   UNL     1     -40.286  51.496 -54.386  1.00  0.00     0.001 A 
HETATM   38  C   UNL     1     -39.949  50.161 -54.162  1.00  0.00     0.000 A 
HETATM   39  C   UNL     1     -39.603  49.735 -52.882  1.00  0.00     0.001 A 
HETATM   40  C   UNL     1     -39.585  50.644 -51.822  1.00  0.00     0.009 A 
ENDBRANCH  34  35
ENDBRANCH  32  34
ENDBRANCH   7  30
TORSDOF 6
ENDMDL
MODEL 2
REMARK VINA RESULT:      -9.9      2.705      9.517
REMARK  6 active torsions:
REMARK  status: ('A' for Active; 'I' for Inactive)
REMARK    1  A    between atoms: N_1  and  C_2 
REMARK    2  A    between atoms: C_6  and  C_8 
REMARK    3  A    between atoms: C_13  and  C_18 
REMARK    4  A    between atoms: C_24  and  C_28 
REMARK       I    between atoms: C_28  and  N_30 
REMARK    5  A    between atoms: N_30  and  C_31 
REMARK    6  A    between atoms: C_31  and  C_32 
ROOT
HETATM    1  C   UNL     1     -43.212  58.755 -53.922  1.00  0.00     0.084 C 
HETATM    2  C   UNL     1     -42.249  59.818 -54.450  1.00  0.00     0.188 C 
HETATM    3  O   UNL     1     -41.556  59.430 -55.646  1.00  0.00    -0.350 OA
HETATM    4  C   UNL     1     -42.329  58.833 -56.606  1.00  0.00     0.075 A 
HETATM    5  C   UNL     1     -41.733  58.675 -57.857  1.00  0.00     0.038 A 
HETATM    6  C   UNL     1     -42.418  58.025 -58.889  1.00  0.00     0.020 A 
HETATM    7  C   UNL     1     -43.713  57.541 -58.674  1.00  0.00     0.032 A 
HETATM    8  C   UNL     1     -44.296  57.688 -57.406  1.00  0.00     0.027 A 
HETATM    9  C   UNL     1     -43.603  58.318 -56.361  1.00  0.00    -0.023 A 
HETATM   10  C   UNL     1     -44.243  58.437 -55.005  1.00  0.00     0.056 C 
ENDROOT
BRANCH   1  11
HETATM   11  C   UNL     1     -42.520  57.509 -53.435  1.00  0.00     0.111 A 
HETATM   12  N   UNL     1     -42.080  57.300 -52.209  1.00  0.00    -0.233 NA
HETATM   13  C   UNL     1     -41.588  56.018 -52.204  1.00  0.00     0.085 A 
HETATM   14  C   UNL     1     -41.018  55.274 -51.165  1.00  0.00     0.035 A 
HETATM   15  C   UNL     1     -41.712  55.435 -53.456  1.00  0.00     0.063 A 
HETATM   16  C   UNL     1     -40.598  53.958 -51.428  1.00  0.00     0.016 A 
HETATM   17  C   UNL     1     -40.731  53.366 -52.702  1.00  0.00    -0.005 A 
HETATM   18  C   UNL     1     -41.297  54.133 -53.744  1.00  0.00     0.045 A 
HETATM   19  N   UNL     1     -42.300  56.404 -54.223  1.00  0.00    -0.342 N 
HETATM   20  H   UNL     1     -42.552  56.316 -55.199  1.00  0.00     0.167 HD
BRANCH  17  21
HETATM   21  C   UNL     1     -40.294  51.979 -52.967  1.00  0.00     0.071 A 
HETATM   22  C   UNL     1     -40.262  51.431 -54.234  1.00  0.00     0.052 A 
HETATM   23  C   UNL     1     -39.824  50.132 -54.321  1.00  0.00     0.122 A 
HETATM   24  N   UNL     1     -39.443  49.405 -53.257  1.00  0.00    -0.231 NA
HETATM   25  C   UNL     1     -39.486  50.021 -52.075  1.00  0.00     0.199 A 
HETATM   26  N   UNL     1     -39.906  51.272 -51.880  1.00  0.00    -0.218 NA
BRANCH  25  27
HETATM   27  N   UNL     1     -39.115  49.293 -50.962  1.00  0.00    -0.271 NA
HETATM   28  H   UNL     1     -38.119  49.382 -50.825  1.00  0.00     0.127 HD
HETATM   29  H   UNL     1     -39.491  48.359 -51.037  1.00  0.00     0.127 HD
ENDBRANCH  25  27
ENDBRANCH  17  21
ENDBRANCH   1  11
BRANCH   7  30
HETATM   30  C   UNL     1     -44.499  56.833 -59.727  1.00  0.00     0.251 C 
HETATM   31  O   UNL     1     -43.932  56.418 -60.734  1.00  0.00    -0.268 OA
HETATM   32  N   UNL     1     -45.843  56.657 -59.495  1.00  0.00    -0.353 N 
HETATM   33  H   UNL     1     -46.268  56.963 -58.634  1.00  0.00     0.163 HD
BRANCH  32  34
HETATM   34  C   UNL     1     -46.711  56.021 -60.461  1.00  0.00     0.161 C 
BRANCH  34  35
HETATM   35  C   UNL     1     -47.554  57.048 -61.169  1.00  0.00    -0.041 A 
HETATM   36  C   UNL     1     -47.490  58.396 -60.784  1.00  0.00     0.009 A 
HETATM   37  C   UNL     1     -48.275  59.354 -61.426  1.00  0.00     0.001 A 
HETATM   38  C   UNL     1     -49.139  58.974 -62.452  1.00  0.00     0.000 A 
HETATM   39  C   UNL     1     -49.222  57.636 -62.833  1.00  0.00     0.001 A 
HETATM   40  C   UNL     1     -48.435  56.676 -62.194  1.00  0.00     0.009 A 
ENDBRANCH  34  35
ENDBRANCH  32  34
ENDBRANCH   7  30
TORSDOF 6
ENDMDL
MODEL 3
REMARK VINA RESULT:      -9.6      2.357      8.359
REMARK  6 active torsions:
REMARK  status: ('A' for Active; 'I' for Inactive)
REMARK    1  A    between atoms: N_1  and  C_2 
REMARK    2  A    between atoms: C_6  and  C_8 
REMARK    3  A    between atoms: C_13  and  C_18 
REMARK    4  A    between atoms: C_24  and  C_28 
REMARK       I    between atoms: C_28  and  N_30 
REMARK    5  A    between atoms: N_30  and  C_31 
REMARK    6  A    between atoms: C_31  and  C_32 
ROOT
HETATM    1  C   UNL     1     -44.054  57.918 -51.450  1.00  0.00     0.084 C 
HETATM    2  C   UNL     1     -43.494  59.298 -51.107  1.00  0.00     0.188 C 
HETATM    3  O   UNL     1     -42.489  59.760 -52.022  1.00  0.00    -0.350 OA
HETATM    4  C   UNL     1     -42.772  59.574 -53.348  1.00  0.00     0.075 A 
HETATM    5  C   UNL     1     -41.933  60.230 -54.249  1.00  0.00     0.038 A 
HETATM    6  C   UNL     1     -42.102  60.059 -55.626  1.00  0.00     0.020 A 
HETATM    7  C   UNL     1     -43.126  59.236 -56.110  1.00  0.00     0.032 A 
HETATM    8  C   UNL     1     -43.951  58.564 -55.195  1.00  0.00     0.027 A 
HETATM    9  C   UNL     1     -43.770  58.715 -53.812  1.00  0.00    -0.023 A 
HETATM   10  C   UNL     1     -44.654  57.961 -52.856  1.00  0.00     0.056 C 
ENDROOT
BRANCH   1  11
HETATM   11  C   UNL     1     -43.042  56.811 -51.316  1.00  0.00     0.111 A 
HETATM   12  N   UNL     1     -42.009  56.804 -50.495  1.00  0.00    -0.233 NA
HETATM   13  C   UNL     1     -41.409  55.580 -50.661  1.00  0.00     0.085 A 
HETATM   14  C   UNL     1     -40.287  55.033 -50.029  1.00  0.00     0.035 A 
HETATM   15  C   UNL     1     -42.076  54.828 -51.615  1.00  0.00     0.063 A 
HETATM   16  C   UNL     1     -39.881  53.733 -50.382  1.00  0.00     0.016 A 
HETATM   17  C   UNL     1     -40.565  52.968 -51.349  1.00  0.00    -0.005 A 
HETATM   18  C   UNL     1     -41.688  53.538 -51.987  1.00  0.00     0.045 A 
HETATM   19  N   UNL     1     -43.105  55.633 -52.023  1.00  0.00    -0.342 N 
HETATM   20  H   UNL     1     -43.808  55.395 -52.710  1.00  0.00     0.167 HD
BRANCH  17  21
HETATM   21  C   UNL     1     -40.136  51.599 -51.707  1.00  0.00     0.071 A 
HETATM   22  C   UNL     1     -39.829  50.638 -50.765  1.00  0.00     0.052 A 
HETATM   23  C   UNL     1     -39.453  49.410 -51.253  1.00  0.00     0.122 A 
HETATM   24  N   UNL     1     -39.376  49.125 -52.564  1.00  0.00    -0.231 NA
HETATM   25  C   UNL     1     -39.710  50.106 -53.402  1.00  0.00     0.199 A 
HETATM   26  N   UNL     1     -40.075  51.335 -53.034  1.00  0.00    -0.218 NA
BRANCH  25  27
HETATM   27  N   UNL     1     -39.624  49.847 -54.755  1.00  0.00    -0.271 NA
HETATM   28  H   UNL     1     -38.653  49.849 -55.031  1.00  0.00     0.127 HD
HETATM   29  H   UNL     1     -40.249  50.467 -55.252  1.00  0.00     0.127 HD
ENDBRANCH  25  27
ENDBRANCH  17  21
ENDBRANCH   1  11
BRANCH   7  30
HETATM   30  C   UNL     1     -43.359  59.002 -57.566  1.00  0.00     0.251 C 
HETATM   31  O   UNL     1     -44.285  59.573 -58.133  1.00  0.00    -0.268 OA
HETATM   32  N   UNL     1     -42.485  58.159 -58.213  1.00  0.00    -0.353 N 
HETATM   33  H   UNL     1     -41.703  57.748 -57.729  1.00  0.00     0.163 HD
BRANCH  32  34
HETATM   34  C   UNL     1     -42.636  57.827 -59.612  1.00  0.00     0.161 C 
BRANCH  34  35
HETATM   35  C   UNL     1     -43.517  56.617 -59.775  1.00  0.00    -0.041 A 
HETATM   36  C   UNL     1     -43.283  55.469 -59.003  1.00  0.00     0.009 A 
HETATM   37  C   UNL     1     -44.086  54.338 -59.154  1.00  0.00     0.001 A 
HETATM   38  C   UNL     1     -45.123  54.339 -60.085  1.00  0.00     0.000 A 
HETATM   39  C   UNL     1     -45.356  55.468 -60.867  1.00  0.00     0.001 A 
HETATM   40  C   UNL     1     -44.555  56.602 -60.716  1.00  0.00     0.009 A 
ENDBRANCH  34  35
ENDBRANCH  32  34
ENDBRANCH   7  30
TORSDOF 6
ENDMDL
MODEL 4
REMARK VINA RESULT:      -8.9      2.834      3.428
REMARK  6 active torsions:
REMARK  status: ('A' for Active; 'I' for Inactive)
REMARK    1  A    between atoms: N_1  and  C_2 
REMARK    2  A    between atoms: C_6  and  C_8 
REMARK    3  A    between atoms: C_13  and  C_18 
REMARK    4  A    between atoms: C_24  and  C_28 
REMARK       I    between atoms: C_28  and  N_30 
REMARK    5  A    between atoms: N_30  and  C_31 
REMARK    6  A    between atoms: C_31  and  C_32 
ROOT
HETATM    1  C   UNL     1     -42.295  60.261 -52.153  1.00  0.00     0.084 C 
HETATM    2  C   UNL     1     -43.710  60.162 -51.583  1.00  0.00     0.188 C 
HETATM    3  O   UNL     1     -44.261  58.837 -51.628  1.00  0.00    -0.350 OA
HETATM    4  C   UNL     1     -43.416  57.835 -51.233  1.00  0.00     0.075 A 
HETATM    5  C   UNL     1     -44.002  56.585 -51.036  1.00  0.00     0.038 A 
HETATM    6  C   UNL     1     -43.216  55.482 -50.687  1.00  0.00     0.020 A 
HETATM    7  C   UNL     1     -41.834  55.631 -50.521  1.00  0.00     0.032 A 
HETATM    8  C   UNL     1     -41.252  56.889 -50.741  1.00  0.00     0.027 A 
HETATM    9  C   UNL     1     -42.034  57.993 -51.114  1.00  0.00    -0.023 A 
HETATM   10  C   UNL     1     -41.377  59.322 -51.370  1.00  0.00     0.056 C 
ENDROOT
BRANCH   1  11
HETATM   11  C   UNL     1     -42.225  59.994 -53.633  1.00  0.00     0.111 A 
HETATM   12  N   UNL     1     -42.291  58.807 -54.206  1.00  0.00    -0.233 NA
HETATM   13  C   UNL     1     -42.256  59.045 -55.558  1.00  0.00     0.085 A 
HETATM   14  C   UNL     1     -42.315  58.151 -56.634  1.00  0.00     0.035 A 
HETATM   15  C   UNL     1     -42.147  60.402 -55.820  1.00  0.00     0.063 A 
HETATM   16  C   UNL     1     -42.268  58.665 -57.942  1.00  0.00     0.016 A 
HETATM   17  C   UNL     1     -42.164  60.047 -58.204  1.00  0.00    -0.005 A 
HETATM   18  C   UNL     1     -42.094  60.936 -57.109  1.00  0.00     0.045 A 
HETATM   19  N   UNL     1     -42.122  60.984 -54.581  1.00  0.00    -0.342 N 
HETATM   20  H   UNL     1     -42.062  61.976 -54.393  1.00  0.00     0.167 HD
BRANCH  17  21
HETATM   21  C   UNL     1     -42.124  60.578 -59.583  1.00  0.00     0.071 A 
HETATM   22  C   UNL     1     -42.181  59.769 -60.701  1.00  0.00     0.052 A 
HETATM   23  C   UNL     1     -42.142  60.411 -61.915  1.00  0.00     0.122 A 
HETATM   24  N   UNL     1     -42.053  61.746 -62.046  1.00  0.00    -0.231 NA
HETATM   25  C   UNL     1     -42.025  62.450 -60.914  1.00  0.00     0.199 A 
HETATM   26  N   UNL     1     -42.044  61.926 -59.687  1.00  0.00    -0.218 NA
BRANCH  25  27
HETATM   27  N   UNL     1     -41.916  63.822 -61.018  1.00  0.00    -0.271 NA
HETATM   28  H   UNL     1     -42.823  64.209 -61.235  1.00  0.00     0.127 HD
HETATM   29  H   UNL     1     -41.154  64.048 -61.640  1.00  0.00     0.127 HD
ENDBRANCH  25  27
ENDBRANCH  17  21
ENDBRANCH   1  11
BRANCH   7  30
HETATM   30  C   UNL     1     -40.935  54.497 -50.157  1.00  0.00     0.251 C 
HETATM   31  O   UNL     1     -40.171  54.608 -49.202  1.00  0.00    -0.268 OA
HETATM   32  N   UNL     1     -41.031  53.352 -50.914  1.00  0.00    -0.353 N 
HETATM   33  H   UNL     1     -41.707  53.275 -51.657  1.00  0.00     0.163 HD
BRANCH  32  34
HETATM   34  C   UNL     1     -40.183  52.205 -50.679  1.00  0.00     0.161 C 
BRANCH  34  35
HETATM   35  C   UNL     1     -39.983  51.429 -51.954  1.00  0.00    -0.041 A 
HETATM   36  C   UNL     1     -39.567  50.090 -51.905  1.00  0.00     0.009 A 
HETATM   37  C   UNL     1     -39.368  49.366 -53.080  1.00  0.00     0.001 A 
HETATM   38  C   UNL     1     -39.572  49.976 -54.317  1.00  0.00     0.000 A 
HETATM   39  C   UNL     1     -39.971  51.309 -54.379  1.00  0.00     0.001 A 
HETATM   40  C   UNL     1     -40.174  52.035 -53.204  1.00  0.00     0.009 A 
ENDBRANCH  34  35
ENDBRANCH  32  34
ENDBRANCH   7  30
TORSDOF 6
ENDMDL
MODEL 5
REMARK VINA RESULT:      -8.6      4.093      8.674
REMARK  6 active torsions:
REMARK  status: ('A' for Active; 'I' for Inactive)
REMARK    1  A    between atoms: N_1  and  C_2 
REMARK    2  A    between atoms: C_6  and  C_8 
REMARK    3  A    between atoms: C_13  and  C_18 
REMARK    4  A    between atoms: C_24  and  C_28 
REMARK       I    between atoms: C_28  and  N_30 
REMARK    5  A    between atoms: N_30  and  C_31 
REMARK    6  A    between atoms: C_31  and  C_32 
ROOT
HETATM    1  C   UNL     1     -40.671  58.711 -51.603  1.00  0.00     0.084 C 
HETATM    2  C   UNL     1     -40.780  57.560 -50.604  1.00  0.00     0.188 C 
HETATM    3  O   UNL     1     -41.879  56.672 -50.859  1.00  0.00    -0.350 OA
HETATM    4  C   UNL     1     -42.050  56.309 -52.168  1.00  0.00     0.075 A 
HETATM    5  C   UNL     1     -42.947  55.266 -52.399  1.00  0.00     0.038 A 
HETATM    6  C   UNL     1     -43.234  54.858 -53.705  1.00  0.00     0.020 A 
HETATM    7  C   UNL     1     -42.611  55.486 -54.789  1.00  0.00     0.032 A 
HETATM    8  C   UNL     1     -41.726  56.548 -54.547  1.00  0.00     0.027 A 
HETATM    9  C   UNL     1     -41.452  56.976 -53.239  1.00  0.00    -0.023 A 
HETATM   10  C   UNL     1     -40.519  58.134 -53.011  1.00  0.00     0.056 C 
ENDROOT
BRANCH   1  11
HETATM   11  C   UNL     1     -41.820  59.681 -51.526  1.00  0.00     0.111 A 
HETATM   12  N   UNL     1     -42.297  60.393 -52.530  1.00  0.00    -0.233 NA
HETATM   13  C   UNL     1     -43.374  61.078 -52.022  1.00  0.00     0.085 A 
HETATM   14  C   UNL     1     -44.258  61.963 -52.649  1.00  0.00     0.035 A 
HETATM   15  C   UNL     1     -43.551  60.794 -50.676  1.00  0.00     0.063 A 
HETATM   16  C   UNL     1     -45.298  62.528 -51.891  1.00  0.00     0.016 A 
HETATM   17  C   UNL     1     -45.479  62.233 -50.524  1.00  0.00    -0.005 A 
HETATM   18  C   UNL     1     -44.572  61.347 -49.901  1.00  0.00     0.045 A 
HETATM   19  N   UNL     1     -42.547  59.911 -50.382  1.00  0.00    -0.342 N 
HETATM   20  H   UNL     1     -42.381  59.480 -49.482  1.00  0.00     0.167 HD
BRANCH  17  21
HETATM   21  C   UNL     1     -46.582  62.825 -49.737  1.00  0.00     0.071 A 
HETATM   22  C   UNL     1     -47.481  63.728 -50.267  1.00  0.00     0.052 A 
HETATM   23  C   UNL     1     -48.456  64.184 -49.413  1.00  0.00     0.122 A 
HETATM   24  N   UNL     1     -48.558  63.797 -48.131  1.00  0.00    -0.231 NA
HETATM   25  C   UNL     1     -47.660  62.907 -47.709  1.00  0.00     0.199 A 
HETATM   26  N   UNL     1     -46.668  62.412 -48.451  1.00  0.00    -0.218 NA
BRANCH  25  27
HETATM   27  N   UNL     1     -47.731  62.504 -46.391  1.00  0.00    -0.271 NA
HETATM   28  H   UNL     1     -46.982  61.853 -46.203  1.00  0.00     0.127 HD
HETATM   29  H   UNL     1     -48.672  62.198 -46.188  1.00  0.00     0.127 HD
ENDBRANCH  25  27
ENDBRANCH  17  21
ENDBRANCH   1  11
BRANCH   7  30
HETATM   30  C   UNL     1     -42.877  55.107 -56.209  1.00  0.00     0.251 C 
HETATM   31  O   UNL     1     -43.341  54.001 -56.466  1.00  0.00    -0.268 OA
HETATM   32  N   UNL     1     -42.603  56.051 -57.172  1.00  0.00    -0.353 N 
HETATM   33  H   UNL     1     -42.273  56.969 -56.922  1.00  0.00     0.163 HD
BRANCH  32  34
HETATM   34  C   UNL     1     -42.783  55.782 -58.581  1.00  0.00     0.161 C 
BRANCH  34  35
HETATM   35  C   UNL     1     -44.168  56.178 -59.020  1.00  0.00    -0.041 A 
HETATM   36  C   UNL     1     -44.786  57.307 -58.462  1.00  0.00     0.009 A 
HETATM   37  C   UNL     1     -46.074  57.676 -58.854  1.00  0.00     0.001 A 
HETATM   38  C   UNL     1     -46.760  56.914 -59.799  1.00  0.00     0.000 A 
HETATM   39  C   UNL     1     -46.161  55.783 -60.349  1.00  0.00     0.001 A 
HETATM   40  C   UNL     1     -44.872  55.413 -59.961  1.00  0.00     0.009 A 
ENDBRANCH  34  35
ENDBRANCH  32  34
ENDBRANCH   7  30
TORSDOF 6
ENDMDL
MODEL 6
REMARK VINA RESULT:      -8.4      4.382      9.435
REMARK  6 active torsions:
REMARK  status: ('A' for Active; 'I' for Inactive)
REMARK    1  A    between atoms: N_1  and  C_2 
REMARK    2  A    between atoms: C_6  and  C_8 
REMARK    3  A    between atoms: C_13  and  C_18 
REMARK    4  A    between atoms: C_24  and  C_28 
REMARK       I    between atoms: C_28  and  N_30 
REMARK    5  A    between atoms: N_30  and  C_31 
REMARK    6  A    between atoms: C_31  and  C_32 
ROOT
HETATM    1  C   UNL     1     -40.810  58.624 -51.283  1.00  0.00     0.084 C 
HETATM    2  C   UNL     1     -41.004  57.275 -50.591  1.00  0.00     0.188 C 
HETATM    3  O   UNL     1     -42.086  56.499 -51.126  1.00  0.00    -0.350 OA
HETATM    4  C   UNL     1     -42.158  56.454 -52.493  1.00  0.00     0.075 A 
HETATM    5  C   UNL     1     -43.042  55.517 -53.027  1.00  0.00     0.038 A 
HETATM    6  C   UNL     1     -43.231  55.431 -54.410  1.00  0.00     0.020 A 
HETATM    7  C   UNL     1     -42.521  56.279 -55.268  1.00  0.00     0.032 A 
HETATM    8  C   UNL     1     -41.649  57.232 -54.719  1.00  0.00     0.027 A 
HETATM    9  C   UNL     1     -41.474  57.337 -53.331  1.00  0.00    -0.023 A 
HETATM   10  C   UNL     1     -40.553  58.387 -52.772  1.00  0.00     0.056 C 
ENDROOT
BRANCH   1  11
HETATM   11  C   UNL     1     -41.954  59.578 -51.066  1.00  0.00     0.111 A 
HETATM   12  N   UNL     1     -42.749  60.056 -52.005  1.00  0.00    -0.233 NA
HETATM   13  C   UNL     1     -43.680  60.824 -51.349  1.00  0.00     0.085 A 
HETATM   14  C   UNL     1     -44.768  61.548 -51.851  1.00  0.00     0.035 A 
HETATM   15  C   UNL     1     -43.442  60.832 -49.983  1.00  0.00     0.063 A 
HETATM   16  C   UNL     1     -45.584  62.252 -50.948  1.00  0.00     0.016 A 
HETATM   17  C   UNL     1     -45.342  62.253 -49.559  1.00  0.00    -0.005 A 
HETATM   18  C   UNL     1     -44.234  61.528 -49.068  1.00  0.00     0.045 A 
HETATM   19  N   UNL     1     -42.336  60.040 -49.828  1.00  0.00    -0.342 N 
HETATM   20  H   UNL     1     -41.888  59.812 -48.950  1.00  0.00     0.167 HD
BRANCH  17  21
HETATM   21  C   UNL     1     -46.211  62.990 -48.616  1.00  0.00     0.071 A 
HETATM   22  C   UNL     1     -45.752  63.509 -47.422  1.00  0.00     0.052 A 
HETATM   23  C   UNL     1     -46.678  64.175 -46.656  1.00  0.00     0.122 A 
HETATM   24  N   UNL     1     -47.963  64.333 -47.017  1.00  0.00    -0.231 NA
HETATM   25  C   UNL     1     -48.313  63.818 -48.196  1.00  0.00     0.199 A 
HETATM   26  N   UNL     1     -47.498  63.143 -49.007  1.00  0.00    -0.218 NA
BRANCH  25  27
HETATM   27  N   UNL     1     -49.631  63.950 -48.584  1.00  0.00    -0.271 NA
HETATM   28  H   UNL     1     -50.229  63.600 -47.849  1.00  0.00     0.127 HD
HETATM   29  H   UNL     1     -49.747  63.551 -49.505  1.00  0.00     0.127 HD
ENDBRANCH  25  27
ENDBRANCH  17  21
ENDBRANCH   1  11
BRANCH   7  30
HETATM   30  C   UNL     1     -42.679  56.247 -56.752  1.00  0.00     0.251 C 
HETATM   31  O   UNL     1     -43.165  55.257 -57.291  1.00  0.00    -0.268 OA
HETATM   32  N   UNL     1     -42.285  57.365 -57.449  1.00  0.00    -0.353 N 
HETATM   33  H   UNL     1     -41.939  58.182 -56.971  1.00  0.00     0.163 HD
BRANCH  32  34
HETATM   34  C   UNL     1     -42.353  57.433 -58.892  1.00  0.00     0.161 C 
BRANCH  34  35
HETATM   35  C   UNL     1     -42.068  58.833 -59.367  1.00  0.00    -0.041 A 
HETATM   36  C   UNL     1     -41.790  59.848 -58.439  1.00  0.00     0.009 A 
HETATM   37  C   UNL     1     -41.535  61.151 -58.868  1.00  0.00     0.001 A 
HETATM   38  C   UNL     1     -41.567  61.455 -60.228  1.00  0.00     0.000 A 
HETATM   39  C   UNL     1     -41.856  60.459 -61.158  1.00  0.00     0.001 A 
HETATM   40  C   UNL     1     -42.108  59.154 -60.731  1.00  0.00     0.009 A 
ENDBRANCH  34  35
ENDBRANCH  32  34
ENDBRANCH   7  30
TORSDOF 6
ENDMDL
MODEL 7
REMARK VINA RESULT:      -8.2      3.080      9.262
REMARK  6 active torsions:
REMARK  status: ('A' for Active; 'I' for Inactive)
REMARK    1  A    between atoms: N_1  and  C_2 
REMARK    2  A    between atoms: C_6  and  C_8 
REMARK    3  A    between atoms: C_13  and  C_18 
REMARK    4  A    between atoms: C_24  and  C_28 
REMARK       I    between atoms: C_28  and  N_30 
REMARK    5  A    between atoms: N_30  and  C_31 
REMARK    6  A    between atoms: C_31  and  C_32 
ROOT
HETATM    1  C   UNL     1     -43.930  59.258 -53.516  1.00  0.00     0.084 C 
HETATM    2  C   UNL     1     -42.759  60.235 -53.419  1.00  0.00     0.188 C 
HETATM    3  O   UNL     1     -42.018  60.377 -54.641  1.00  0.00    -0.350 OA
HETATM    4  C   UNL     1     -42.774  60.504 -55.775  1.00  0.00     0.075 A 
HETATM    5  C   UNL     1     -42.086  60.886 -56.926  1.00  0.00     0.038 A 
HETATM    6  C   UNL     1     -42.757  60.989 -58.149  1.00  0.00     0.020 A 
HETATM    7  C   UNL     1     -44.129  60.722 -58.221  1.00  0.00     0.032 A 
HETATM    8  C   UNL     1     -44.807  60.319 -57.060  1.00  0.00     0.027 A 
HETATM    9  C   UNL     1     -44.134  60.192 -55.836  1.00  0.00    -0.023 A 
HETATM   10  C   UNL     1     -44.882  59.732 -54.615  1.00  0.00     0.056 C 
ENDROOT
BRANCH   1  11
HETATM   11  C   UNL     1     -43.503  57.831 -53.735  1.00  0.00     0.111 A 
HETATM   12  N   UNL     1     -43.850  57.069 -54.755  1.00  0.00    -0.233 NA
HETATM   13  C   UNL     1     -43.180  55.884 -54.579  1.00  0.00     0.085 A 
HETATM   14  C   UNL     1     -43.165  54.729 -55.371  1.00  0.00     0.035 A 
HETATM   15  C   UNL     1     -42.420  55.912 -53.420  1.00  0.00     0.063 A 
HETATM   16  C   UNL     1     -42.373  53.641 -54.963  1.00  0.00     0.016 A 
HETATM   17  C   UNL     1     -41.597  53.676 -53.786  1.00  0.00    -0.005 A 
HETATM   18  C   UNL     1     -41.631  54.842 -52.991  1.00  0.00     0.045 A 
HETATM   19  N   UNL     1     -42.647  57.156 -52.897  1.00  0.00    -0.342 N 
HETATM   20  H   UNL     1     -42.237  57.527 -52.050  1.00  0.00     0.167 HD
BRANCH  17  21
HETATM   21  C   UNL     1     -40.760  52.530 -53.369  1.00  0.00     0.071 A 
HETATM   22  C   UNL     1     -40.119  52.473 -52.148  1.00  0.00     0.052 A 
HETATM   23  C   UNL     1     -39.384  51.339 -51.903  1.00  0.00     0.122 A 
HETATM   24  N   UNL     1     -39.273  50.323 -52.776  1.00  0.00    -0.231 NA
HETATM   25  C   UNL     1     -39.943  50.453 -53.921  1.00  0.00     0.199 A 
HETATM   26  N   UNL     1     -40.673  51.517 -54.263  1.00  0.00    -0.218 NA
BRANCH  25  27
HETATM   27  N   UNL     1     -39.834  49.433 -54.844  1.00  0.00    -0.271 NA
HETATM   28  H   UNL     1     -40.736  49.274 -55.269  1.00  0.00     0.127 HD
HETATM   29  H   UNL     1     -39.380  48.642 -54.412  1.00  0.00     0.127 HD
ENDBRANCH  25  27
ENDBRANCH  17  21
ENDBRANCH   1  11
BRANCH   7  30
HETATM   30  C   UNL     1     -44.905  60.804 -59.493  1.00  0.00     0.251 C 
HETATM   31  O   UNL     1     -44.349  61.172 -60.523  1.00  0.00    -0.268 OA
HETATM   32  N   UNL     1     -46.228  60.430 -59.445  1.00  0.00    -0.353 N 
HETATM   33  H   UNL     1     -46.641  60.082 -58.594  1.00  0.00     0.163 HD
BRANCH  32  34
HETATM   34  C   UNL     1     -47.089  60.507 -60.605  1.00  0.00     0.161 C 
BRANCH  34  35
HETATM   35  C   UNL     1     -47.479  59.127 -61.063  1.00  0.00    -0.041 A 
HETATM   36  C   UNL     1     -46.950  57.997 -60.421  1.00  0.00     0.009 A 
HETATM   37  C   UNL     1     -47.296  56.714 -60.845  1.00  0.00     0.001 A 
HETATM   38  C   UNL     1     -48.165  56.547 -61.922  1.00  0.00     0.000 A 
HETATM   39  C   UNL     1     -48.685  57.661 -62.577  1.00  0.00     0.001 A 
HETATM   40  C   UNL     1     -48.343  58.946 -62.152  1.00  0.00     0.009 A 
ENDBRANCH  34  35
ENDBRANCH  32  34
ENDBRANCH   7  30
TORSDOF 6
ENDMDL
MODEL 8
REMARK VINA RESULT:      -8.1      4.521     10.149
REMARK  6 active torsions:
REMARK  status: ('A' for Active; 'I' for Inactive)
REMARK    1  A    between atoms: N_1  and  C_2 
REMARK    2  A    between atoms: C_6  and  C_8 
REMARK    3  A    between atoms: C_13  and  C_18 
REMARK    4  A    between atoms: C_24  and  C_28 
REMARK       I    between atoms: C_28  and  N_30 
REMARK    5  A    between atoms: N_30  and  C_31 
REMARK    6  A    between atoms: C_31  and  C_32 
ROOT
HETATM    1  C   UNL     1     -43.304  57.586 -58.798  1.00  0.00     0.084 C 
HETATM    2  C   UNL     1     -44.426  56.981 -59.641  1.00  0.00     0.188 C 
HETATM    3  O   UNL     1     -45.721  57.059 -59.026  1.00  0.00    -0.350 OA
HETATM    4  C   UNL     1     -46.026  58.263 -58.451  1.00  0.00     0.075 A 
HETATM    5  C   UNL     1     -47.356  58.437 -58.070  1.00  0.00     0.038 A 
HETATM    6  C   UNL     1     -47.759  59.609 -57.422  1.00  0.00     0.020 A 
HETATM    7  C   UNL     1     -46.828  60.622 -57.164  1.00  0.00     0.032 A 
HETATM    8  C   UNL     1     -45.488  60.429 -57.533  1.00  0.00     0.027 A 
HETATM    9  C   UNL     1     -45.075  59.245 -58.162  1.00  0.00    -0.023 A 
HETATM   10  C   UNL     1     -43.627  59.055 -58.522  1.00  0.00     0.056 C 
ENDROOT
BRANCH   1  11
HETATM   11  C   UNL     1     -43.038  56.831 -57.523  1.00  0.00     0.111 A 
HETATM   12  N   UNL     1     -43.744  56.922 -56.412  1.00  0.00    -0.233 NA
HETATM   13  C   UNL     1     -43.189  56.014 -55.544  1.00  0.00     0.085 A 
HETATM   14  C   UNL     1     -43.551  55.680 -54.234  1.00  0.00     0.035 A 
HETATM   15  C   UNL     1     -42.110  55.366 -56.127  1.00  0.00     0.063 A 
HETATM   16  C   UNL     1     -42.810  54.693 -53.559  1.00  0.00     0.016 A 
HETATM   17  C   UNL     1     -41.718  54.032 -54.159  1.00  0.00    -0.005 A 
HETATM   18  C   UNL     1     -41.356  54.387 -55.476  1.00  0.00     0.045 A 
HETATM   19  N   UNL     1     -42.030  55.907 -57.382  1.00  0.00    -0.342 N 
HETATM   20  H   UNL     1     -41.357  55.655 -58.094  1.00  0.00     0.167 HD
BRANCH  17  21
HETATM   21  C   UNL     1     -40.950  52.989 -53.444  1.00  0.00     0.071 A 
HETATM   22  C   UNL     1     -40.555  53.117 -52.128  1.00  0.00     0.052 A 
HETATM   23  C   UNL     1     -39.855  52.060 -51.600  1.00  0.00     0.122 A 
HETATM   24  N   UNL     1     -39.553  50.950 -52.294  1.00  0.00    -0.231 NA
HETATM   25  C   UNL     1     -39.993  50.902 -53.552  1.00  0.00     0.199 A 
HETATM   26  N   UNL     1     -40.668  51.877 -54.163  1.00  0.00    -0.218 NA
BRANCH  25  27
HETATM   27  N   UNL     1     -39.683  49.781 -54.295  1.00  0.00    -0.271 NA
HETATM   28  H   UNL     1     -39.598  50.041 -55.267  1.00  0.00     0.127 HD
HETATM   29  H   UNL     1     -40.334  49.043 -54.068  1.00  0.00     0.127 HD
ENDBRANCH  25  27
ENDBRANCH  17  21
ENDBRANCH   1  11
BRANCH   7  30
HETATM   30  C   UNL     1     -47.187  61.895 -56.470  1.00  0.00     0.251 C 
HETATM   31  O   UNL     1     -46.393  62.830 -56.466  1.00  0.00    -0.268 OA
HETATM   32  N   UNL     1     -48.429  61.959 -55.881  1.00  0.00    -0.353 N 
HETATM   33  H   UNL     1     -49.078  61.192 -55.949  1.00  0.00     0.163 HD
BRANCH  32  34
HETATM   34  C   UNL     1     -48.869  63.125 -55.148  1.00  0.00     0.161 C 
BRANCH  34  35
HETATM   35  C   UNL     1     -50.012  62.772 -54.234  1.00  0.00    -0.041 A 
HETATM   36  C   UNL     1     -50.101  63.356 -52.961  1.00  0.00     0.009 A 
HETATM   37  C   UNL     1     -51.150  63.026 -52.102  1.00  0.00     0.001 A 
HETATM   38  C   UNL     1     -52.114  62.101 -52.502  1.00  0.00     0.000 A 
HETATM   39  C   UNL     1     -52.027  61.503 -53.758  1.00  0.00     0.001 A 
HETATM   40  C   UNL     1     -50.980  61.834 -54.620  1.00  0.00     0.009 A 
ENDBRANCH  34  35
ENDBRANCH  32  34
ENDBRANCH   7  30
TORSDOF 6
ENDMDL
MODEL 9
REMARK VINA RESULT:      -8.1      4.011     10.481
REMARK  6 active torsions:
REMARK  status: ('A' for Active; 'I' for Inactive)
REMARK    1  A    between atoms: N_1  and  C_2 
REMARK    2  A    between atoms: C_6  and  C_8 
REMARK    3  A    between atoms: C_13  and  C_18 
REMARK    4  A    between atoms: C_24  and  C_28 
REMARK       I    between atoms: C_28  and  N_30 
REMARK    5  A    between atoms: N_30  and  C_31 
REMARK    6  A    between atoms: C_31  and  C_32 
ROOT
HETATM    1  C   UNL     1     -42.152  58.005 -59.616  1.00  0.00     0.084 C 
HETATM    2  C   UNL     1     -42.415  56.627 -60.222  1.00  0.00     0.188 C 
HETATM    3  O   UNL     1     -43.728  56.114 -59.948  1.00  0.00    -0.350 OA
HETATM    4  C   UNL     1     -44.752  57.009 -60.100  1.00  0.00     0.075 A 
HETATM    5  C   UNL     1     -46.040  56.473 -60.079  1.00  0.00     0.038 A 
HETATM    6  C   UNL     1     -47.156  57.309 -60.170  1.00  0.00     0.020 A 
HETATM    7  C   UNL     1     -46.987  58.693 -60.296  1.00  0.00     0.032 A 
HETATM    8  C   UNL     1     -45.688  59.225 -60.296  1.00  0.00     0.027 A 
HETATM    9  C   UNL     1     -44.565  58.391 -60.182  1.00  0.00    -0.023 A 
HETATM   10  C   UNL     1     -43.187  58.992 -60.158  1.00  0.00     0.056 C 
ENDROOT
BRANCH   1  11
HETATM   11  C   UNL     1     -42.127  58.003 -58.111  1.00  0.00     0.111 A 
HETATM   12  N   UNL     1     -42.132  59.073 -57.338  1.00  0.00    -0.233 NA
HETATM   13  C   UNL     1     -42.173  58.600 -56.049  1.00  0.00     0.085 A 
HETATM   14  C   UNL     1     -42.213  59.294 -54.834  1.00  0.00     0.035 A 
HETATM   15  C   UNL     1     -42.175  57.214 -56.030  1.00  0.00     0.063 A 
HETATM   16  C   UNL     1     -42.261  58.557 -53.637  1.00  0.00     0.016 A 
HETATM   17  C   UNL     1     -42.269  57.146 -53.623  1.00  0.00    -0.005 A 
HETATM   18  C   UNL     1     -42.216  56.460 -54.855  1.00  0.00     0.045 A 
HETATM   19  N   UNL     1     -42.138  56.857 -57.351  1.00  0.00    -0.342 N 
HETATM   20  H   UNL     1     -42.141  55.912 -57.711  1.00  0.00     0.167 HD
BRANCH  17  21
HETATM   21  C   UNL     1     -42.328  56.380 -52.359  1.00  0.00     0.071 A 
HETATM   22  C   UNL     1     -41.454  56.592 -51.312  1.00  0.00     0.052 A 
HETATM   23  C   UNL     1     -41.640  55.807 -50.200  1.00  0.00     0.122 A 
HETATM   24  N   UNL     1     -42.606  54.877 -50.102  1.00  0.00    -0.231 NA
HETATM   25  C   UNL     1     -43.418  54.756 -51.152  1.00  0.00     0.199 A 
HETATM   26  N   UNL     1     -43.316  55.457 -52.282  1.00  0.00    -0.218 NA
BRANCH  25  27
HETATM   27  N   UNL     1     -44.409  53.798 -51.086  1.00  0.00    -0.271 NA
HETATM   28  H   UNL     1     -44.451  53.430 -50.146  1.00  0.00     0.127 HD
HETATM   29  H   UNL     1     -44.280  53.135 -51.837  1.00  0.00     0.127 HD
ENDBRANCH  25  27
ENDBRANCH  17  21
ENDBRANCH   1  11
BRANCH   7  30
HETATM   30  C   UNL     1     -48.133  59.645 -60.390  1.00  0.00     0.251 C 
HETATM   31  O   UNL     1     -48.741  59.763 -61.450  1.00  0.00    -0.268 OA
HETATM   32  N   UNL     1     -48.469  60.336 -59.249  1.00  0.00    -0.353 N 
HETATM   33  H   UNL     1     -47.983  60.176 -58.381  1.00  0.00     0.163 HD
BRANCH  32  34
HETATM   34  C   UNL     1     -49.535  61.313 -59.231  1.00  0.00     0.161 C 
BRANCH  34  35
HETATM   35  C   UNL     1     -50.739  60.766 -58.512  1.00  0.00    -0.041 A 
HETATM   36  C   UNL     1     -51.904  60.454 -59.228  1.00  0.00     0.009 A 
HETATM   37  C   UNL     1     -53.029  59.957 -58.569  1.00  0.00     0.001 A 
HETATM   38  C   UNL     1     -53.004  59.778 -57.186  1.00  0.00     0.000 A 
HETATM   39  C   UNL     1     -51.858  60.098 -56.463  1.00  0.00     0.001 A 
HETATM   40  C   UNL     1     -50.729  60.593 -57.120  1.00  0.00     0.009 A 
ENDBRANCH  34  35
ENDBRANCH  32  34
ENDBRANCH   7  30
TORSDOF 6
ENDMDL
MODEL 10
REMARK VINA RESULT:      -8.1      4.332     10.301
REMARK  6 active torsions:
REMARK  status: ('A' for Active; 'I' for Inactive)
REMARK    1  A    between atoms: N_1  and  C_2 
REMARK    2  A    between atoms: C_6  and  C_8 
REMARK    3  A    between atoms: C_13  and  C_18 
REMARK    4  A    between atoms: C_24  and  C_28 
REMARK       I    between atoms: C_28  and  N_30 
REMARK    5  A    between atoms: N_30  and  C_31 
REMARK    6  A    between atoms: C_31  and  C_32 
ROOT
HETATM    1  C   UNL     1     -42.838  57.451 -59.198  1.00  0.00     0.084 C 
HETATM    2  C   UNL     1     -43.803  56.824 -60.204  1.00  0.00     0.188 C 
HETATM    3  O   UNL     1     -45.176  56.849 -59.783  1.00  0.00    -0.350 OA
HETATM    4  C   UNL     1     -45.603  58.032 -59.243  1.00  0.00     0.075 A 
HETATM    5  C   UNL     1     -46.980  58.155 -59.058  1.00  0.00     0.038 A 
HETATM    6  C   UNL     1     -47.514  59.302 -58.460  1.00  0.00     0.020 A 
HETATM    7  C   UNL     1     -46.666  60.340 -58.056  1.00  0.00     0.032 A 
HETATM    8  C   UNL     1     -45.281  60.197 -58.228  1.00  0.00     0.027 A 
HETATM    9  C   UNL     1     -44.740  59.039 -58.806  1.00  0.00    -0.023 A 
HETATM   10  C   UNL     1     -43.249  58.903 -58.953  1.00  0.00     0.056 C 
ENDROOT
BRANCH   1  11
HETATM   11  C   UNL     1     -42.734  56.682 -57.908  1.00  0.00     0.111 A 
HETATM   12  N   UNL     1     -43.221  55.475 -57.688  1.00  0.00    -0.233 NA
HETATM   13  C   UNL     1     -42.835  55.145 -56.412  1.00  0.00     0.085 A 
HETATM   14  C   UNL     1     -43.061  53.977 -55.674  1.00  0.00     0.035 A 
HETATM   15  C   UNL     1     -42.113  56.176 -55.831  1.00  0.00     0.063 A 
HETATM   16  C   UNL     1     -42.540  53.890 -54.371  1.00  0.00     0.016 A 
HETATM   17  C   UNL     1     -41.800  54.939 -53.786  1.00  0.00    -0.005 A 
HETATM   18  C   UNL     1     -41.590  56.115 -54.537  1.00  0.00     0.045 A 
HETATM   19  N   UNL     1     -42.068  57.144 -56.798  1.00  0.00    -0.342 N 
HETATM   20  H   UNL     1     -41.603  58.039 -56.720  1.00  0.00     0.167 HD
BRANCH  17  21
HETATM   21  C   UNL     1     -41.248  54.835 -52.418  1.00  0.00     0.071 A 
HETATM   22  C   UNL     1     -40.522  53.744 -51.983  1.00  0.00     0.052 A 
HETATM   23  C   UNL     1     -40.069  53.797 -50.687  1.00  0.00     0.122 A 
HETATM   24  N   UNL     1     -40.299  54.833 -49.862  1.00  0.00    -0.231 NA
HETATM   25  C   UNL     1     -40.990  55.852 -50.373  1.00  0.00     0.199 A 
HETATM   26  N   UNL     1     -41.485  55.895 -51.611  1.00  0.00    -0.218 NA
BRANCH  25  27
HETATM   27  N   UNL     1     -41.255  56.923 -49.544  1.00  0.00    -0.271 NA
HETATM   28  H   UNL     1     -41.834  56.611 -48.777  1.00  0.00     0.127 HD
HETATM   29  H   UNL     1     -41.597  57.695 -50.098  1.00  0.00     0.127 HD
ENDBRANCH  25  27
ENDBRANCH  17  21
ENDBRANCH   1  11
BRANCH   7  30
HETATM   30  C   UNL     1     -47.166  61.587 -57.406  1.00  0.00     0.251 C 
HETATM   31  O   UNL     1     -46.955  62.675 -57.933  1.00  0.00    -0.268 OA
HETATM   32  N   UNL     1     -47.875  61.443 -56.235  1.00  0.00    -0.353 N 
HETATM   33  H   UNL     1     -48.076  60.532 -55.857  1.00  0.00     0.163 HD
BRANCH  32  34
HETATM   34  C   UNL     1     -48.373  62.582 -55.496  1.00  0.00     0.161 C 
BRANCH  34  35
HETATM   35  C   UNL     1     -49.667  62.238 -54.808  1.00  0.00    -0.041 A 
HETATM   36  C   UNL     1     -50.759  61.772 -55.555  1.00  0.00     0.009 A 
HETATM   37  C   UNL     1     -51.966  61.460 -54.928  1.00  0.00     0.001 A 
HETATM   38  C   UNL     1     -52.097  61.622 -53.549  1.00  0.00     0.000 A 
HETATM   39  C   UNL     1     -51.024  62.099 -52.799  1.00  0.00     0.001 A 
HETATM   40  C   UNL     1     -49.814  62.408 -53.424  1.00  0.00     0.009 A 
ENDBRANCH  34  35
ENDBRANCH  32  34
ENDBRANCH   7  30
TORSDOF 6
ENDMDL
