MODEL 1
REMARK VINA RESULT:      -8.5      0.000      0.000
REMARK  3 active torsions:
REMARK  status: ('A' for Active; 'I' for Inactive)
REMARK    1  A    between atoms: C_9  and  N_10 
REMARK       I    between atoms: N_10  and  C_11 
REMARK    2  A    between atoms: C_11  and  C_12 
REMARK    3  A    between atoms: C_15  and  C_16 
REMARK       I    between atoms: C_16  and  N_17 
ROOT
HETATM    1  N   UNL     1     -41.449  54.696 -55.212  1.00  0.00    -0.322 N 
HETATM    2  C   UNL     1     -42.691  54.703 -55.825  1.00  0.00     0.263 C 
HETATM    3  O   UNL     1     -43.612  53.940 -55.547  1.00  0.00    -0.267 OA
HETATM    4  H   UNL     1     -40.794  55.386 -55.559  1.00  0.00     0.169 HD
ENDROOT
BRANCH   1   5
HETATM    5  C   UNL     1     -40.991  53.868 -54.169  1.00  0.00     0.035 A 
HETATM    6  C   UNL     1     -40.799  54.296 -52.857  1.00  0.00     0.030 A 
HETATM    7  C   UNL     1     -40.331  53.407 -51.882  1.00  0.00     0.014 A 
HETATM    8  C   UNL     1     -40.045  52.073 -52.200  1.00  0.00    -0.026 A 
HETATM    9  C   UNL     1     -39.570  51.173 -51.232  1.00  0.00     0.012 A 
HETATM   10  C   UNL     1     -40.237  51.627 -53.525  1.00  0.00    -0.024 A 
HETATM   11  C   UNL     1     -39.289  49.848 -51.567  1.00  0.00     0.001 A 
HETATM   12  C   UNL     1     -39.479  49.407 -52.873  1.00  0.00     0.001 A 
HETATM   13  C   UNL     1     -39.951  50.289 -53.846  1.00  0.00     0.012 A 
HETATM   14  C   UNL     1     -40.709  52.533 -54.493  1.00  0.00     0.042 A 
ENDBRANCH   1   5
BRANCH   2  15
HETATM   15  C   UNL     1     -42.852  55.720 -56.867  1.00  0.00     0.073 A 
HETATM   16  S   UNL     1     -42.422  57.360 -56.638  1.00  0.00    -0.096 SA
HETATM   17  C   UNL     1     -42.914  57.781 -58.216  1.00  0.00     0.067 A 
HETATM   18  C   UNL     1     -43.405  56.709 -58.942  1.00  0.00     0.039 A 
HETATM   19  C   UNL     1     -43.358  55.517 -58.140  1.00  0.00     0.042 A 
BRANCH  18  20
HETATM   20  C   UNL     1     -43.878  56.868 -60.314  1.00  0.00     0.249 C 
HETATM   21  N   UNL     1     -44.192  58.136 -60.706  1.00  0.00    -0.366 N 
HETATM   22  H   UNL     1     -44.125  58.945 -60.110  1.00  0.00     0.159 HD
HETATM   23  H   UNL     1     -44.523  58.257 -61.653  1.00  0.00     0.159 HD
HETATM   24  O   UNL     1     -43.997  55.931 -61.098  1.00  0.00    -0.268 OA
ENDBRANCH  18  20
ENDBRANCH   2  15
TORSDOF 3
ENDMDL
MODEL 2
REMARK VINA RESULT:      -8.2      1.677      2.164
REMARK  3 active torsions:
REMARK  status: ('A' for Active; 'I' for Inactive)
REMARK    1  A    between atoms: C_9  and  N_10 
REMARK       I    between atoms: N_10  and  C_11 
REMARK    2  A    between atoms: C_11  and  C_12 
REMARK    3  A    between atoms: C_15  and  C_16 
REMARK       I    between atoms: C_16  and  N_17 
ROOT
HETATM    1  N   UNL     1     -42.719  55.129 -56.266  1.00  0.00    -0.322 N 
HETATM    2  C   UNL     1     -42.614  56.417 -56.764  1.00  0.00     0.263 C 
HETATM    3  O   UNL     1     -42.160  57.371 -56.140  1.00  0.00    -0.267 OA
HETATM    4  H   UNL     1     -43.121  54.452 -56.904  1.00  0.00     0.169 HD
ENDROOT
BRANCH   1   5
HETATM    5  C   UNL     1     -42.329  54.641 -55.004  1.00  0.00     0.035 A 
HETATM    6  C   UNL     1     -42.869  55.077 -53.796  1.00  0.00     0.030 A 
HETATM    7  C   UNL     1     -42.417  54.546 -52.582  1.00  0.00     0.014 A 
HETATM    8  C   UNL     1     -41.413  53.568 -52.554  1.00  0.00    -0.026 A 
HETATM    9  C   UNL     1     -40.946  53.030 -51.343  1.00  0.00     0.012 A 
HETATM   10  C   UNL     1     -40.859  53.117 -53.771  1.00  0.00    -0.024 A 
HETATM   11  C   UNL     1     -39.946  52.058 -51.333  1.00  0.00     0.001 A 
HETATM   12  C   UNL     1     -39.400  51.611 -52.533  1.00  0.00     0.001 A 
HETATM   13  C   UNL     1     -39.853  52.136 -53.744  1.00  0.00     0.012 A 
HETATM   14  C   UNL     1     -41.326  53.661 -54.981  1.00  0.00     0.042 A 
ENDBRANCH   1   5
BRANCH   2  15
HETATM   15  C   UNL     1     -43.093  56.581 -58.138  1.00  0.00     0.073 A 
HETATM   16  S   UNL     1     -42.584  57.863 -59.150  1.00  0.00    -0.096 SA
HETATM   17  C   UNL     1     -43.562  57.324 -60.441  1.00  0.00     0.067 A 
HETATM   18  C   UNL     1     -44.283  56.181 -60.141  1.00  0.00     0.039 A 
HETATM   19  C   UNL     1     -43.995  55.762 -58.797  1.00  0.00     0.042 A 
BRANCH  18  20
HETATM   20  C   UNL     1     -45.181  55.566 -61.116  1.00  0.00     0.249 C 
HETATM   21  N   UNL     1     -46.438  56.087 -61.198  1.00  0.00    -0.366 N 
HETATM   22  H   UNL     1     -46.773  56.848 -60.631  1.00  0.00     0.159 HD
HETATM   23  H   UNL     1     -47.068  55.667 -61.868  1.00  0.00     0.159 HD
HETATM   24  O   UNL     1     -44.850  54.630 -61.837  1.00  0.00    -0.268 OA
ENDBRANCH  18  20
ENDBRANCH   2  15
TORSDOF 3
ENDMDL
MODEL 3
REMARK VINA RESULT:      -8.1      1.966      2.251
REMARK  3 active torsions:
REMARK  status: ('A' for Active; 'I' for Inactive)
REMARK    1  A    between atoms: C_9  and  N_10 
REMARK       I    between atoms: N_10  and  C_11 
REMARK    2  A    between atoms: C_11  and  C_12 
REMARK    3  A    between atoms: C_15  and  C_16 
REMARK       I    between atoms: C_16  and  N_17 
ROOT
HETATM    1  N   UNL     1     -41.226  55.238 -55.361  1.00  0.00    -0.322 N 
HETATM    2  C   UNL     1     -42.460  55.825 -55.585  1.00  0.00     0.263 C 
HETATM    3  O   UNL     1     -43.473  55.592 -54.932  1.00  0.00    -0.267 OA
HETATM    4  H   UNL     1     -40.489  55.532 -55.991  1.00  0.00     0.169 HD
ENDROOT
BRANCH   1   5
HETATM    5  C   UNL     1     -40.866  54.303 -54.371  1.00  0.00     0.035 A 
HETATM    6  C   UNL     1     -40.736  54.608 -53.018  1.00  0.00     0.030 A 
HETATM    7  C   UNL     1     -40.364  53.618 -52.100  1.00  0.00     0.014 A 
HETATM    8  C   UNL     1     -40.115  52.303 -52.518  1.00  0.00    -0.026 A 
HETATM    9  C   UNL     1     -39.738  51.303 -51.608  1.00  0.00     0.012 A 
HETATM   10  C   UNL     1     -40.247  51.982 -53.886  1.00  0.00    -0.024 A 
HETATM   11  C   UNL     1     -39.493  50.000 -52.042  1.00  0.00     0.001 A 
HETATM   12  C   UNL     1     -39.623  49.681 -53.391  1.00  0.00     0.001 A 
HETATM   13  C   UNL     1     -39.998  50.665 -54.307  1.00  0.00     0.012 A 
HETATM   14  C   UNL     1     -40.621  52.989 -54.795  1.00  0.00     0.042 A 
ENDBRANCH   1   5
BRANCH   2  15
HETATM   15  C   UNL     1     -42.487  56.786 -56.690  1.00  0.00     0.073 A 
HETATM   16  S   UNL     1     -43.009  56.372 -58.266  1.00  0.00    -0.096 SA
HETATM   17  C   UNL     1     -42.723  57.950 -58.850  1.00  0.00     0.067 A 
HETATM   18  C   UNL     1     -42.236  58.812 -57.881  1.00  0.00     0.039 A 
HETATM   19  C   UNL     1     -42.108  58.116 -56.630  1.00  0.00     0.042 A 
BRANCH  18  20
HETATM   20  C   UNL     1     -41.927  60.207 -58.186  1.00  0.00     0.249 C 
HETATM   21  N   UNL     1     -42.804  60.860 -59.000  1.00  0.00    -0.366 N 
HETATM   22  H   UNL     1     -43.627  60.439 -59.399  1.00  0.00     0.159 HD
HETATM   23  H   UNL     1     -42.598  61.825 -59.220  1.00  0.00     0.159 HD
HETATM   24  O   UNL     1     -40.939  60.788 -57.748  1.00  0.00    -0.268 OA
ENDBRANCH  18  20
ENDBRANCH   2  15
TORSDOF 3
ENDMDL
MODEL 4
REMARK VINA RESULT:      -7.8      4.214      5.538
REMARK  3 active torsions:
REMARK  status: ('A' for Active; 'I' for Inactive)
REMARK    1  A    between atoms: C_9  and  N_10 
REMARK       I    between atoms: N_10  and  C_11 
REMARK    2  A    between atoms: C_11  and  C_12 
REMARK    3  A    between atoms: C_15  and  C_16 
REMARK       I    between atoms: C_16  and  N_17 
ROOT
HETATM    1  N   UNL     1     -41.042  55.602 -53.063  1.00  0.00    -0.322 N 
HETATM    2  C   UNL     1     -42.101  56.130 -52.344  1.00  0.00     0.263 C 
HETATM    3  O   UNL     1     -42.954  55.462 -51.765  1.00  0.00    -0.267 OA
HETATM    4  H   UNL     1     -40.426  56.286 -53.487  1.00  0.00     0.169 HD
ENDROOT
BRANCH   1   5
HETATM    5  C   UNL     1     -40.707  54.249 -53.266  1.00  0.00     0.035 A 
HETATM    6  C   UNL     1     -40.636  53.640 -54.517  1.00  0.00     0.030 A 
HETATM    7  C   UNL     1     -40.304  52.285 -54.630  1.00  0.00     0.014 A 
HETATM    8  C   UNL     1     -40.037  51.511 -53.492  1.00  0.00    -0.026 A 
HETATM    9  C   UNL     1     -39.708  50.150 -53.590  1.00  0.00     0.012 A 
HETATM   10  C   UNL     1     -40.104  52.118 -52.219  1.00  0.00    -0.024 A 
HETATM   11  C   UNL     1     -39.447  49.395 -52.447  1.00  0.00     0.001 A 
HETATM   12  C   UNL     1     -39.511  49.991 -51.191  1.00  0.00     0.001 A 
HETATM   13  C   UNL     1     -39.837  51.344 -51.077  1.00  0.00     0.012 A 
HETATM   14  C   UNL     1     -40.438  53.481 -52.124  1.00  0.00     0.042 A 
ENDBRANCH   1   5
BRANCH   2  15
HETATM   15  C   UNL     1     -42.146  57.593 -52.307  1.00  0.00     0.073 A 
HETATM   16  S   UNL     1     -41.325  58.576 -53.441  1.00  0.00    -0.096 SA
HETATM   17  C   UNL     1     -41.874  60.011 -52.700  1.00  0.00     0.067 A 
HETATM   18  C   UNL     1     -42.679  59.784 -51.596  1.00  0.00     0.039 A 
HETATM   19  C   UNL     1     -42.828  58.370 -51.385  1.00  0.00     0.042 A 
BRANCH  18  20
HETATM   20  C   UNL     1     -43.246  60.887 -50.824  1.00  0.00     0.249 C 
HETATM   21  N   UNL     1     -43.594  60.610 -49.535  1.00  0.00    -0.366 N 
HETATM   22  H   UNL     1     -43.492  59.707 -49.102  1.00  0.00     0.159 HD
HETATM   23  H   UNL     1     -43.990  61.366 -48.993  1.00  0.00     0.159 HD
HETATM   24  O   UNL     1     -43.411  62.013 -51.282  1.00  0.00    -0.268 OA
ENDBRANCH  18  20
ENDBRANCH   2  15
TORSDOF 3
ENDMDL
MODEL 5
REMARK VINA RESULT:      -7.8      3.900      4.178
REMARK  3 active torsions:
REMARK  status: ('A' for Active; 'I' for Inactive)
REMARK    1  A    between atoms: C_9  and  N_10 
REMARK       I    between atoms: N_10  and  C_11 
REMARK    2  A    between atoms: C_11  and  C_12 
REMARK    3  A    between atoms: C_15  and  C_16 
REMARK       I    between atoms: C_16  and  N_17 
ROOT
HETATM    1  N   UNL     1     -41.341  55.644 -52.569  1.00  0.00    -0.322 N 
HETATM    2  C   UNL     1     -42.353  56.325 -51.912  1.00  0.00     0.263 C 
HETATM    3  O   UNL     1     -43.023  55.863 -50.993  1.00  0.00    -0.267 OA
HETATM    4  H   UNL     1     -40.886  56.162 -53.311  1.00  0.00     0.169 HD
ENDROOT
BRANCH   1   5
HETATM    5  C   UNL     1     -40.862  54.341 -52.331  1.00  0.00     0.035 A 
HETATM    6  C   UNL     1     -40.412  53.888 -51.093  1.00  0.00     0.030 A 
HETATM    7  C   UNL     1     -39.942  52.578 -50.945  1.00  0.00     0.014 A 
HETATM    8  C   UNL     1     -39.913  51.695 -52.033  1.00  0.00    -0.026 A 
HETATM    9  C   UNL     1     -39.439  50.379 -51.899  1.00  0.00     0.012 A 
HETATM   10  C   UNL     1     -40.369  52.142 -53.291  1.00  0.00    -0.024 A 
HETATM   11  C   UNL     1     -39.417  49.515 -52.993  1.00  0.00     0.001 A 
HETATM   12  C   UNL     1     -39.867  49.954 -54.235  1.00  0.00     0.001 A 
HETATM   13  C   UNL     1     -40.341  51.258 -54.384  1.00  0.00     0.012 A 
HETATM   14  C   UNL     1     -40.838  53.462 -53.422  1.00  0.00     0.042 A 
ENDBRANCH   1   5
BRANCH   2  15
HETATM   15  C   UNL     1     -42.585  57.688 -52.394  1.00  0.00     0.073 A 
HETATM   16  S   UNL     1     -43.479  58.846 -51.508  1.00  0.00    -0.096 SA
HETATM   17  C   UNL     1     -43.270  60.034 -52.716  1.00  0.00     0.067 A 
HETATM   18  C   UNL     1     -42.530  59.589 -53.798  1.00  0.00     0.039 A 
HETATM   19  C   UNL     1     -42.137  58.222 -53.591  1.00  0.00     0.042 A 
BRANCH  18  20
HETATM   20  C   UNL     1     -42.243  60.459 -54.936  1.00  0.00     0.249 C 
HETATM   21  N   UNL     1     -42.689  61.745 -54.846  1.00  0.00    -0.366 N 
HETATM   22  H   UNL     1     -43.200  62.113 -54.060  1.00  0.00     0.159 HD
HETATM   23  H   UNL     1     -42.498  62.354 -55.630  1.00  0.00     0.159 HD
HETATM   24  O   UNL     1     -41.636  60.083 -55.934  1.00  0.00    -0.268 OA
ENDBRANCH  18  20
ENDBRANCH   2  15
TORSDOF 3
ENDMDL
MODEL 6
REMARK VINA RESULT:      -7.6      4.971      5.823
REMARK  3 active torsions:
REMARK  status: ('A' for Active; 'I' for Inactive)
REMARK    1  A    between atoms: C_9  and  N_10 
REMARK       I    between atoms: N_10  and  C_11 
REMARK    2  A    between atoms: C_11  and  C_12 
REMARK    3  A    between atoms: C_15  and  C_16 
REMARK       I    between atoms: C_16  and  N_17 
ROOT
HETATM    1  N   UNL     1     -42.044  56.539 -51.644  1.00  0.00    -0.322 N 
HETATM    2  C   UNL     1     -43.329  56.823 -51.214  1.00  0.00     0.263 C 
HETATM    3  O   UNL     1     -44.124  55.988 -50.791  1.00  0.00    -0.267 OA
HETATM    4  H   UNL     1     -41.514  57.339 -51.970  1.00  0.00     0.169 HD
ENDROOT
BRANCH   1   5
HETATM    5  C   UNL     1     -41.383  55.296 -51.674  1.00  0.00     0.035 A 
HETATM    6  C   UNL     1     -40.660  54.768 -50.606  1.00  0.00     0.030 A 
HETATM    7  C   UNL     1     -40.025  53.526 -50.724  1.00  0.00     0.014 A 
HETATM    8  C   UNL     1     -40.099  52.788 -51.913  1.00  0.00    -0.026 A 
HETATM    9  C   UNL     1     -39.462  51.544 -52.046  1.00  0.00     0.012 A 
HETATM   10  C   UNL     1     -40.830  53.312 -53.001  1.00  0.00    -0.024 A 
HETATM   11  C   UNL     1     -39.545  50.824 -53.238  1.00  0.00     0.001 A 
HETATM   12  C   UNL     1     -40.267  51.338 -54.311  1.00  0.00     0.001 A 
HETATM   13  C   UNL     1     -40.905  52.574 -54.195  1.00  0.00     0.012 A 
HETATM   14  C   UNL     1     -41.463  54.561 -52.866  1.00  0.00     0.042 A 
ENDBRANCH   1   5
BRANCH   2  15
HETATM   15  C   UNL     1     -43.701  58.237 -51.290  1.00  0.00     0.073 A 
HETATM   16  S   UNL     1     -42.548  59.497 -51.383  1.00  0.00    -0.096 SA
HETATM   17  C   UNL     1     -43.759  60.697 -51.423  1.00  0.00     0.067 A 
HETATM   18  C   UNL     1     -45.043  60.182 -51.369  1.00  0.00     0.039 A 
HETATM   19  C   UNL     1     -44.989  58.747 -51.295  1.00  0.00     0.042 A 
BRANCH  18  20
HETATM   20  C   UNL     1     -46.217  61.051 -51.389  1.00  0.00     0.249 C 
HETATM   21  N   UNL     1     -47.130  60.816 -52.374  1.00  0.00    -0.366 N 
HETATM   22  H   UNL     1     -47.035  60.100 -53.075  1.00  0.00     0.159 HD
HETATM   23  H   UNL     1     -47.945  61.414 -52.399  1.00  0.00     0.159 HD
HETATM   24  O   UNL     1     -46.401  61.952 -50.577  1.00  0.00    -0.268 OA
ENDBRANCH  18  20
ENDBRANCH   2  15
TORSDOF 3
ENDMDL
MODEL 7
REMARK VINA RESULT:      -7.4      1.692      2.863
REMARK  3 active torsions:
REMARK  status: ('A' for Active; 'I' for Inactive)
REMARK    1  A    between atoms: C_9  and  N_10 
REMARK       I    between atoms: N_10  and  C_11 
REMARK    2  A    between atoms: C_11  and  C_12 
REMARK    3  A    between atoms: C_15  and  C_16 
REMARK       I    between atoms: C_16  and  N_17 
ROOT
HETATM    1  N   UNL     1     -41.639  55.631 -54.775  1.00  0.00    -0.322 N 
HETATM    2  C   UNL     1     -42.909  55.986 -55.195  1.00  0.00     0.263 C 
HETATM    3  O   UNL     1     -43.947  55.696 -54.606  1.00  0.00    -0.267 OA
HETATM    4  H   UNL     1     -40.885  55.942 -55.375  1.00  0.00     0.169 HD
ENDROOT
BRANCH   1   5
HETATM    5  C   UNL     1     -41.265  54.910 -53.624  1.00  0.00     0.035 A 
HETATM    6  C   UNL     1     -40.726  53.626 -53.646  1.00  0.00     0.030 A 
HETATM    7  C   UNL     1     -40.390  52.976 -52.452  1.00  0.00     0.014 A 
HETATM    8  C   UNL     1     -40.588  53.600 -51.212  1.00  0.00    -0.026 A 
HETATM    9  C   UNL     1     -40.260  52.958 -50.007  1.00  0.00     0.012 A 
HETATM   10  C   UNL     1     -41.131  54.901 -51.177  1.00  0.00    -0.024 A 
HETATM   11  C   UNL     1     -40.464  53.593 -48.782  1.00  0.00     0.001 A 
HETATM   12  C   UNL     1     -40.999  54.877 -48.746  1.00  0.00     0.001 A 
HETATM   13  C   UNL     1     -41.330  55.528 -49.935  1.00  0.00     0.012 A 
HETATM   14  C   UNL     1     -41.463  55.540 -52.386  1.00  0.00     0.042 A 
ENDBRANCH   1   5
BRANCH   2  15
HETATM   15  C   UNL     1     -42.947  56.766 -56.434  1.00  0.00     0.073 A 
HETATM   16  S   UNL     1     -42.512  58.419 -56.504  1.00  0.00    -0.096 SA
HETATM   17  C   UNL     1     -42.837  58.505 -58.177  1.00  0.00     0.067 A 
HETATM   18  C   UNL     1     -43.274  57.305 -58.713  1.00  0.00     0.039 A 
HETATM   19  C   UNL     1     -43.329  56.304 -57.683  1.00  0.00     0.042 A 
BRANCH  18  20
HETATM   20  C   UNL     1     -43.606  57.177 -60.129  1.00  0.00     0.249 C 
HETATM   21  N   UNL     1     -44.101  58.290 -60.741  1.00  0.00    -0.366 N 
HETATM   22  H   UNL     1     -44.254  59.170 -60.276  1.00  0.00     0.159 HD
HETATM   23  H   UNL     1     -44.336  58.211 -61.721  1.00  0.00     0.159 HD
HETATM   24  O   UNL     1     -43.457  56.137 -60.763  1.00  0.00    -0.268 OA
ENDBRANCH  18  20
ENDBRANCH   2  15
TORSDOF 3
ENDMDL
MODEL 8
REMARK VINA RESULT:      -7.4      2.652      3.500
REMARK  3 active torsions:
REMARK  status: ('A' for Active; 'I' for Inactive)
REMARK    1  A    between atoms: C_9  and  N_10 
REMARK       I    between atoms: N_10  and  C_11 
REMARK    2  A    between atoms: C_11  and  C_12 
REMARK    3  A    between atoms: C_15  and  C_16 
REMARK       I    between atoms: C_16  and  N_17 
ROOT
HETATM    1  N   UNL     1     -43.232  55.105 -56.675  1.00  0.00    -0.322 N 
HETATM    2  C   UNL     1     -43.164  56.271 -57.419  1.00  0.00     0.263 C 
HETATM    3  O   UNL     1     -42.405  57.207 -57.185  1.00  0.00    -0.267 OA
HETATM    4  H   UNL     1     -43.915  54.429 -56.996  1.00  0.00     0.169 HD
ENDROOT
BRANCH   1   5
HETATM    5  C   UNL     1     -42.469  54.738 -55.550  1.00  0.00     0.035 A 
HETATM    6  C   UNL     1     -41.118  54.401 -55.596  1.00  0.00     0.030 A 
HETATM    7  C   UNL     1     -40.437  54.038 -54.428  1.00  0.00     0.014 A 
HETATM    8  C   UNL     1     -41.094  54.004 -53.191  1.00  0.00    -0.026 A 
HETATM    9  C   UNL     1     -40.423  53.637 -52.013  1.00  0.00     0.012 A 
HETATM   10  C   UNL     1     -42.462  54.345 -53.131  1.00  0.00    -0.024 A 
HETATM   11  C   UNL     1     -41.094  53.607 -50.790  1.00  0.00     0.001 A 
HETATM   12  C   UNL     1     -42.443  53.945 -50.729  1.00  0.00     0.001 A 
HETATM   13  C   UNL     1     -43.123  54.312 -51.891  1.00  0.00     0.012 A 
HETATM   14  C   UNL     1     -43.132  54.708 -54.314  1.00  0.00     0.042 A 
ENDBRANCH   1   5
BRANCH   2  15
HETATM   15  C   UNL     1     -44.087  56.325 -58.556  1.00  0.00     0.073 A 
HETATM   16  S   UNL     1     -44.104  55.145 -59.794  1.00  0.00    -0.096 SA
HETATM   17  C   UNL     1     -45.366  55.937 -60.626  1.00  0.00     0.067 A 
HETATM   18  C   UNL     1     -45.797  57.092 -59.996  1.00  0.00     0.039 A 
HETATM   19  C   UNL     1     -45.043  57.300 -58.791  1.00  0.00     0.042 A 
BRANCH  18  20
HETATM   20  C   UNL     1     -46.869  57.912 -60.555  1.00  0.00     0.249 C 
HETATM   21  N   UNL     1     -47.420  57.479 -61.724  1.00  0.00    -0.366 N 
HETATM   22  H   UNL     1     -47.127  56.650 -62.215  1.00  0.00     0.159 HD
HETATM   23  H   UNL     1     -48.160  58.041 -62.121  1.00  0.00     0.159 HD
HETATM   24  O   UNL     1     -47.276  58.941 -60.023  1.00  0.00    -0.268 OA
ENDBRANCH  18  20
ENDBRANCH   2  15
TORSDOF 3
ENDMDL
MODEL 9
REMARK VINA RESULT:      -7.3     14.524     17.177
REMARK  3 active torsions:
REMARK  status: ('A' for Active; 'I' for Inactive)
REMARK    1  A    between atoms: C_9  and  N_10 
REMARK       I    between atoms: N_10  and  C_11 
REMARK    2  A    between atoms: C_11  and  C_12 
REMARK    3  A    between atoms: C_15  and  C_16 
REMARK       I    between atoms: C_16  and  N_17 
ROOT
HETATM    1  N   UNL     1     -35.002  40.546 -53.690  1.00  0.00    -0.322 N 
HETATM    2  C   UNL     1     -35.143  41.210 -52.484  1.00  0.00     0.263 C 
HETATM    3  O   UNL     1     -35.629  42.331 -52.356  1.00  0.00    -0.267 OA
HETATM    4  H   UNL     1     -34.577  39.628 -53.629  1.00  0.00     0.169 HD
ENDROOT
BRANCH   1   5
HETATM    5  C   UNL     1     -35.384  40.973 -54.977  1.00  0.00     0.035 A 
HETATM    6  C   UNL     1     -34.788  42.032 -55.658  1.00  0.00     0.030 A 
HETATM    7  C   UNL     1     -35.236  42.398 -56.933  1.00  0.00     0.014 A 
HETATM    8  C   UNL     1     -36.289  41.711 -57.552  1.00  0.00    -0.026 A 
HETATM    9  C   UNL     1     -36.751  42.070 -58.828  1.00  0.00     0.012 A 
HETATM   10  C   UNL     1     -36.899  40.634 -56.872  1.00  0.00    -0.024 A 
HETATM   11  C   UNL     1     -37.801  41.376 -59.428  1.00  0.00     0.001 A 
HETATM   12  C   UNL     1     -38.403  40.313 -58.760  1.00  0.00     0.001 A 
HETATM   13  C   UNL     1     -37.955  39.944 -57.491  1.00  0.00     0.012 A 
HETATM   14  C   UNL     1     -36.436  40.280 -55.592  1.00  0.00     0.042 A 
ENDBRANCH   1   5
BRANCH   2  15
HETATM   15  C   UNL     1     -34.663  40.467 -51.317  1.00  0.00     0.073 A 
HETATM   16  S   UNL     1     -35.668  39.432 -50.398  1.00  0.00    -0.096 SA
HETATM   17  C   UNL     1     -34.399  39.034 -49.329  1.00  0.00     0.067 A 
HETATM   18  C   UNL     1     -33.205  39.664 -49.638  1.00  0.00     0.039 A 
HETATM   19  C   UNL     1     -33.378  40.491 -50.800  1.00  0.00     0.042 A 
BRANCH  18  20
HETATM   20  C   UNL     1     -32.001  39.453 -48.838  1.00  0.00     0.249 C 
HETATM   21  N   UNL     1     -32.170  38.822 -47.641  1.00  0.00    -0.366 N 
HETATM   22  H   UNL     1     -33.059  38.511 -47.285  1.00  0.00     0.159 HD
HETATM   23  H   UNL     1     -31.343  38.674 -47.078  1.00  0.00     0.159 HD
HETATM   24  O   UNL     1     -30.884  39.811 -49.197  1.00  0.00    -0.268 OA
ENDBRANCH  18  20
ENDBRANCH   2  15
TORSDOF 3
ENDMDL
MODEL 10
REMARK VINA RESULT:      -7.2      4.631      5.377
REMARK  3 active torsions:
REMARK  status: ('A' for Active; 'I' for Inactive)
REMARK    1  A    between atoms: C_9  and  N_10 
REMARK       I    between atoms: N_10  and  C_11 
REMARK    2  A    between atoms: C_11  and  C_12 
REMARK    3  A    between atoms: C_15  and  C_16 
REMARK       I    between atoms: C_16  and  N_17 
ROOT
HETATM    1  N   UNL     1     -41.862  56.915 -53.214  1.00  0.00    -0.322 N 
HETATM    2  C   UNL     1     -41.177  58.115 -53.123  1.00  0.00     0.263 C 
HETATM    3  O   UNL     1     -39.965  58.241 -53.274  1.00  0.00    -0.267 OA
HETATM    4  H   UNL     1     -42.861  56.977 -53.059  1.00  0.00     0.169 HD
ENDROOT
BRANCH   1   5
HETATM    5  C   UNL     1     -41.353  55.634 -53.505  1.00  0.00     0.035 A 
HETATM    6  C   UNL     1     -41.159  55.144 -54.795  1.00  0.00     0.030 A 
HETATM    7  C   UNL     1     -40.656  53.853 -54.995  1.00  0.00     0.014 A 
HETATM    8  C   UNL     1     -40.338  53.027 -53.909  1.00  0.00    -0.026 A 
HETATM    9  C   UNL     1     -39.837  51.728 -54.096  1.00  0.00     0.012 A 
HETATM   10  C   UNL     1     -40.528  53.513 -52.598  1.00  0.00    -0.024 A 
HETATM   11  C   UNL     1     -39.527  50.919 -53.003  1.00  0.00     0.001 A 
HETATM   12  C   UNL     1     -39.712  51.398 -51.710  1.00  0.00     0.001 A 
HETATM   13  C   UNL     1     -40.209  52.686 -51.507  1.00  0.00     0.012 A 
HETATM   14  C   UNL     1     -41.033  54.813 -52.415  1.00  0.00     0.042 A 
ENDBRANCH   1   5
BRANCH   2  15
HETATM   15  C   UNL     1     -42.018  59.278 -52.830  1.00  0.00     0.073 A 
HETATM   16  S   UNL     1     -42.998  59.385 -51.432  1.00  0.00    -0.096 SA
HETATM   17  C   UNL     1     -43.580  60.927 -51.873  1.00  0.00     0.067 A 
HETATM   18  C   UNL     1     -43.054  61.389 -53.068  1.00  0.00     0.039 A 
HETATM   19  C   UNL     1     -42.145  60.416 -53.608  1.00  0.00     0.042 A 
BRANCH  18  20
HETATM   20  C   UNL     1     -43.431  62.689 -53.616  1.00  0.00     0.249 C 
HETATM   21  N   UNL     1     -42.918  63.005 -54.840  1.00  0.00    -0.366 N 
HETATM   22  H   UNL     1     -42.302  62.408 -55.366  1.00  0.00     0.159 HD
HETATM   23  H   UNL     1     -43.171  63.904 -55.227  1.00  0.00     0.159 HD
HETATM   24  O   UNL     1     -44.169  63.477 -53.033  1.00  0.00    -0.268 OA
ENDBRANCH  18  20
ENDBRANCH   2  15
TORSDOF 3
ENDMDL
