MODEL 1
REMARK VINA RESULT:      -8.3      0.000      0.000
REMARK  5 active torsions:
REMARK  status: ('A' for Active; 'I' for Inactive)
REMARK    1  A    between atoms: C_2  and  O_3 
REMARK    2  A    between atoms: O_3  and  C_4 
REMARK    3  A    between atoms: C_4  and  C_5 
REMARK    4  A    between atoms: C_6  and  N_7 
REMARK    5  A    between atoms: N_8  and  C_9 
ROOT
HETATM    1  C   UNL     1     -41.606  56.507 -51.517  1.00  0.00     0.084 A 
HETATM    2  C   UNL     1     -41.594  56.338 -52.932  1.00  0.00     0.119 A 
HETATM    3  N   UNL     1     -41.286  55.097 -53.447  1.00  0.00    -0.312 N 
HETATM    4  C   UNL     1     -40.939  54.067 -52.606  1.00  0.00     0.150 A 
HETATM    5  C   UNL     1     -40.922  54.243 -51.231  1.00  0.00     0.080 A 
HETATM    6  C   UNL     1     -40.541  53.103 -50.385  1.00  0.00     0.267 A 
HETATM    7  O   UNL     1     -40.519  53.274 -49.170  1.00  0.00    -0.267 OA
HETATM    8  N   UNL     1     -40.231  51.916 -51.041  1.00  0.00    -0.272 N 
HETATM    9  C   UNL     1     -40.278  51.839 -52.430  1.00  0.00     0.145 A 
HETATM   10  N   UNL     1     -40.605  52.843 -53.186  1.00  0.00    -0.211 NA
HETATM   11  C   UNL     1     -39.873  50.813 -50.275  1.00  0.00     0.102 A 
HETATM   12  C   UNL     1     -39.560  49.638 -50.833  1.00  0.00     0.018 A 
HETATM   13  C   UNL     1     -39.591  49.493 -52.262  1.00  0.00     0.012 A 
HETATM   14  C   UNL     1     -39.927  50.519 -53.059  1.00  0.00    -0.015 A 
HETATM   15  C   UNL     1     -39.974  50.412 -54.551  1.00  0.00     0.052 C 
HETATM   16  C   UNL     1     -41.259  55.461 -50.669  1.00  0.00     0.042 A 
ENDROOT
BRANCH   1  17
HETATM   17  C   UNL     1     -41.931  57.839 -50.941  1.00  0.00     0.297 C 
HETATM   18  O   UNL     1     -42.987  58.407 -51.162  1.00  0.00    -0.259 OA
BRANCH  17  19
HETATM   19  O   UNL     1     -40.922  58.265 -50.150  1.00  0.00    -0.318 OA
BRANCH  19  20
HETATM   20  C   UNL     1     -40.415  59.584 -50.420  1.00  0.00     0.174 C 
HETATM   21  C   UNL     1     -38.905  59.533 -50.542  1.00  0.00     0.034 C 
ENDBRANCH  19  20
ENDBRANCH  17  19
ENDBRANCH   1  17
BRANCH   2  22
HETATM   22  N   UNL     1     -42.016  57.390 -53.744  1.00  0.00    -0.384 N 
HETATM   23  H   UNL     1     -42.814  57.161 -54.355  1.00  0.00     0.157 HD
HETATM   24  H   UNL     1     -42.039  58.355 -53.458  1.00  0.00     0.157 HD
ENDBRANCH   2  22
BRANCH   3  25
HETATM   25  C   UNL     1     -41.324  54.806 -54.932  1.00  0.00     0.085 C 
HETATM   26  C   UNL     1     -40.055  54.105 -55.406  1.00  0.00     0.032 C 
HETATM   27  C   UNL     1     -42.635  54.138 -55.325  1.00  0.00     0.032 C 
ENDBRANCH   3  25
TORSDOF 5
ENDMDL
MODEL 2
REMARK VINA RESULT:      -7.9      2.309      4.002
REMARK  5 active torsions:
REMARK  status: ('A' for Active; 'I' for Inactive)
REMARK    1  A    between atoms: C_2  and  O_3 
REMARK    2  A    between atoms: O_3  and  C_4 
REMARK    3  A    between atoms: C_4  and  C_5 
REMARK    4  A    between atoms: C_6  and  N_7 
REMARK    5  A    between atoms: N_8  and  C_9 
ROOT
HETATM    1  C   UNL     1     -41.053  56.925 -53.279  1.00  0.00     0.084 A 
HETATM    2  C   UNL     1     -41.153  56.699 -51.875  1.00  0.00     0.119 A 
HETATM    3  N   UNL     1     -40.908  55.432 -51.391  1.00  0.00    -0.312 N 
HETATM    4  C   UNL     1     -40.635  54.402 -52.258  1.00  0.00     0.150 A 
HETATM    5  C   UNL     1     -40.567  54.619 -53.625  1.00  0.00     0.080 A 
HETATM    6  C   UNL     1     -40.273  53.476 -54.501  1.00  0.00     0.267 A 
HETATM    7  O   UNL     1     -40.227  53.678 -55.711  1.00  0.00    -0.267 OA
HETATM    8  N   UNL     1     -40.071  52.249 -53.877  1.00  0.00    -0.272 N 
HETATM    9  C   UNL     1     -40.159  52.132 -52.493  1.00  0.00     0.145 A 
HETATM   10  N   UNL     1     -40.427  53.135 -51.712  1.00  0.00    -0.211 NA
HETATM   11  C   UNL     1     -39.782  51.145 -54.671  1.00  0.00     0.102 A 
HETATM   12  C   UNL     1     -39.577  49.933 -54.145  1.00  0.00     0.018 A 
HETATM   13  C   UNL     1     -39.651  49.746 -52.723  1.00  0.00     0.012 A 
HETATM   14  C   UNL     1     -39.927  50.770 -51.900  1.00  0.00    -0.015 A 
HETATM   15  C   UNL     1     -40.014  50.623 -50.413  1.00  0.00     0.052 C 
HETATM   16  C   UNL     1     -40.771  55.882 -54.152  1.00  0.00     0.042 A 
ENDROOT
BRANCH   1  17
HETATM   17  C   UNL     1     -41.319  58.284 -53.822  1.00  0.00     0.297 C 
HETATM   18  O   UNL     1     -40.554  59.218 -53.650  1.00  0.00    -0.259 OA
BRANCH  17  19
HETATM   19  O   UNL     1     -42.471  58.288 -54.526  1.00  0.00    -0.318 OA
BRANCH  19  20
HETATM   20  C   UNL     1     -42.384  58.743 -55.889  1.00  0.00     0.174 C 
HETATM   21  C   UNL     1     -42.726  57.604 -56.828  1.00  0.00     0.034 C 
ENDBRANCH  19  20
ENDBRANCH  17  19
ENDBRANCH   1  17
BRANCH   2  22
HETATM   22  N   UNL     1     -41.368  57.786 -51.027  1.00  0.00    -0.384 N 
HETATM   23  H   UNL     1     -40.617  57.941 -50.337  1.00  0.00     0.157 HD
HETATM   24  H   UNL     1     -41.789  58.654 -51.311  1.00  0.00     0.157 HD
ENDBRANCH   2  22
BRANCH   3  25
HETATM   25  C   UNL     1     -40.916  55.118 -49.910  1.00  0.00     0.085 C 
HETATM   26  C   UNL     1     -42.179  54.372 -49.494  1.00  0.00     0.032 C 
HETATM   27  C   UNL     1     -39.600  54.482 -49.479  1.00  0.00     0.032 C 
ENDBRANCH   3  25
TORSDOF 5
ENDMDL
MODEL 3
REMARK VINA RESULT:      -7.7      1.887      2.376
REMARK  5 active torsions:
REMARK  status: ('A' for Active; 'I' for Inactive)
REMARK    1  A    between atoms: C_2  and  O_3 
REMARK    2  A    between atoms: O_3  and  C_4 
REMARK    3  A    between atoms: C_4  and  C_5 
REMARK    4  A    between atoms: C_6  and  N_7 
REMARK    5  A    between atoms: N_8  and  C_9 
ROOT
HETATM    1  C   UNL     1     -44.129  57.148 -51.791  1.00  0.00     0.084 A 
HETATM    2  C   UNL     1     -43.983  56.977 -53.198  1.00  0.00     0.119 A 
HETATM    3  N   UNL     1     -43.212  55.931 -53.660  1.00  0.00    -0.312 N 
HETATM    4  C   UNL     1     -42.555  55.114 -52.773  1.00  0.00     0.150 A 
HETATM    5  C   UNL     1     -42.676  55.301 -51.405  1.00  0.00     0.080 A 
HETATM    6  C   UNL     1     -41.946  54.394 -50.508  1.00  0.00     0.267 A 
HETATM    7  O   UNL     1     -42.051  54.577 -49.299  1.00  0.00    -0.267 OA
HETATM    8  N   UNL     1     -41.186  53.397 -51.113  1.00  0.00    -0.272 N 
HETATM    9  C   UNL     1     -41.129  53.290 -52.499  1.00  0.00     0.145 A 
HETATM   10  N   UNL     1     -41.764  54.092 -53.300  1.00  0.00    -0.211 NA
HETATM   11  C   UNL     1     -40.487  52.514 -50.298  1.00  0.00     0.102 A 
HETATM   12  C   UNL     1     -39.735  51.531 -50.805  1.00  0.00     0.018 A 
HETATM   13  C   UNL     1     -39.636  51.366 -52.229  1.00  0.00     0.012 A 
HETATM   14  C   UNL     1     -40.285  52.185 -53.071  1.00  0.00    -0.015 A 
HETATM   15  C   UNL     1     -40.211  52.050 -54.560  1.00  0.00     0.052 C 
HETATM   16  C   UNL     1     -43.467  56.316 -50.897  1.00  0.00     0.042 A 
ENDROOT
BRANCH   1  17
HETATM   17  C   UNL     1     -44.952  58.273 -51.272  1.00  0.00     0.297 C 
HETATM   18  O   UNL     1     -45.938  58.096 -50.576  1.00  0.00    -0.259 OA
BRANCH  17  19
HETATM   19  O   UNL     1     -44.424  59.454 -51.658  1.00  0.00    -0.318 OA
BRANCH  19  20
HETATM   20  C   UNL     1     -43.795  60.238 -50.627  1.00  0.00     0.174 C 
HETATM   21  C   UNL     1     -42.293  60.234 -50.832  1.00  0.00     0.034 C 
ENDBRANCH  19  20
ENDBRANCH  17  19
ENDBRANCH   1  17
BRANCH   2  22
HETATM   22  N   UNL     1     -44.720  57.789 -54.060  1.00  0.00    -0.384 N 
HETATM   23  H   UNL     1     -45.710  57.516 -54.157  1.00  0.00     0.157 HD
HETATM   24  H   UNL     1     -44.605  58.785 -54.140  1.00  0.00     0.157 HD
ENDBRANCH   2  22
BRANCH   3  25
HETATM   25  C   UNL     1     -43.063  55.629 -55.136  1.00  0.00     0.085 C 
HETATM   26  C   UNL     1     -41.739  56.143 -55.690  1.00  0.00     0.032 C 
HETATM   27  C   UNL     1     -43.380  54.167 -55.429  1.00  0.00     0.032 C 
ENDBRANCH   3  25
TORSDOF 5
ENDMDL
MODEL 4
REMARK VINA RESULT:      -7.4      3.095      5.475
REMARK  5 active torsions:
REMARK  status: ('A' for Active; 'I' for Inactive)
REMARK    1  A    between atoms: C_2  and  O_3 
REMARK    2  A    between atoms: O_3  and  C_4 
REMARK    3  A    between atoms: C_4  and  C_5 
REMARK    4  A    between atoms: C_6  and  N_7 
REMARK    5  A    between atoms: N_8  and  C_9 
ROOT
HETATM    1  C   UNL     1     -42.414  56.677 -56.043  1.00  0.00     0.084 A 
HETATM    2  C   UNL     1     -42.846  57.512 -54.971  1.00  0.00     0.119 A 
HETATM    3  N   UNL     1     -42.564  57.125 -53.678  1.00  0.00    -0.312 N 
HETATM    4  C   UNL     1     -41.934  55.928 -53.437  1.00  0.00     0.150 A 
HETATM    5  C   UNL     1     -41.542  55.104 -54.481  1.00  0.00     0.080 A 
HETATM    6  C   UNL     1     -40.874  53.836 -54.158  1.00  0.00     0.267 A 
HETATM    7  O   UNL     1     -40.542  53.110 -55.090  1.00  0.00    -0.267 OA
HETATM    8  N   UNL     1     -40.675  53.562 -52.808  1.00  0.00    -0.272 N 
HETATM    9  C   UNL     1     -41.105  54.456 -51.831  1.00  0.00     0.145 A 
HETATM   10  N   UNL     1     -41.704  55.575 -52.107  1.00  0.00    -0.211 NA
HETATM   11  C   UNL     1     -40.040  52.375 -52.462  1.00  0.00     0.102 A 
HETATM   12  C   UNL     1     -39.814  52.042 -51.187  1.00  0.00     0.018 A 
HETATM   13  C   UNL     1     -40.232  52.922 -50.131  1.00  0.00     0.012 A 
HETATM   14  C   UNL     1     -40.852  54.083 -50.397  1.00  0.00    -0.015 A 
HETATM   15  C   UNL     1     -41.303  55.031 -49.330  1.00  0.00     0.052 C 
HETATM   16  C   UNL     1     -41.773  55.470 -55.795  1.00  0.00     0.042 A 
ENDROOT
BRANCH   1  17
HETATM   17  C   UNL     1     -42.712  57.073 -57.445  1.00  0.00     0.297 C 
HETATM   18  O   UNL     1     -42.222  58.063 -57.964  1.00  0.00    -0.259 OA
BRANCH  17  19
HETATM   19  O   UNL     1     -43.545  56.177 -58.017  1.00  0.00    -0.318 OA
BRANCH  19  20
HETATM   20  C   UNL     1     -43.228  55.782 -59.364  1.00  0.00     0.174 C 
HETATM   21  C   UNL     1     -44.355  54.937 -59.924  1.00  0.00     0.034 C 
ENDBRANCH  19  20
ENDBRANCH  17  19
ENDBRANCH   1  17
BRANCH   2  22
HETATM   22  N   UNL     1     -43.422  58.748 -55.264  1.00  0.00    -0.384 N 
HETATM   23  H   UNL     1     -44.047  58.741 -56.084  1.00  0.00     0.157 HD
HETATM   24  H   UNL     1     -43.733  59.408 -54.571  1.00  0.00     0.157 HD
ENDBRANCH   2  22
BRANCH   3  25
HETATM   25  C   UNL     1     -42.915  57.985 -52.484  1.00  0.00     0.085 C 
HETATM   26  C   UNL     1     -42.123  59.288 -52.468  1.00  0.00     0.032 C 
HETATM   27  C   UNL     1     -44.425  58.128 -52.339  1.00  0.00     0.032 C 
ENDBRANCH   3  25
TORSDOF 5
ENDMDL
MODEL 5
REMARK VINA RESULT:      -7.2      2.840      6.444
REMARK  5 active torsions:
REMARK  status: ('A' for Active; 'I' for Inactive)
REMARK    1  A    between atoms: C_2  and  O_3 
REMARK    2  A    between atoms: O_3  and  C_4 
REMARK    3  A    between atoms: C_4  and  C_5 
REMARK    4  A    between atoms: C_6  and  N_7 
REMARK    5  A    between atoms: N_8  and  C_9 
ROOT
HETATM    1  C   UNL     1     -42.013  55.110 -51.740  1.00  0.00     0.084 A 
HETATM    2  C   UNL     1     -41.620  56.473 -51.591  1.00  0.00     0.119 A 
HETATM    3  N   UNL     1     -41.679  57.301 -52.692  1.00  0.00    -0.312 N 
HETATM    4  C   UNL     1     -42.050  56.798 -53.915  1.00  0.00     0.150 A 
HETATM    5  C   UNL     1     -42.403  55.466 -54.063  1.00  0.00     0.080 A 
HETATM    6  C   UNL     1     -42.789  54.988 -55.398  1.00  0.00     0.267 A 
HETATM    7  O   UNL     1     -43.088  53.804 -55.518  1.00  0.00    -0.267 OA
HETATM    8  N   UNL     1     -42.780  55.929 -56.423  1.00  0.00    -0.272 N 
HETATM    9  C   UNL     1     -42.411  57.248 -56.174  1.00  0.00     0.145 A 
HETATM   10  N   UNL     1     -42.059  57.677 -54.999  1.00  0.00    -0.211 NA
HETATM   11  C   UNL     1     -43.147  55.518 -57.699  1.00  0.00     0.102 A 
HETATM   12  C   UNL     1     -43.162  56.363 -58.735  1.00  0.00     0.018 A 
HETATM   13  C   UNL     1     -42.793  57.738 -58.544  1.00  0.00     0.012 A 
HETATM   14  C   UNL     1     -42.427  58.200 -57.337  1.00  0.00    -0.015 A 
HETATM   15  C   UNL     1     -42.036  59.623 -57.092  1.00  0.00     0.052 C 
HETATM   16  C   UNL     1     -42.393  54.607 -52.978  1.00  0.00     0.042 A 
ENDROOT
BRANCH   1  17
HETATM   17  C   UNL     1     -41.953  54.199 -50.566  1.00  0.00     0.297 C 
HETATM   18  O   UNL     1     -42.397  54.508 -49.474  1.00  0.00    -0.259 OA
BRANCH  17  19
HETATM   19  O   UNL     1     -41.382  53.025 -50.915  1.00  0.00    -0.318 OA
BRANCH  19  20
HETATM   20  C   UNL     1     -39.944  53.005 -50.961  1.00  0.00     0.174 C 
HETATM   21  C   UNL     1     -39.484  52.041 -52.037  1.00  0.00     0.034 C 
ENDBRANCH  19  20
ENDBRANCH  17  19
ENDBRANCH   1  17
BRANCH   2  22
HETATM   22  N   UNL     1     -41.314  56.955 -50.319  1.00  0.00    -0.384 N 
HETATM   23  H   UNL     1     -41.037  57.948 -50.296  1.00  0.00     0.157 HD
HETATM   24  H   UNL     1     -41.801  56.691 -49.479  1.00  0.00     0.157 HD
ENDBRANCH   2  22
BRANCH   3  25
HETATM   25  C   UNL     1     -41.355  58.777 -52.609  1.00  0.00     0.085 C 
HETATM   26  C   UNL     1     -42.312  59.518 -51.683  1.00  0.00     0.032 C 
HETATM   27  C   UNL     1     -39.871  58.997 -52.340  1.00  0.00     0.032 C 
ENDBRANCH   3  25
TORSDOF 5
ENDMDL
MODEL 6
REMARK VINA RESULT:      -7.0      4.143      7.828
REMARK  5 active torsions:
REMARK  status: ('A' for Active; 'I' for Inactive)
REMARK    1  A    between atoms: C_2  and  O_3 
REMARK    2  A    between atoms: O_3  and  C_4 
REMARK    3  A    between atoms: C_4  and  C_5 
REMARK    4  A    between atoms: C_6  and  N_7 
REMARK    5  A    between atoms: N_8  and  C_9 
ROOT
HETATM    1  C   UNL     1     -42.511  55.321 -54.053  1.00  0.00     0.084 A 
HETATM    2  C   UNL     1     -42.040  56.528 -53.458  1.00  0.00     0.119 A 
HETATM    3  N   UNL     1     -41.930  57.654 -54.247  1.00  0.00    -0.312 N 
HETATM    4  C   UNL     1     -42.211  57.586 -55.590  1.00  0.00     0.150 A 
HETATM    5  C   UNL     1     -42.640  56.403 -56.171  1.00  0.00     0.080 A 
HETATM    6  C   UNL     1     -42.923  56.394 -57.613  1.00  0.00     0.267 A 
HETATM    7  O   UNL     1     -43.291  55.339 -58.118  1.00  0.00    -0.267 OA
HETATM    8  N   UNL     1     -42.745  57.597 -58.290  1.00  0.00    -0.272 N 
HETATM    9  C   UNL     1     -42.311  58.735 -57.616  1.00  0.00     0.145 A 
HETATM   10  N   UNL     1     -42.050  58.749 -56.343  1.00  0.00    -0.211 NA
HETATM   11  C   UNL     1     -43.010  57.632 -59.654  1.00  0.00     0.102 A 
HETATM   12  C   UNL     1     -42.862  58.750 -60.373  1.00  0.00     0.018 A 
HETATM   13  C   UNL     1     -42.418  59.958 -59.736  1.00  0.00     0.012 A 
HETATM   14  C   UNL     1     -42.144  59.992 -58.422  1.00  0.00    -0.015 A 
HETATM   15  C   UNL     1     -41.680  61.229 -57.717  1.00  0.00     0.052 C 
HETATM   16  C   UNL     1     -42.799  55.258 -55.410  1.00  0.00     0.042 A 
ENDROOT
BRANCH   1  17
HETATM   17  C   UNL     1     -42.633  54.095 -53.221  1.00  0.00     0.297 C 
HETATM   18  O   UNL     1     -43.370  54.032 -52.251  1.00  0.00    -0.259 OA
BRANCH  17  19
HETATM   19  O   UNL     1     -41.854  53.111 -53.721  1.00  0.00    -0.318 OA
BRANCH  19  20
HETATM   20  C   UNL     1     -40.480  53.105 -53.290  1.00  0.00     0.174 C 
HETATM   21  C   UNL     1     -39.870  51.744 -53.557  1.00  0.00     0.034 C 
ENDBRANCH  19  20
ENDBRANCH  17  19
ENDBRANCH   1  17
BRANCH   2  22
HETATM   22  N   UNL     1     -41.830  56.568 -52.080  1.00  0.00    -0.384 N 
HETATM   23  H   UNL     1     -41.918  57.507 -51.664  1.00  0.00     0.157 HD
HETATM   24  H   UNL     1     -42.130  55.853 -51.438  1.00  0.00     0.157 HD
ENDBRANCH   2  22
BRANCH   3  25
HETATM   25  C   UNL     1     -41.512  58.995 -53.685  1.00  0.00     0.085 C 
HETATM   26  C   UNL     1     -42.624  59.638 -52.862  1.00  0.00     0.032 C 
HETATM   27  C   UNL     1     -40.154  58.903 -53.001  1.00  0.00     0.032 C 
ENDBRANCH   3  25
TORSDOF 5
ENDMDL
MODEL 7
REMARK VINA RESULT:      -6.9      3.075      7.409
REMARK  5 active torsions:
REMARK  status: ('A' for Active; 'I' for Inactive)
REMARK    1  A    between atoms: C_2  and  O_3 
REMARK    2  A    between atoms: O_3  and  C_4 
REMARK    3  A    between atoms: C_4  and  C_5 
REMARK    4  A    between atoms: C_6  and  N_7 
REMARK    5  A    between atoms: N_8  and  C_9 
ROOT
HETATM    1  C   UNL     1     -41.078  53.353 -53.456  1.00  0.00     0.084 A 
HETATM    2  C   UNL     1     -41.460  53.908 -52.200  1.00  0.00     0.119 A 
HETATM    3  N   UNL     1     -42.295  55.006 -52.190  1.00  0.00    -0.312 N 
HETATM    4  C   UNL     1     -42.693  55.581 -53.372  1.00  0.00     0.150 A 
HETATM    5  C   UNL     1     -42.296  55.056 -54.592  1.00  0.00     0.080 A 
HETATM    6  C   UNL     1     -42.754  55.717 -55.821  1.00  0.00     0.267 A 
HETATM    7  O   UNL     1     -42.386  55.250 -56.895  1.00  0.00    -0.267 OA
HETATM    8  N   UNL     1     -43.573  56.831 -55.662  1.00  0.00    -0.272 N 
HETATM    9  C   UNL     1     -43.918  57.283 -54.391  1.00  0.00     0.145 A 
HETATM   10  N   UNL     1     -43.511  56.709 -53.299  1.00  0.00    -0.211 NA
HETATM   11  C   UNL     1     -44.034  57.481 -56.801  1.00  0.00     0.102 A 
HETATM   12  C   UNL     1     -44.823  58.558 -56.728  1.00  0.00     0.018 A 
HETATM   13  C   UNL     1     -45.217  59.072 -55.446  1.00  0.00     0.012 A 
HETATM   14  C   UNL     1     -44.806  58.493 -54.307  1.00  0.00    -0.015 A 
HETATM   15  C   UNL     1     -45.193  58.994 -52.951  1.00  0.00     0.052 C 
HETATM   16  C   UNL     1     -41.488  53.934 -54.649  1.00  0.00     0.042 A 
ENDROOT
BRANCH   1  17
HETATM   17  C   UNL     1     -40.175  52.171 -53.489  1.00  0.00     0.297 C 
HETATM   18  O   UNL     1     -39.140  52.120 -52.846  1.00  0.00    -0.259 OA
BRANCH  17  19
HETATM   19  O   UNL     1     -40.693  51.210 -54.285  1.00  0.00    -0.318 OA
BRANCH  19  20
HETATM   20  C   UNL     1     -39.876  50.042 -54.485  1.00  0.00     0.174 C 
HETATM   21  C   UNL     1     -39.648  49.348 -53.157  1.00  0.00     0.034 C 
ENDBRANCH  19  20
ENDBRANCH  17  19
ENDBRANCH   1  17
BRANCH   2  22
HETATM   22  N   UNL     1     -41.087  53.253 -51.027  1.00  0.00    -0.384 N 
HETATM   23  H   UNL     1     -40.419  53.778 -50.442  1.00  0.00     0.157 HD
HETATM   24  H   UNL     1     -41.708  52.697 -50.464  1.00  0.00     0.157 HD
ENDBRANCH   2  22
BRANCH   3  25
HETATM   25  C   UNL     1     -42.812  55.615 -50.905  1.00  0.00     0.085 C 
HETATM   26  C   UNL     1     -43.901  54.757 -50.268  1.00  0.00     0.032 C 
HETATM   27  C   UNL     1     -41.663  56.013 -49.987  1.00  0.00     0.032 C 
ENDBRANCH   3  25
TORSDOF 5
ENDMDL
MODEL 8
REMARK VINA RESULT:      -6.8      2.930      6.730
REMARK  5 active torsions:
REMARK  status: ('A' for Active; 'I' for Inactive)
REMARK    1  A    between atoms: C_2  and  O_3 
REMARK    2  A    between atoms: O_3  and  C_4 
REMARK    3  A    between atoms: C_4  and  C_5 
REMARK    4  A    between atoms: C_6  and  N_7 
REMARK    5  A    between atoms: N_8  and  C_9 
ROOT
HETATM    1  C   UNL     1     -41.398  55.093 -51.835  1.00  0.00     0.084 A 
HETATM    2  C   UNL     1     -42.052  56.265 -51.355  1.00  0.00     0.119 A 
HETATM    3  N   UNL     1     -42.767  57.035 -52.247  1.00  0.00    -0.312 N 
HETATM    4  C   UNL     1     -42.791  56.705 -53.580  1.00  0.00     0.150 A 
HETATM    5  C   UNL     1     -42.130  55.581 -54.049  1.00  0.00     0.080 A 
HETATM    6  C   UNL     1     -42.192  55.281 -55.487  1.00  0.00     0.267 A 
HETATM    7  O   UNL     1     -41.592  54.290 -55.892  1.00  0.00    -0.267 OA
HETATM    8  N   UNL     1     -42.931  56.159 -56.275  1.00  0.00    -0.272 N 
HETATM    9  C   UNL     1     -43.561  57.263 -55.709  1.00  0.00     0.145 A 
HETATM   10  N   UNL     1     -43.505  57.540 -54.440  1.00  0.00    -0.211 NA
HETATM   11  C   UNL     1     -43.019  55.906 -57.639  1.00  0.00     0.102 A 
HETATM   12  C   UNL     1     -43.709  56.704 -58.461  1.00  0.00     0.018 A 
HETATM   13  C   UNL     1     -44.385  57.859 -57.938  1.00  0.00     0.012 A 
HETATM   14  C   UNL     1     -44.338  58.161 -56.631  1.00  0.00    -0.015 A 
HETATM   15  C   UNL     1     -45.027  59.352 -56.043  1.00  0.00     0.052 C 
HETATM   16  C   UNL     1     -41.430  54.759 -53.184  1.00  0.00     0.042 A 
ENDROOT
BRANCH   1  17
HETATM   17  C   UNL     1     -40.618  54.251 -50.890  1.00  0.00     0.297 C 
HETATM   18  O   UNL     1     -39.858  54.727 -50.064  1.00  0.00    -0.259 OA
BRANCH  17  19
HETATM   19  O   UNL     1     -40.910  52.945 -51.078  1.00  0.00    -0.318 OA
BRANCH  19  20
HETATM   20  C   UNL     1     -39.787  52.052 -51.193  1.00  0.00     0.174 C 
HETATM   21  C   UNL     1     -39.645  51.598 -52.632  1.00  0.00     0.034 C 
ENDBRANCH  19  20
ENDBRANCH  17  19
ENDBRANCH   1  17
BRANCH   2  22
HETATM   22  N   UNL     1     -42.057  56.526 -49.985  1.00  0.00    -0.384 N 
HETATM   23  H   UNL     1     -42.666  57.308 -49.703  1.00  0.00     0.157 HD
HETATM   24  H   UNL     1     -42.017  55.817 -49.271  1.00  0.00     0.157 HD
ENDBRANCH   2  22
BRANCH   3  25
HETATM   25  C   UNL     1     -43.555  58.252 -51.813  1.00  0.00     0.085 C 
HETATM   26  C   UNL     1     -44.818  57.869 -51.049  1.00  0.00     0.032 C 
HETATM   27  C   UNL     1     -42.653  59.272 -51.129  1.00  0.00     0.032 C 
ENDBRANCH   3  25
TORSDOF 5
ENDMDL
MODEL 9
REMARK VINA RESULT:      -6.8      3.623      6.847
REMARK  5 active torsions:
REMARK  status: ('A' for Active; 'I' for Inactive)
REMARK    1  A    between atoms: C_2  and  O_3 
REMARK    2  A    between atoms: O_3  and  C_4 
REMARK    3  A    between atoms: C_4  and  C_5 
REMARK    4  A    between atoms: C_6  and  N_7 
REMARK    5  A    between atoms: N_8  and  C_9 
ROOT
HETATM    1  C   UNL     1     -41.548  57.832 -53.123  1.00  0.00     0.084 A 
HETATM    2  C   UNL     1     -41.547  56.469 -53.542  1.00  0.00     0.119 A 
HETATM    3  N   UNL     1     -41.772  56.187 -54.873  1.00  0.00    -0.312 N 
HETATM    4  C   UNL     1     -42.050  57.201 -55.756  1.00  0.00     0.150 A 
HETATM    5  C   UNL     1     -42.079  58.523 -55.340  1.00  0.00     0.080 A 
HETATM    6  C   UNL     1     -42.385  59.562 -56.333  1.00  0.00     0.267 A 
HETATM    7  O   UNL     1     -42.420  60.728 -55.950  1.00  0.00    -0.267 OA
HETATM    8  N   UNL     1     -42.615  59.131 -57.636  1.00  0.00    -0.272 N 
HETATM    9  C   UNL     1     -42.562  57.777 -57.956  1.00  0.00     0.145 A 
HETATM   10  N   UNL     1     -42.301  56.851 -57.083  1.00  0.00    -0.211 NA
HETATM   11  C   UNL     1     -42.900  60.085 -58.606  1.00  0.00     0.102 A 
HETATM   12  C   UNL     1     -43.133  59.748 -59.879  1.00  0.00     0.018 A 
HETATM   13  C   UNL     1     -43.091  58.368 -60.274  1.00  0.00     0.012 A 
HETATM   14  C   UNL     1     -42.823  57.397 -59.387  1.00  0.00    -0.015 A 
HETATM   15  C   UNL     1     -42.768  55.947 -59.755  1.00  0.00     0.052 C 
HETATM   16  C   UNL     1     -41.825  58.855 -54.021  1.00  0.00     0.042 A 
ENDROOT
BRANCH   1  17
HETATM   17  C   UNL     1     -41.312  58.158 -51.692  1.00  0.00     0.297 C 
HETATM   18  O   UNL     1     -41.794  57.502 -50.783  1.00  0.00    -0.259 OA
BRANCH  17  19
HETATM   19  O   UNL     1     -40.492  59.225 -51.585  1.00  0.00    -0.318 OA
BRANCH  19  20
HETATM   20  C   UNL     1     -40.145  59.631 -50.248  1.00  0.00     0.174 C 
HETATM   21  C   UNL     1     -38.648  59.848 -50.155  1.00  0.00     0.034 C 
ENDBRANCH  19  20
ENDBRANCH  17  19
ENDBRANCH   1  17
BRANCH   2  22
HETATM   22  N   UNL     1     -41.195  55.478 -52.626  1.00  0.00    -0.384 N 
HETATM   23  H   UNL     1     -40.359  55.697 -52.064  1.00  0.00     0.157 HD
HETATM   24  H   UNL     1     -41.855  54.928 -52.101  1.00  0.00     0.157 HD
ENDBRANCH   2  22
BRANCH   3  25
HETATM   25  C   UNL     1     -41.713  54.777 -55.420  1.00  0.00     0.085 C 
HETATM   26  C   UNL     1     -40.349  54.134 -55.191  1.00  0.00     0.032 C 
HETATM   27  C   UNL     1     -42.914  53.961 -54.957  1.00  0.00     0.032 C 
ENDBRANCH   3  25
TORSDOF 5
ENDMDL
MODEL 10
REMARK VINA RESULT:      -6.6      3.419      7.578
REMARK  5 active torsions:
REMARK  status: ('A' for Active; 'I' for Inactive)
REMARK    1  A    between atoms: C_2  and  O_3 
REMARK    2  A    between atoms: O_3  and  C_4 
REMARK    3  A    between atoms: C_4  and  C_5 
REMARK    4  A    between atoms: C_6  and  N_7 
REMARK    5  A    between atoms: N_8  and  C_9 
ROOT
HETATM    1  C   UNL     1     -41.504  54.422 -53.345  1.00  0.00     0.084 A 
HETATM    2  C   UNL     1     -41.884  55.389 -52.368  1.00  0.00     0.119 A 
HETATM    3  N   UNL     1     -42.648  56.465 -52.766  1.00  0.00    -0.312 N 
HETATM    4  C   UNL     1     -42.980  56.624 -54.090  1.00  0.00     0.150 A 
HETATM    5  C   UNL     1     -42.584  55.698 -55.042  1.00  0.00     0.080 A 
HETATM    6  C   UNL     1     -42.969  55.925 -56.442  1.00  0.00     0.267 A 
HETATM    7  O   UNL     1     -42.603  55.104 -57.277  1.00  0.00    -0.267 OA
HETATM    8  N   UNL     1     -43.721  57.067 -56.704  1.00  0.00    -0.272 N 
HETATM    9  C   UNL     1     -44.070  57.938 -55.677  1.00  0.00     0.145 A 
HETATM   10  N   UNL     1     -43.727  57.749 -54.438  1.00  0.00    -0.211 NA
HETATM   11  C   UNL     1     -44.111  57.313 -58.015  1.00  0.00     0.102 A 
HETATM   12  C   UNL     1     -44.833  58.389 -58.346  1.00  0.00     0.018 A 
HETATM   13  C   UNL     1     -45.228  59.326 -57.331  1.00  0.00     0.012 A 
HETATM   14  C   UNL     1     -44.883  59.148 -56.046  1.00  0.00    -0.015 A 
HETATM   15  C   UNL     1     -45.274  60.097 -54.957  1.00  0.00     0.052 C 
HETATM   16  C   UNL     1     -41.846  54.584 -54.682  1.00  0.00     0.042 A 
ENDROOT
BRANCH   1  17
HETATM   17  C   UNL     1     -40.676  53.256 -52.937  1.00  0.00     0.297 C 
HETATM   18  O   UNL     1     -39.966  53.272 -51.946  1.00  0.00    -0.259 OA
BRANCH  17  19
HETATM   19  O   UNL     1     -40.865  52.227 -53.791  1.00  0.00    -0.318 OA
BRANCH  19  20
HETATM   20  C   UNL     1     -39.740  51.353 -53.994  1.00  0.00     0.174 C 
HETATM   21  C   UNL     1     -40.233  49.970 -54.373  1.00  0.00     0.034 C 
ENDBRANCH  19  20
ENDBRANCH  17  19
ENDBRANCH   1  17
BRANCH   2  22
HETATM   22  N   UNL     1     -41.582  55.153 -51.027  1.00  0.00    -0.384 N 
HETATM   23  H   UNL     1     -40.627  55.426 -50.753  1.00  0.00     0.157 HD
HETATM   24  H   UNL     1     -42.231  55.277 -50.268  1.00  0.00     0.157 HD
ENDBRANCH   2  22
BRANCH   3  25
HETATM   25  C   UNL     1     -43.161  57.498 -51.786  1.00  0.00     0.085 C 
HETATM   26  C   UNL     1     -44.262  56.937 -50.893  1.00  0.00     0.032 C 
HETATM   27  C   UNL     1     -42.008  58.184 -51.063  1.00  0.00     0.032 C 
ENDBRANCH   3  25
TORSDOF 5
ENDMDL
