MODEL 1
REMARK VINA RESULT:      -8.3      0.000      0.000
REMARK  8 active torsions:
REMARK  status: ('A' for Active; 'I' for Inactive)
REMARK    1  A    between atoms: C_8  and  N_9 
REMARK    2  A    between atoms: C_10  and  S_11 
REMARK    3  A    between atoms: S_11  and  C_12 
REMARK    4  A    between atoms: C_12  and  C_13 
REMARK       I    between atoms: C_13  and  N_14 
REMARK    5  A    between atoms: N_14  and  C_15 
REMARK    6  A    between atoms: C_15  and  C_16 
REMARK    7  A    between atoms: C_16  and  C_17 
REMARK    8  A    between atoms: C_27  and  N_28 
ROOT
HETATM    1  N   UNL     1     -42.330  59.307 -51.795  1.00  0.00    -0.275 N 
HETATM    2  C   UNL     1     -42.100  59.537 -53.178  1.00  0.00     0.177 A 
HETATM    3  N   UNL     1     -42.388  60.636 -53.835  1.00  0.00    -0.204 NA
HETATM    4  C   UNL     1     -42.929  61.602 -53.060  1.00  0.00     0.162 A 
HETATM    5  C   UNL     1     -43.215  61.587 -51.722  1.00  0.00     0.081 A 
HETATM    6  C   UNL     1     -42.897  60.388 -51.006  1.00  0.00     0.124 A 
HETATM    7  N   UNL     1     -43.323  62.832 -53.496  1.00  0.00    -0.260 N 
HETATM    8  H   UNL     1     -43.257  63.208 -54.435  1.00  0.00     0.191 HD
HETATM    9  N   UNL     1     -43.875  63.588 -52.520  1.00  0.00    -0.177 NA
HETATM   10  C   UNL     1     -43.814  62.818 -51.421  1.00  0.00     0.068 A 
HETATM   11  C   UNL     1     -44.365  63.327 -50.144  1.00  0.00     0.073 C 
ENDROOT
BRANCH   2  12
HETATM   12  S   UNL     1     -41.410  58.237 -54.174  1.00  0.00    -0.082 SA
BRANCH  12  13
HETATM   13  C   UNL     1     -42.925  57.508 -54.850  1.00  0.00     0.185 C 
BRANCH  13  14
HETATM   14  C   UNL     1     -43.061  56.021 -54.537  1.00  0.00     0.227 C 
HETATM   15  N   UNL     1     -41.849  55.418 -54.242  1.00  0.00    -0.360 N 
HETATM   16  H   UNL     1     -40.998  55.897 -54.509  1.00  0.00     0.162 HD
HETATM   17  O   UNL     1     -44.127  55.413 -54.506  1.00  0.00    -0.273 OA
BRANCH  15  18
HETATM   18  C   UNL     1     -41.761  53.991 -53.967  1.00  0.00     0.127 C 
BRANCH  18  19
HETATM   19  C   UNL     1     -40.582  53.673 -53.048  1.00  0.00     0.058 C 
BRANCH  19  20
HETATM   20  C   UNL     1     -40.222  52.209 -53.056  1.00  0.00    -0.057 A 
HETATM   21  C   UNL     1     -40.377  51.444 -54.220  1.00  0.00     0.007 A 
HETATM   22  C   UNL     1     -40.043  50.088 -54.222  1.00  0.00     0.001 A 
HETATM   23  C   UNL     1     -39.557  49.485 -53.063  1.00  0.00     0.000 A 
HETATM   24  C   UNL     1     -39.406  50.237 -51.900  1.00  0.00     0.001 A 
HETATM   25  C   UNL     1     -39.739  51.593 -51.894  1.00  0.00     0.007 A 
ENDBRANCH  19  20
ENDBRANCH  18  19
ENDBRANCH  15  18
ENDBRANCH  13  14
ENDBRANCH  12  13
ENDBRANCH   2  12
BRANCH   1  26
HETATM   26  C   UNL     1     -42.198  58.000 -51.233  1.00  0.00     0.051 A 
HETATM   27  C   UNL     1     -43.282  57.098 -51.161  1.00  0.00    -0.013 A 
HETATM   28  C   UNL     1     -44.660  57.494 -51.627  1.00  0.00     0.052 C 
HETATM   29  C   UNL     1     -43.057  55.831 -50.588  1.00  0.00     0.042 A 
HETATM   30 CL   UNL     1     -44.332  54.678 -50.395  1.00  0.00    -0.084 Cl
HETATM   31  C   UNL     1     -41.784  55.451 -50.150  1.00  0.00     0.024 A 
HETATM   32  C   UNL     1     -40.714  56.332 -50.258  1.00  0.00     0.004 A 
HETATM   33  C   UNL     1     -40.919  57.600 -50.794  1.00  0.00     0.031 A 
ENDBRANCH   1  26
BRANCH   6  34
HETATM   34  N   UNL     1     -43.115  60.281 -49.710  1.00  0.00    -0.384 N 
HETATM   35  H   UNL     1     -43.932  60.679 -49.273  1.00  0.00     0.157 HD
HETATM   36  H   UNL     1     -42.434  59.812 -49.126  1.00  0.00     0.157 HD
ENDBRANCH   6  34
TORSDOF 8
ENDMDL
MODEL 2
REMARK VINA RESULT:      -8.1      4.931      6.866
REMARK  8 active torsions:
REMARK  status: ('A' for Active; 'I' for Inactive)
REMARK    1  A    between atoms: C_8  and  N_9 
REMARK    2  A    between atoms: C_10  and  S_11 
REMARK    3  A    between atoms: S_11  and  C_12 
REMARK    4  A    between atoms: C_12  and  C_13 
REMARK       I    between atoms: C_13  and  N_14 
REMARK    5  A    between atoms: N_14  and  C_15 
REMARK    6  A    between atoms: C_15  and  C_16 
REMARK    7  A    between atoms: C_16  and  C_17 
REMARK    8  A    between atoms: C_27  and  N_28 
ROOT
HETATM    1  N   UNL     1     -42.632  59.369 -59.031  1.00  0.00    -0.275 N 
HETATM    2  C   UNL     1     -42.225  59.668 -57.704  1.00  0.00     0.177 A 
HETATM    3  N   UNL     1     -41.446  60.659 -57.341  1.00  0.00    -0.204 NA
HETATM    4  C   UNL     1     -41.049  61.439 -58.371  1.00  0.00     0.162 A 
HETATM    5  C   UNL     1     -41.339  61.334 -59.704  1.00  0.00     0.081 A 
HETATM    6  C   UNL     1     -42.192  60.253 -60.097  1.00  0.00     0.124 A 
HETATM    7  N   UNL     1     -40.235  62.527 -58.267  1.00  0.00    -0.260 N 
HETATM    8  H   UNL     1     -39.826  62.918 -57.425  1.00  0.00     0.191 HD
HETATM    9  N   UNL     1     -39.960  63.100 -59.461  1.00  0.00    -0.177 NA
HETATM   10  C   UNL     1     -40.639  62.360 -60.354  1.00  0.00     0.068 A 
HETATM   11  C   UNL     1     -40.545  62.692 -61.794  1.00  0.00     0.073 C 
ENDROOT
BRANCH   2  12
HETATM   12  S   UNL     1     -42.742  58.607 -56.374  1.00  0.00    -0.082 SA
BRANCH  12  13
HETATM   13  C   UNL     1     -42.129  59.548 -54.952  1.00  0.00     0.185 C 
BRANCH  13  14
HETATM   14  C   UNL     1     -41.351  58.689 -53.960  1.00  0.00     0.227 C 
HETATM   15  N   UNL     1     -41.881  57.417 -53.814  1.00  0.00    -0.360 N 
HETATM   16  H   UNL     1     -42.830  57.255 -54.131  1.00  0.00     0.162 HD
HETATM   17  O   UNL     1     -40.336  59.053 -53.373  1.00  0.00    -0.273 OA
BRANCH  15  18
HETATM   18  C   UNL     1     -41.313  56.463 -52.874  1.00  0.00     0.127 C 
BRANCH  18  19
HETATM   19  C   UNL     1     -42.122  55.167 -52.838  1.00  0.00     0.058 C 
BRANCH  19  20
HETATM   20  C   UNL     1     -41.254  53.941 -52.969  1.00  0.00    -0.057 A 
HETATM   21  C   UNL     1     -41.039  53.351 -54.221  1.00  0.00     0.007 A 
HETATM   22  C   UNL     1     -40.236  52.215 -54.337  1.00  0.00     0.001 A 
HETATM   23  C   UNL     1     -39.645  51.657 -53.205  1.00  0.00     0.000 A 
HETATM   24  C   UNL     1     -39.859  52.233 -51.955  1.00  0.00     0.001 A 
HETATM   25  C   UNL     1     -40.662  53.369 -51.835  1.00  0.00     0.007 A 
ENDBRANCH  19  20
ENDBRANCH  18  19
ENDBRANCH  15  18
ENDBRANCH  13  14
ENDBRANCH  12  13
ENDBRANCH   2  12
BRANCH   1  26
HETATM   26  C   UNL     1     -43.285  58.137 -59.343  1.00  0.00     0.051 A 
HETATM   27  C   UNL     1     -44.689  58.039 -59.468  1.00  0.00    -0.013 A 
HETATM   28  C   UNL     1     -45.581  59.229 -59.219  1.00  0.00     0.052 C 
HETATM   29  C   UNL     1     -45.243  56.782 -59.777  1.00  0.00     0.042 A 
HETATM   30 CL   UNL     1     -46.953  56.542 -59.889  1.00  0.00    -0.084 Cl
HETATM   31  C   UNL     1     -44.428  55.669 -60.008  1.00  0.00     0.024 A 
HETATM   32  C   UNL     1     -43.045  55.782 -59.920  1.00  0.00     0.004 A 
HETATM   33  C   UNL     1     -42.477  57.008 -59.587  1.00  0.00     0.031 A 
ENDBRANCH   1  26
BRANCH   6  34
HETATM   34  N   UNL     1     -42.546  60.077 -61.356  1.00  0.00    -0.384 N 
HETATM   35  H   UNL     1     -42.132  59.359 -61.930  1.00  0.00     0.157 HD
HETATM   36  H   UNL     1     -43.230  60.696 -61.773  1.00  0.00     0.157 HD
ENDBRANCH   6  34
TORSDOF 8
ENDMDL
MODEL 3
REMARK VINA RESULT:      -8.1      4.608      6.537
REMARK  8 active torsions:
REMARK  status: ('A' for Active; 'I' for Inactive)
REMARK    1  A    between atoms: C_8  and  N_9 
REMARK    2  A    between atoms: C_10  and  S_11 
REMARK    3  A    between atoms: S_11  and  C_12 
REMARK    4  A    between atoms: C_12  and  C_13 
REMARK       I    between atoms: C_13  and  N_14 
REMARK    5  A    between atoms: N_14  and  C_15 
REMARK    6  A    between atoms: C_15  and  C_16 
REMARK    7  A    between atoms: C_16  and  C_17 
REMARK    8  A    between atoms: C_27  and  N_28 
ROOT
HETATM    1  N   UNL     1     -43.143  59.080 -58.804  1.00  0.00    -0.275 N 
HETATM    2  C   UNL     1     -42.966  59.428 -57.439  1.00  0.00     0.177 A 
HETATM    3  N   UNL     1     -42.260  60.436 -56.985  1.00  0.00    -0.204 NA
HETATM    4  C   UNL     1     -41.695  61.182 -57.960  1.00  0.00     0.162 A 
HETATM    5  C   UNL     1     -41.755  61.029 -59.318  1.00  0.00     0.081 A 
HETATM    6  C   UNL     1     -42.529  59.929 -59.812  1.00  0.00     0.124 A 
HETATM    7  N   UNL     1     -40.910  62.278 -57.759  1.00  0.00    -0.260 N 
HETATM    8  H   UNL     1     -40.650  62.701 -56.874  1.00  0.00     0.191 HD
HETATM    9  N   UNL     1     -40.438  62.811 -58.908  1.00  0.00    -0.177 NA
HETATM   10  C   UNL     1     -40.955  62.036 -59.876  1.00  0.00     0.068 A 
HETATM   11  C   UNL     1     -40.620  62.318 -61.291  1.00  0.00     0.073 C 
ENDROOT
BRANCH   2  12
HETATM   12  S   UNL     1     -43.700  58.411 -56.179  1.00  0.00    -0.082 SA
BRANCH  12  13
HETATM   13  C   UNL     1     -42.217  57.632 -55.487  1.00  0.00     0.185 C 
BRANCH  13  14
HETATM   14  C   UNL     1     -42.436  56.171 -55.104  1.00  0.00     0.227 C 
HETATM   15  N   UNL     1     -41.256  55.448 -55.037  1.00  0.00    -0.360 N 
HETATM   16  H   UNL     1     -40.433  55.832 -55.486  1.00  0.00     0.162 HD
HETATM   17  O   UNL     1     -43.528  55.679 -54.839  1.00  0.00    -0.273 OA
BRANCH  15  18
HETATM   18  C   UNL     1     -41.257  54.024 -54.738  1.00  0.00     0.127 C 
BRANCH  18  19
HETATM   19  C   UNL     1     -40.547  53.731 -53.417  1.00  0.00     0.058 C 
BRANCH  19  20
HETATM   20  C   UNL     1     -40.216  52.271 -53.250  1.00  0.00    -0.057 A 
HETATM   21  C   UNL     1     -40.342  51.384 -54.327  1.00  0.00     0.007 A 
HETATM   22  C   UNL     1     -40.036  50.031 -54.167  1.00  0.00     0.001 A 
HETATM   23  C   UNL     1     -39.606  49.552 -52.931  1.00  0.00     0.000 A 
HETATM   24  C   UNL     1     -39.485  50.425 -51.852  1.00  0.00     0.001 A 
HETATM   25  C   UNL     1     -39.790  51.779 -52.008  1.00  0.00     0.007 A 
ENDBRANCH  19  20
ENDBRANCH  18  19
ENDBRANCH  15  18
ENDBRANCH  13  14
ENDBRANCH  12  13
ENDBRANCH   2  12
BRANCH   1  26
HETATM   26  C   UNL     1     -43.733  57.834 -59.178  1.00  0.00     0.051 A 
HETATM   27  C   UNL     1     -45.092  57.725 -59.547  1.00  0.00    -0.013 A 
HETATM   28  C   UNL     1     -46.011  58.920 -59.509  1.00  0.00     0.052 C 
HETATM   29  C   UNL     1     -45.586  56.454 -59.900  1.00  0.00     0.042 A 
HETATM   30 CL   UNL     1     -47.249  56.203 -60.305  1.00  0.00    -0.084 Cl
HETATM   31  C   UNL     1     -44.746  55.337 -59.938  1.00  0.00     0.024 A 
HETATM   32  C   UNL     1     -43.400  55.460 -59.609  1.00  0.00     0.004 A 
HETATM   33  C   UNL     1     -42.897  56.700 -59.229  1.00  0.00     0.031 A 
ENDBRANCH   1  26
BRANCH   6  34
HETATM   34  N   UNL     1     -42.665  59.708 -61.105  1.00  0.00    -0.384 N 
HETATM   35  H   UNL     1     -43.531  59.890 -61.588  1.00  0.00     0.157 HD
HETATM   36  H   UNL     1     -41.892  59.316 -61.628  1.00  0.00     0.157 HD
ENDBRANCH   6  34
TORSDOF 8
ENDMDL
MODEL 4
REMARK VINA RESULT:      -7.9      2.557      4.745
REMARK  8 active torsions:
REMARK  status: ('A' for Active; 'I' for Inactive)
REMARK    1  A    between atoms: C_8  and  N_9 
REMARK    2  A    between atoms: C_10  and  S_11 
REMARK    3  A    between atoms: S_11  and  C_12 
REMARK    4  A    between atoms: C_12  and  C_13 
REMARK       I    between atoms: C_13  and  N_14 
REMARK    5  A    between atoms: N_14  and  C_15 
REMARK    6  A    between atoms: C_15  and  C_16 
REMARK    7  A    between atoms: C_16  and  C_17 
REMARK    8  A    between atoms: C_27  and  N_28 
ROOT
HETATM    1  N   UNL     1     -43.136  58.527 -53.344  1.00  0.00    -0.275 N 
HETATM    2  C   UNL     1     -43.814  57.308 -53.077  1.00  0.00     0.177 A 
HETATM    3  N   UNL     1     -44.071  56.361 -53.949  1.00  0.00    -0.204 NA
HETATM    4  C   UNL     1     -43.599  56.626 -55.187  1.00  0.00     0.162 A 
HETATM    5  C   UNL     1     -42.914  57.719 -55.643  1.00  0.00     0.081 A 
HETATM    6  C   UNL     1     -42.633  58.750 -54.689  1.00  0.00     0.124 A 
HETATM    7  N   UNL     1     -43.736  55.813 -56.273  1.00  0.00    -0.260 N 
HETATM    8  H   UNL     1     -44.184  54.903 -56.314  1.00  0.00     0.191 HD
HETATM    9  N   UNL     1     -43.209  56.340 -57.400  1.00  0.00    -0.177 NA
HETATM   10  C   UNL     1     -42.703  57.523 -57.015  1.00  0.00     0.068 A 
HETATM   11  C   UNL     1     -42.060  58.402 -58.019  1.00  0.00     0.073 C 
ENDROOT
BRANCH   2  12
HETATM   12  S   UNL     1     -44.446  57.002 -51.444  1.00  0.00    -0.082 SA
BRANCH  12  13
HETATM   13  C   UNL     1     -43.461  55.553 -50.982  1.00  0.00     0.185 C 
BRANCH  13  14
HETATM   14  C   UNL     1     -42.045  55.589 -51.552  1.00  0.00     0.227 C 
HETATM   15  N   UNL     1     -41.884  54.760 -52.651  1.00  0.00    -0.360 N 
HETATM   16  H   UNL     1     -42.575  54.037 -52.811  1.00  0.00     0.162 HD
HETATM   17  O   UNL     1     -41.142  56.299 -51.122  1.00  0.00    -0.273 OA
BRANCH  15  18
HETATM   18  C   UNL     1     -40.592  54.614 -53.305  1.00  0.00     0.127 C 
BRANCH  18  19
HETATM   19  C   UNL     1     -40.598  53.450 -54.295  1.00  0.00     0.058 C 
BRANCH  19  20
HETATM   20  C   UNL     1     -40.222  52.141 -53.650  1.00  0.00    -0.057 A 
HETATM   21  C   UNL     1     -39.874  52.089 -52.294  1.00  0.00     0.007 A 
HETATM   22  C   UNL     1     -39.524  50.875 -51.701  1.00  0.00     0.001 A 
HETATM   23  C   UNL     1     -39.516  49.704 -52.457  1.00  0.00     0.000 A 
HETATM   24  C   UNL     1     -39.853  49.747 -53.807  1.00  0.00     0.001 A 
HETATM   25  C   UNL     1     -40.203  50.960 -54.404  1.00  0.00     0.007 A 
ENDBRANCH  19  20
ENDBRANCH  18  19
ENDBRANCH  15  18
ENDBRANCH  13  14
ENDBRANCH  12  13
ENDBRANCH   2  12
BRANCH   1  26
HETATM   26  C   UNL     1     -43.116  59.586 -52.385  1.00  0.00     0.051 A 
HETATM   27  C   UNL     1     -44.163  60.530 -52.284  1.00  0.00    -0.013 A 
HETATM   28  C   UNL     1     -45.336  60.500 -53.231  1.00  0.00     0.052 C 
HETATM   29  C   UNL     1     -44.056  61.540 -51.309  1.00  0.00     0.042 A 
HETATM   30 CL   UNL     1     -45.251  62.780 -51.147  1.00  0.00    -0.084 Cl
HETATM   31  C   UNL     1     -42.972  61.581 -50.426  1.00  0.00     0.024 A 
HETATM   32  C   UNL     1     -41.964  60.626 -50.507  1.00  0.00     0.004 A 
HETATM   33  C   UNL     1     -42.035  59.636 -51.483  1.00  0.00     0.031 A 
ENDBRANCH   1  26
BRANCH   6  34
HETATM   34  N   UNL     1     -41.961  59.835 -55.024  1.00  0.00    -0.384 N 
HETATM   35  H   UNL     1     -42.171  60.352 -55.864  1.00  0.00     0.157 HD
HETATM   36  H   UNL     1     -41.193  60.145 -54.443  1.00  0.00     0.157 HD
ENDBRANCH   6  34
TORSDOF 8
ENDMDL
MODEL 5
REMARK VINA RESULT:      -7.9      3.380      5.869
REMARK  8 active torsions:
REMARK  status: ('A' for Active; 'I' for Inactive)
REMARK    1  A    between atoms: C_8  and  N_9 
REMARK    2  A    between atoms: C_10  and  S_11 
REMARK    3  A    between atoms: S_11  and  C_12 
REMARK    4  A    between atoms: C_12  and  C_13 
REMARK       I    between atoms: C_13  and  N_14 
REMARK    5  A    between atoms: N_14  and  C_15 
REMARK    6  A    between atoms: C_15  and  C_16 
REMARK    7  A    between atoms: C_16  and  C_17 
REMARK    8  A    between atoms: C_27  and  N_28 
ROOT
HETATM    1  N   UNL     1     -43.492  58.772 -56.286  1.00  0.00    -0.275 N 
HETATM    2  C   UNL     1     -43.637  57.392 -55.983  1.00  0.00     0.177 A 
HETATM    3  N   UNL     1     -43.361  56.393 -56.787  1.00  0.00    -0.204 NA
HETATM    4  C   UNL     1     -42.880  56.784 -57.988  1.00  0.00     0.162 A 
HETATM    5  C   UNL     1     -42.653  58.046 -58.466  1.00  0.00     0.081 A 
HETATM    6  C   UNL     1     -42.951  59.135 -57.585  1.00  0.00     0.124 A 
HETATM    7  N   UNL     1     -42.523  55.947 -59.004  1.00  0.00    -0.260 N 
HETATM    8  H   UNL     1     -42.546  54.933 -59.010  1.00  0.00     0.191 HD
HETATM    9  N   UNL     1     -42.115  56.604 -60.113  1.00  0.00    -0.177 NA
HETATM   10  C   UNL     1     -42.199  57.904 -59.785  1.00  0.00     0.068 A 
HETATM   11  C   UNL     1     -41.847  58.932 -60.792  1.00  0.00     0.073 C 
ENDROOT
BRANCH   2  12
HETATM   12  S   UNL     1     -44.298  56.912 -54.404  1.00  0.00    -0.082 SA
BRANCH  12  13
HETATM   13  C   UNL     1     -44.064  55.117 -54.488  1.00  0.00     0.185 C 
BRANCH  13  14
HETATM   14  C   UNL     1     -42.839  54.639 -53.714  1.00  0.00     0.227 C 
HETATM   15  N   UNL     1     -41.678  54.665 -54.471  1.00  0.00    -0.360 N 
HETATM   16  H   UNL     1     -41.765  54.722 -55.479  1.00  0.00     0.162 HD
HETATM   17  O   UNL     1     -42.851  54.301 -52.535  1.00  0.00    -0.273 OA
BRANCH  15  18
HETATM   18  C   UNL     1     -40.411  54.197 -53.929  1.00  0.00     0.127 C 
BRANCH  18  19
HETATM   19  C   UNL     1     -40.006  52.855 -54.539  1.00  0.00     0.058 C 
BRANCH  19  20
HETATM   20  C   UNL     1     -39.851  51.773 -53.502  1.00  0.00    -0.057 A 
HETATM   21  C   UNL     1     -39.775  50.427 -53.883  1.00  0.00     0.007 A 
HETATM   22  C   UNL     1     -39.632  49.427 -52.918  1.00  0.00     0.001 A 
HETATM   23  C   UNL     1     -39.567  49.763 -51.567  1.00  0.00     0.000 A 
HETATM   24  C   UNL     1     -39.649  51.098 -51.179  1.00  0.00     0.001 A 
HETATM   25  C   UNL     1     -39.792  52.100 -52.140  1.00  0.00     0.007 A 
ENDBRANCH  19  20
ENDBRANCH  18  19
ENDBRANCH  15  18
ENDBRANCH  13  14
ENDBRANCH  12  13
ENDBRANCH   2  12
BRANCH   1  26
HETATM   26  C   UNL     1     -44.039  59.777 -55.431  1.00  0.00     0.051 A 
HETATM   27  C   UNL     1     -43.284  60.385 -54.403  1.00  0.00    -0.013 A 
HETATM   28  C   UNL     1     -41.867  59.957 -54.117  1.00  0.00     0.052 C 
HETATM   29  C   UNL     1     -43.909  61.366 -53.609  1.00  0.00     0.042 A 
HETATM   30 CL   UNL     1     -43.092  62.123 -52.285  1.00  0.00    -0.084 Cl
HETATM   31  C   UNL     1     -45.224  61.770 -53.861  1.00  0.00     0.024 A 
HETATM   32  C   UNL     1     -45.948  61.194 -54.899  1.00  0.00     0.004 A 
HETATM   33  C   UNL     1     -45.361  60.202 -55.677  1.00  0.00     0.031 A 
ENDBRANCH   1  26
BRANCH   6  34
HETATM   34  N   UNL     1     -42.748  60.388 -57.945  1.00  0.00    -0.384 N 
HETATM   35  H   UNL     1     -42.855  60.690 -58.901  1.00  0.00     0.157 HD
HETATM   36  H   UNL     1     -42.449  61.063 -57.253  1.00  0.00     0.157 HD
ENDBRANCH   6  34
TORSDOF 8
ENDMDL
MODEL 6
REMARK VINA RESULT:      -7.8      2.438      3.955
REMARK  8 active torsions:
REMARK  status: ('A' for Active; 'I' for Inactive)
REMARK    1  A    between atoms: C_8  and  N_9 
REMARK    2  A    between atoms: C_10  and  S_11 
REMARK    3  A    between atoms: S_11  and  C_12 
REMARK    4  A    between atoms: C_12  and  C_13 
REMARK       I    between atoms: C_13  and  N_14 
REMARK    5  A    between atoms: N_14  and  C_15 
REMARK    6  A    between atoms: C_15  and  C_16 
REMARK    7  A    between atoms: C_16  and  C_17 
REMARK    8  A    between atoms: C_27  and  N_28 
ROOT
HETATM    1  N   UNL     1     -43.627  59.110 -53.434  1.00  0.00    -0.275 N 
HETATM    2  C   UNL     1     -42.769  59.232 -52.309  1.00  0.00     0.177 A 
HETATM    3  N   UNL     1     -43.027  59.904 -51.212  1.00  0.00    -0.204 NA
HETATM    4  C   UNL     1     -44.245  60.489 -51.211  1.00  0.00     0.162 A 
HETATM    5  C   UNL     1     -45.216  60.480 -52.175  1.00  0.00     0.081 A 
HETATM    6  C   UNL     1     -44.933  59.743 -53.371  1.00  0.00     0.124 A 
HETATM    7  N   UNL     1     -44.754  61.246 -50.199  1.00  0.00    -0.260 N 
HETATM    8  H   UNL     1     -44.319  61.467 -49.310  1.00  0.00     0.191 HD
HETATM    9  N   UNL     1     -45.978  61.749 -50.476  1.00  0.00    -0.177 NA
HETATM   10  C   UNL     1     -46.265  61.280 -51.702  1.00  0.00     0.068 A 
HETATM   11  C   UNL     1     -47.544  61.660 -52.346  1.00  0.00     0.073 C 
ENDROOT
BRANCH   2  12
HETATM   12  S   UNL     1     -41.162  58.473 -52.353  1.00  0.00    -0.082 SA
BRANCH  12  13
HETATM   13  C   UNL     1     -41.041  57.874 -50.647  1.00  0.00     0.185 C 
BRANCH  13  14
HETATM   14  C   UNL     1     -41.624  56.475 -50.464  1.00  0.00     0.227 C 
HETATM   15  N   UNL     1     -40.691  55.556 -50.013  1.00  0.00    -0.360 N 
HETATM   16  H   UNL     1     -39.708  55.788 -50.101  1.00  0.00     0.162 HD
HETATM   17  O   UNL     1     -42.801  56.184 -50.652  1.00  0.00    -0.273 OA
BRANCH  15  18
HETATM   18  C   UNL     1     -41.037  54.155 -49.826  1.00  0.00     0.127 C 
BRANCH  18  19
HETATM   19  C   UNL     1     -39.917  53.235 -50.310  1.00  0.00     0.058 C 
BRANCH  19  20
HETATM   20  C   UNL     1     -40.123  52.773 -51.730  1.00  0.00    -0.057 A 
HETATM   21  C   UNL     1     -40.999  53.458 -52.582  1.00  0.00     0.007 A 
HETATM   22  C   UNL     1     -41.187  53.026 -53.897  1.00  0.00     0.001 A 
HETATM   23  C   UNL     1     -40.507  51.905 -54.369  1.00  0.00     0.000 A 
HETATM   24  C   UNL     1     -39.640  51.213 -53.526  1.00  0.00     0.001 A 
HETATM   25  C   UNL     1     -39.449  51.642 -52.211  1.00  0.00     0.007 A 
ENDBRANCH  19  20
ENDBRANCH  18  19
ENDBRANCH  15  18
ENDBRANCH  13  14
ENDBRANCH  12  13
ENDBRANCH   2  12
BRANCH   1  26
HETATM   26  C   UNL     1     -43.157  58.556 -54.664  1.00  0.00     0.051 A 
HETATM   27  C   UNL     1     -43.283  57.182 -54.969  1.00  0.00    -0.013 A 
HETATM   28  C   UNL     1     -43.874  56.213 -53.977  1.00  0.00     0.052 C 
HETATM   29  C   UNL     1     -42.789  56.727 -56.207  1.00  0.00     0.042 A 
HETATM   30 CL   UNL     1     -42.837  55.055 -56.648  1.00  0.00    -0.084 Cl
HETATM   31  C   UNL     1     -42.236  57.614 -57.135  1.00  0.00     0.024 A 
HETATM   32  C   UNL     1     -42.149  58.971 -56.844  1.00  0.00     0.004 A 
HETATM   33  C   UNL     1     -42.604  59.439 -55.614  1.00  0.00     0.031 A 
ENDBRANCH   1  26
BRANCH   6  34
HETATM   34  N   UNL     1     -45.812  59.657 -54.351  1.00  0.00    -0.384 N 
HETATM   35  H   UNL     1     -46.735  60.056 -54.275  1.00  0.00     0.157 HD
HETATM   36  H   UNL     1     -45.570  59.153 -55.195  1.00  0.00     0.157 HD
ENDBRANCH   6  34
TORSDOF 8
ENDMDL
MODEL 7
REMARK VINA RESULT:      -7.8      2.767      4.618
REMARK  8 active torsions:
REMARK  status: ('A' for Active; 'I' for Inactive)
REMARK    1  A    between atoms: C_8  and  N_9 
REMARK    2  A    between atoms: C_10  and  S_11 
REMARK    3  A    between atoms: S_11  and  C_12 
REMARK    4  A    between atoms: C_12  and  C_13 
REMARK       I    between atoms: C_13  and  N_14 
REMARK    5  A    between atoms: N_14  and  C_15 
REMARK    6  A    between atoms: C_15  and  C_16 
REMARK    7  A    between atoms: C_16  and  C_17 
REMARK    8  A    between atoms: C_27  and  N_28 
ROOT
HETATM    1  N   UNL     1     -44.191  59.028 -53.883  1.00  0.00    -0.275 N 
HETATM    2  C   UNL     1     -43.241  58.005 -54.142  1.00  0.00     0.177 A 
HETATM    3  N   UNL     1     -43.166  57.280 -55.233  1.00  0.00    -0.204 NA
HETATM    4  C   UNL     1     -44.094  57.604 -56.161  1.00  0.00     0.162 A 
HETATM    5  C   UNL     1     -45.076  58.555 -56.115  1.00  0.00     0.081 A 
HETATM    6  C   UNL     1     -45.154  59.347 -54.924  1.00  0.00     0.124 A 
HETATM    7  N   UNL     1     -44.237  57.001 -57.375  1.00  0.00    -0.260 N 
HETATM    8  H   UNL     1     -43.676  56.252 -57.766  1.00  0.00     0.191 HD
HETATM    9  N   UNL     1     -45.274  57.490 -58.091  1.00  0.00    -0.177 NA
HETATM   10  C   UNL     1     -45.800  58.449 -57.311  1.00  0.00     0.068 A 
HETATM   11  C   UNL     1     -46.993  59.193 -57.776  1.00  0.00     0.073 C 
ENDROOT
BRANCH   2  12
HETATM   12  S   UNL     1     -42.050  57.585 -52.890  1.00  0.00    -0.082 SA
BRANCH  12  13
HETATM   13  C   UNL     1     -42.969  56.315 -51.982  1.00  0.00     0.185 C 
BRANCH  13  14
HETATM   14  C   UNL     1     -42.858  54.932 -52.616  1.00  0.00     0.227 C 
HETATM   15  N   UNL     1     -41.936  54.883 -53.649  1.00  0.00    -0.360 N 
HETATM   16  H   UNL     1     -41.635  55.757 -54.064  1.00  0.00     0.162 HD
HETATM   17  O   UNL     1     -43.481  53.943 -52.239  1.00  0.00    -0.273 OA
BRANCH  15  18
HETATM   18  C   UNL     1     -41.722  53.665 -54.416  1.00  0.00     0.127 C 
BRANCH  18  19
HETATM   19  C   UNL     1     -40.250  53.252 -54.406  1.00  0.00     0.058 C 
BRANCH  19  20
HETATM   20  C   UNL     1     -40.009  51.997 -53.607  1.00  0.00    -0.057 A 
HETATM   21  C   UNL     1     -39.816  52.060 -52.221  1.00  0.00     0.007 A 
HETATM   22  C   UNL     1     -39.591  50.895 -51.485  1.00  0.00     0.001 A 
HETATM   23  C   UNL     1     -39.554  49.658 -52.128  1.00  0.00     0.000 A 
HETATM   24  C   UNL     1     -39.737  49.586 -53.506  1.00  0.00     0.001 A 
HETATM   25  C   UNL     1     -39.962  50.749 -54.245  1.00  0.00     0.007 A 
ENDBRANCH  19  20
ENDBRANCH  18  19
ENDBRANCH  15  18
ENDBRANCH  13  14
ENDBRANCH  12  13
ENDBRANCH   2  12
BRANCH   1  26
HETATM   26  C   UNL     1     -44.332  59.591 -52.578  1.00  0.00     0.051 A 
HETATM   27  C   UNL     1     -43.668  60.777 -52.193  1.00  0.00    -0.013 A 
HETATM   28  C   UNL     1     -42.723  61.483 -53.132  1.00  0.00     0.052 C 
HETATM   29  C   UNL     1     -43.868  61.257 -50.884  1.00  0.00     0.042 A 
HETATM   30 CL   UNL     1     -43.051  62.664 -50.296  1.00  0.00    -0.084 Cl
HETATM   31  C   UNL     1     -44.739  60.612 -50.002  1.00  0.00     0.024 A 
HETATM   32  C   UNL     1     -45.418  59.465 -50.400  1.00  0.00     0.004 A 
HETATM   33  C   UNL     1     -45.214  58.957 -51.679  1.00  0.00     0.031 A 
ENDBRANCH   1  26
BRANCH   6  34
HETATM   34  N   UNL     1     -46.053  60.303 -54.790  1.00  0.00    -0.384 N 
HETATM   35  H   UNL     1     -46.969  60.123 -54.408  1.00  0.00     0.157 HD
HETATM   36  H   UNL     1     -45.835  61.241 -55.104  1.00  0.00     0.157 HD
ENDBRANCH   6  34
TORSDOF 8
ENDMDL
MODEL 8
REMARK VINA RESULT:      -7.7      3.184      8.484
REMARK  8 active torsions:
REMARK  status: ('A' for Active; 'I' for Inactive)
REMARK    1  A    between atoms: C_8  and  N_9 
REMARK    2  A    between atoms: C_10  and  S_11 
REMARK    3  A    between atoms: S_11  and  C_12 
REMARK    4  A    between atoms: C_12  and  C_13 
REMARK       I    between atoms: C_13  and  N_14 
REMARK    5  A    between atoms: N_14  and  C_15 
REMARK    6  A    between atoms: C_15  and  C_16 
REMARK    7  A    between atoms: C_16  and  C_17 
REMARK    8  A    between atoms: C_27  and  N_28 
ROOT
HETATM    1  N   UNL     1     -42.534  55.908 -54.817  1.00  0.00    -0.275 N 
HETATM    2  C   UNL     1     -42.069  57.249 -54.840  1.00  0.00     0.177 A 
HETATM    3  N   UNL     1     -42.057  58.044 -55.884  1.00  0.00    -0.204 NA
HETATM    4  C   UNL     1     -42.568  57.478 -57.000  1.00  0.00     0.162 A 
HETATM    5  C   UNL     1     -43.077  56.221 -57.183  1.00  0.00     0.081 A 
HETATM    6  C   UNL     1     -43.092  55.356 -56.041  1.00  0.00     0.124 A 
HETATM    7  N   UNL     1     -42.665  58.083 -58.217  1.00  0.00    -0.260 N 
HETATM    8  H   UNL     1     -42.394  59.029 -58.463  1.00  0.00     0.191 HD
HETATM    9  N   UNL     1     -43.174  57.274 -59.173  1.00  0.00    -0.177 NA
HETATM   10  C   UNL     1     -43.426  56.118 -58.537  1.00  0.00     0.068 A 
HETATM   11  C   UNL     1     -43.975  54.973 -59.299  1.00  0.00     0.073 C 
ENDROOT
BRANCH   2  12
HETATM   12  S   UNL     1     -41.378  57.957 -53.363  1.00  0.00    -0.082 SA
BRANCH  12  13
HETATM   13  C   UNL     1     -42.846  58.765 -52.674  1.00  0.00     0.185 C 
BRANCH  13  14
HETATM   14  C   UNL     1     -42.532  59.639 -51.463  1.00  0.00     0.227 C 
HETATM   15  N   UNL     1     -43.657  60.248 -50.930  1.00  0.00    -0.360 N 
HETATM   16  H   UNL     1     -44.492  60.295 -51.502  1.00  0.00     0.162 HD
HETATM   17  O   UNL     1     -41.415  59.770 -50.973  1.00  0.00    -0.273 OA
BRANCH  15  18
HETATM   18  C   UNL     1     -43.560  61.163 -49.803  1.00  0.00     0.127 C 
BRANCH  18  19
HETATM   19  C   UNL     1     -44.939  61.648 -49.359  1.00  0.00     0.058 C 
BRANCH  19  20
HETATM   20  C   UNL     1     -44.979  62.017 -47.898  1.00  0.00    -0.057 A 
HETATM   21  C   UNL     1     -44.914  61.025 -46.910  1.00  0.00     0.007 A 
HETATM   22  C   UNL     1     -44.953  61.371 -45.558  1.00  0.00     0.001 A 
HETATM   23  C   UNL     1     -45.060  62.709 -45.182  1.00  0.00     0.000 A 
HETATM   24  C   UNL     1     -45.132  63.701 -46.156  1.00  0.00     0.001 A 
HETATM   25  C   UNL     1     -45.094  63.359 -47.510  1.00  0.00     0.007 A 
ENDBRANCH  19  20
ENDBRANCH  18  19
ENDBRANCH  15  18
ENDBRANCH  13  14
ENDBRANCH  12  13
ENDBRANCH   2  12
BRANCH   1  26
HETATM   26  C   UNL     1     -42.287  55.059 -53.695  1.00  0.00     0.051 A 
HETATM   27  C   UNL     1     -41.133  54.250 -53.602  1.00  0.00    -0.013 A 
HETATM   28  C   UNL     1     -40.124  54.197 -54.721  1.00  0.00     0.052 C 
HETATM   29  C   UNL     1     -40.975  53.445 -52.458  1.00  0.00     0.042 A 
HETATM   30 CL   UNL     1     -39.631  52.371 -52.278  1.00  0.00    -0.084 Cl
HETATM   31  C   UNL     1     -41.905  53.482 -51.414  1.00  0.00     0.024 A 
HETATM   32  C   UNL     1     -43.019  54.309 -51.496  1.00  0.00     0.004 A 
HETATM   33  C   UNL     1     -43.211  55.092 -52.631  1.00  0.00     0.031 A 
ENDBRANCH   1  26
BRANCH   6  34
HETATM   34  N   UNL     1     -43.580  54.132 -56.110  1.00  0.00    -0.384 N 
HETATM   35  H   UNL     1     -43.845  53.618 -55.284  1.00  0.00     0.157 HD
HETATM   36  H   UNL     1     -43.667  53.680 -57.011  1.00  0.00     0.157 HD
ENDBRANCH   6  34
TORSDOF 8
ENDMDL
MODEL 9
REMARK VINA RESULT:      -7.6      2.919      5.026
REMARK  8 active torsions:
REMARK  status: ('A' for Active; 'I' for Inactive)
REMARK    1  A    between atoms: C_8  and  N_9 
REMARK    2  A    between atoms: C_10  and  S_11 
REMARK    3  A    between atoms: S_11  and  C_12 
REMARK    4  A    between atoms: C_12  and  C_13 
REMARK       I    between atoms: C_13  and  N_14 
REMARK    5  A    between atoms: N_14  and  C_15 
REMARK    6  A    between atoms: C_15  and  C_16 
REMARK    7  A    between atoms: C_16  and  C_17 
REMARK    8  A    between atoms: C_27  and  N_28 
ROOT
HETATM    1  N   UNL     1     -42.629  57.654 -55.518  1.00  0.00    -0.275 N 
HETATM    2  C   UNL     1     -42.513  56.246 -55.667  1.00  0.00     0.177 A 
HETATM    3  N   UNL     1     -42.919  55.543 -56.697  1.00  0.00    -0.204 NA
HETATM    4  C   UNL     1     -43.468  56.293 -57.679  1.00  0.00     0.162 A 
HETATM    5  C   UNL     1     -43.657  57.646 -57.738  1.00  0.00     0.081 A 
HETATM    6  C   UNL     1     -43.210  58.412 -56.613  1.00  0.00     0.124 A 
HETATM    7  N   UNL     1     -43.973  55.810 -58.850  1.00  0.00    -0.260 N 
HETATM    8  H   UNL     1     -43.998  54.846 -59.164  1.00  0.00     0.191 HD
HETATM    9  N   UNL     1     -44.504  56.773 -59.636  1.00  0.00    -0.177 NA
HETATM   10  C   UNL     1     -44.314  57.912 -58.948  1.00  0.00     0.068 A 
HETATM   11  C   UNL     1     -44.807  59.191 -59.509  1.00  0.00     0.073 C 
ENDROOT
BRANCH   2  12
HETATM   12  S   UNL     1     -41.809  55.286 -54.346  1.00  0.00    -0.082 SA
BRANCH  12  13
HETATM   13  C   UNL     1     -43.306  54.874 -53.413  1.00  0.00     0.185 C 
BRANCH  13  14
HETATM   14  C   UNL     1     -43.010  54.163 -52.095  1.00  0.00     0.227 C 
HETATM   15  N   UNL     1     -41.664  54.173 -51.767  1.00  0.00    -0.360 N 
HETATM   16  H   UNL     1     -40.994  54.381 -52.498  1.00  0.00     0.162 HD
HETATM   17  O   UNL     1     -43.864  53.665 -51.368  1.00  0.00    -0.273 OA
BRANCH  15  18
HETATM   18  C   UNL     1     -41.171  53.501 -50.574  1.00  0.00     0.127 C 
BRANCH  18  19
HETATM   19  C   UNL     1     -39.773  52.924 -50.797  1.00  0.00     0.058 C 
BRANCH  19  20
HETATM   20  C   UNL     1     -39.762  51.815 -51.817  1.00  0.00    -0.057 A 
HETATM   21  C   UNL     1     -39.584  50.483 -51.419  1.00  0.00     0.007 A 
HETATM   22  C   UNL     1     -39.573  49.459 -52.368  1.00  0.00     0.001 A 
HETATM   23  C   UNL     1     -39.736  49.756 -53.720  1.00  0.00     0.000 A 
HETATM   24  C   UNL     1     -39.907  51.078 -54.125  1.00  0.00     0.001 A 
HETATM   25  C   UNL     1     -39.918  52.105 -53.179  1.00  0.00     0.007 A 
ENDBRANCH  19  20
ENDBRANCH  18  19
ENDBRANCH  15  18
ENDBRANCH  13  14
ENDBRANCH  12  13
ENDBRANCH   2  12
BRANCH   1  26
HETATM   26  C   UNL     1     -42.371  58.288 -54.264  1.00  0.00     0.051 A 
HETATM   27  C   UNL     1     -43.395  58.551 -53.328  1.00  0.00    -0.013 A 
HETATM   28  C   UNL     1     -44.835  58.225 -53.633  1.00  0.00     0.052 C 
HETATM   29  C   UNL     1     -43.045  59.181 -52.118  1.00  0.00     0.042 A 
HETATM   30 CL   UNL     1     -44.233  59.605 -50.934  1.00  0.00    -0.084 Cl
HETATM   31  C   UNL     1     -41.714  59.491 -51.823  1.00  0.00     0.024 A 
HETATM   32  C   UNL     1     -40.706  59.195 -52.734  1.00  0.00     0.004 A 
HETATM   33  C   UNL     1     -41.033  58.599 -53.949  1.00  0.00     0.031 A 
ENDBRANCH   1  26
BRANCH   6  34
HETATM   34  N   UNL     1     -43.329  59.726 -56.583  1.00  0.00    -0.384 N 
HETATM   35  H   UNL     1     -44.064  60.181 -56.063  1.00  0.00     0.157 HD
HETATM   36  H   UNL     1     -42.687  60.297 -57.117  1.00  0.00     0.157 HD
ENDBRANCH   6  34
TORSDOF 8
ENDMDL
MODEL 10
REMARK VINA RESULT:      -7.5      4.076      7.018
REMARK  8 active torsions:
REMARK  status: ('A' for Active; 'I' for Inactive)
REMARK    1  A    between atoms: C_8  and  N_9 
REMARK    2  A    between atoms: C_10  and  S_11 
REMARK    3  A    between atoms: S_11  and  C_12 
REMARK    4  A    between atoms: C_12  and  C_13 
REMARK       I    between atoms: C_13  and  N_14 
REMARK    5  A    between atoms: N_14  and  C_15 
REMARK    6  A    between atoms: C_15  and  C_16 
REMARK    7  A    between atoms: C_16  and  C_17 
REMARK    8  A    between atoms: C_27  and  N_28 
ROOT
HETATM    1  N   UNL     1     -43.068  58.036 -58.013  1.00  0.00    -0.275 N 
HETATM    2  C   UNL     1     -42.783  57.160 -56.932  1.00  0.00     0.177 A 
HETATM    3  N   UNL     1     -43.047  55.875 -56.891  1.00  0.00    -0.204 NA
HETATM    4  C   UNL     1     -43.623  55.406 -58.020  1.00  0.00     0.162 A 
HETATM    5  C   UNL     1     -43.962  56.072 -59.166  1.00  0.00     0.081 A 
HETATM    6  C   UNL     1     -43.670  57.474 -59.210  1.00  0.00     0.124 A 
HETATM    7  N   UNL     1     -44.002  54.114 -58.232  1.00  0.00    -0.260 N 
HETATM    8  H   UNL     1     -43.898  53.325 -57.603  1.00  0.00     0.191 HD
HETATM    9  N   UNL     1     -44.595  53.926 -59.433  1.00  0.00    -0.177 NA
HETATM   10  C   UNL     1     -44.577  55.138 -60.011  1.00  0.00     0.068 A 
HETATM   11  C   UNL     1     -45.181  55.313 -61.353  1.00  0.00     0.073 C 
ENDROOT
BRANCH   2  12
HETATM   12  S   UNL     1     -42.049  57.813 -55.451  1.00  0.00    -0.082 SA
BRANCH  12  13
HETATM   13  C   UNL     1     -43.230  57.217 -54.214  1.00  0.00     0.185 C 
BRANCH  13  14
HETATM   14  C   UNL     1     -42.769  55.941 -53.516  1.00  0.00     0.227 C 
HETATM   15  N   UNL     1     -41.398  55.751 -53.588  1.00  0.00    -0.360 N 
HETATM   16  H   UNL     1     -40.878  56.275 -54.283  1.00  0.00     0.162 HD
HETATM   17  O   UNL     1     -43.511  55.172 -52.913  1.00  0.00    -0.273 OA
BRANCH  15  18
HETATM   18  C   UNL     1     -40.768  54.565 -53.029  1.00  0.00     0.127 C 
BRANCH  18  19
HETATM   19  C   UNL     1     -40.452  53.537 -54.115  1.00  0.00     0.058 C 
BRANCH  19  20
HETATM   20  C   UNL     1     -40.136  52.176 -53.548  1.00  0.00    -0.057 A 
HETATM   21  C   UNL     1     -40.169  51.038 -54.365  1.00  0.00     0.007 A 
HETATM   22  C   UNL     1     -39.877  49.780 -53.835  1.00  0.00     0.001 A 
HETATM   23  C   UNL     1     -39.553  49.648 -52.485  1.00  0.00     0.000 A 
HETATM   24  C   UNL     1     -39.525  50.772 -51.664  1.00  0.00     0.001 A 
HETATM   25  C   UNL     1     -39.817  52.032 -52.191  1.00  0.00     0.007 A 
ENDBRANCH  19  20
ENDBRANCH  18  19
ENDBRANCH  15  18
ENDBRANCH  13  14
ENDBRANCH  12  13
ENDBRANCH   2  12
BRANCH   1  26
HETATM   26  C   UNL     1     -42.955  59.452 -57.864  1.00  0.00     0.051 A 
HETATM   27  C   UNL     1     -44.012  60.244 -57.361  1.00  0.00    -0.013 A 
HETATM   28  C   UNL     1     -45.344  59.634 -57.006  1.00  0.00     0.052 C 
HETATM   29  C   UNL     1     -43.809  61.633 -57.250  1.00  0.00     0.042 A 
HETATM   30 CL   UNL     1     -45.060  62.697 -56.706  1.00  0.00    -0.084 Cl
HETATM   31  C   UNL     1     -42.579  62.212 -57.578  1.00  0.00     0.024 A 
HETATM   32  C   UNL     1     -41.531  61.422 -58.037  1.00  0.00     0.004 A 
HETATM   33  C   UNL     1     -41.719  60.050 -58.182  1.00  0.00     0.031 A 
ENDBRANCH   1  26
BRANCH   6  34
HETATM   34  N   UNL     1     -43.941  58.201 -60.277  1.00  0.00    -0.384 N 
HETATM   35  H   UNL     1     -43.375  58.154 -61.110  1.00  0.00     0.157 HD
HETATM   36  H   UNL     1     -44.720  58.847 -60.256  1.00  0.00     0.157 HD
ENDBRANCH   6  34
TORSDOF 8
ENDMDL
