MODEL 1
REMARK VINA RESULT:      -9.2      0.000      0.000
REMARK  9 active torsions:
REMARK  status: ('A' for Active; 'I' for Inactive)
REMARK    1  A    between atoms: C_6  and  O_7 
REMARK    2  A    between atoms: O_7  and  C_8 
REMARK    3  A    between atoms: C_8  and  C_9 
REMARK       I    between atoms: C_9  and  N_10 
REMARK    4  A    between atoms: N_10  and  C_11 
REMARK    5  A    between atoms: C_11  and  N_12 
REMARK    6  A    between atoms: N_12  and  C_13 
REMARK    7  A    between atoms: C_15  and  O_16 
REMARK    8  A    between atoms: C_17  and  C_18 
REMARK    9  A    between atoms: C_25  and  C_26 
ROOT
HETATM    1  C   UNL     1     -43.189  59.820 -55.718  1.00  0.00     0.036 A 
HETATM    2  C   UNL     1     -42.143  59.770 -54.799  1.00  0.00     0.067 A 
HETATM    3  C   UNL     1     -41.585  58.546 -54.412  1.00  0.00     0.082 A 
HETATM    4  C   UNL     1     -42.040  57.336 -54.946  1.00  0.00     0.050 A 
HETATM    5  C   UNL     1     -43.048  57.392 -55.921  1.00  0.00     0.021 A 
HETATM    6  C   UNL     1     -43.611  58.620 -56.303  1.00  0.00     0.030 A 
ENDROOT
BRANCH   1   7
HETATM    7  N   UNL     1     -43.847  61.003 -56.126  1.00  0.00    -0.333 N 
HETATM    8  H   UNL     1     -44.671  61.245 -55.573  1.00  0.00     0.168 HD
BRANCH   7   9
HETATM    9  C   UNL     1     -43.530  61.952 -57.070  1.00  0.00     0.178 C 
HETATM   10  S   UNL     1     -43.636  63.621 -57.003  1.00  0.00    -0.040 SA
BRANCH   9  11
HETATM   11  N   UNL     1     -43.081  61.451 -58.278  1.00  0.00    -0.302 N 
HETATM   12  C   UNL     1     -41.821  61.022 -58.672  1.00  0.00     0.248 C 
HETATM   13  O   UNL     1     -40.820  61.132 -57.965  1.00  0.00    -0.271 OA
HETATM   14  H   UNL     1     -43.835  61.311 -58.937  1.00  0.00     0.171 HD
BRANCH  12  15
HETATM   15  C   UNL     1     -41.779  60.475 -60.104  1.00  0.00     0.278 C 
BRANCH  15  16
HETATM   16  O   UNL     1     -43.044  59.965 -60.529  1.00  0.00    -0.342 OA
BRANCH  16  17
HETATM   17  C   UNL     1     -43.278  58.649 -60.240  1.00  0.00     0.069 A 
HETATM   18  C   UNL     1     -44.616  58.278 -60.096  1.00  0.00     0.044 A 
HETATM   19  C   UNL     1     -44.973  56.939 -59.879  1.00  0.00    -0.053 A 
HETATM   20  C   UNL     1     -43.959  55.969 -59.764  1.00  0.00    -0.056 A 
HETATM   21  C   UNL     1     -46.431  56.568 -59.826  1.00  0.00     0.049 C 
HETATM   22  C   UNL     1     -44.284  54.517 -59.543  1.00  0.00     0.049 C 
HETATM   23  C   UNL     1     -42.614  56.371 -59.836  1.00  0.00     0.010 A 
HETATM   24  C   UNL     1     -42.273  57.705 -60.071  1.00  0.00     0.037 A 
ENDBRANCH  16  17
ENDBRANCH  15  16
ENDBRANCH  12  15
ENDBRANCH   9  11
ENDBRANCH   7   9
ENDBRANCH   1   7
BRANCH   3  25
HETATM   25  O   UNL     1     -40.551  58.555 -53.513  1.00  0.00    -0.360 OA
HETATM   26  H   UNL     1     -39.933  57.835 -53.721  1.00  0.00     0.217 HD
ENDBRANCH   3  25
BRANCH   4  27
HETATM   27  C   UNL     1     -41.514  56.056 -54.482  1.00  0.00     0.183 A 
HETATM   28  O   UNL     1     -41.407  55.892 -53.121  1.00  0.00    -0.289 OA
HETATM   29  C   UNL     1     -40.928  54.620 -52.982  1.00  0.00     0.106 A 
HETATM   30  C   UNL     1     -40.746  54.097 -54.248  1.00  0.00     0.094 A 
HETATM   31  C   UNL     1     -40.663  53.937 -51.804  1.00  0.00     0.040 A 
HETATM   32  N   UNL     1     -41.105  55.018 -55.191  1.00  0.00    -0.221 NA
HETATM   33  C   UNL     1     -40.258  52.791 -54.385  1.00  0.00     0.042 A 
HETATM   34  C   UNL     1     -39.974  52.044 -53.223  1.00  0.00    -0.052 A 
HETATM   35  C   UNL     1     -40.182  52.626 -51.955  1.00  0.00     0.010 A 
BRANCH  34  36
HETATM   36  C   UNL     1     -39.460  50.621 -53.376  1.00  0.00     0.010 C 
HETATM   37  C   UNL     1     -39.623  49.818 -52.084  1.00  0.00     0.015 C 
HETATM   38  C   UNL     1     -40.129  49.909 -54.554  1.00  0.00     0.015 C 
ENDBRANCH  34  36
ENDBRANCH   4  27
TORSDOF 9
ENDMDL
MODEL 2
REMARK VINA RESULT:      -9.2      6.575      9.436
REMARK  9 active torsions:
REMARK  status: ('A' for Active; 'I' for Inactive)
REMARK    1  A    between atoms: C_6  and  O_7 
REMARK    2  A    between atoms: O_7  and  C_8 
REMARK    3  A    between atoms: C_8  and  C_9 
REMARK       I    between atoms: C_9  and  N_10 
REMARK    4  A    between atoms: N_10  and  C_11 
REMARK    5  A    between atoms: C_11  and  N_12 
REMARK    6  A    between atoms: N_12  and  C_13 
REMARK    7  A    between atoms: C_15  and  O_16 
REMARK    8  A    between atoms: C_17  and  C_18 
REMARK    9  A    between atoms: C_25  and  C_26 
ROOT
HETATM    1  C   UNL     1     -43.906  60.280 -51.514  1.00  0.00     0.036 A 
HETATM    2  C   UNL     1     -44.527  59.069 -51.217  1.00  0.00     0.067 A 
HETATM    3  C   UNL     1     -43.913  57.852 -51.533  1.00  0.00     0.082 A 
HETATM    4  C   UNL     1     -42.651  57.806 -52.136  1.00  0.00     0.050 A 
HETATM    5  C   UNL     1     -41.999  59.024 -52.374  1.00  0.00     0.021 A 
HETATM    6  C   UNL     1     -42.618  60.245 -52.063  1.00  0.00     0.030 A 
ENDROOT
BRANCH   1   7
HETATM    7  N   UNL     1     -44.472  61.555 -51.281  1.00  0.00    -0.333 N 
HETATM    8  H   UNL     1     -45.308  61.758 -51.833  1.00  0.00     0.168 HD
BRANCH   7   9
HETATM    9  C   UNL     1     -44.171  62.543 -50.372  1.00  0.00     0.178 C 
HETATM   10  S   UNL     1     -42.829  63.535 -50.258  1.00  0.00    -0.040 SA
BRANCH   9  11
HETATM   11  N   UNL     1     -45.111  62.728 -49.375  1.00  0.00    -0.302 N 
HETATM   12  C   UNL     1     -46.493  62.598 -49.393  1.00  0.00     0.248 C 
HETATM   13  O   UNL     1     -47.136  62.376 -50.417  1.00  0.00    -0.271 OA
HETATM   14  H   UNL     1     -44.684  62.909 -48.476  1.00  0.00     0.171 HD
BRANCH  12  15
HETATM   15  C   UNL     1     -47.150  62.842 -48.028  1.00  0.00     0.278 C 
BRANCH  15  16
HETATM   16  O   UNL     1     -46.998  61.728 -47.146  1.00  0.00    -0.342 OA
BRANCH  16  17
HETATM   17  C   UNL     1     -46.051  61.872 -46.170  1.00  0.00     0.069 A 
HETATM   18  C   UNL     1     -45.957  63.135 -45.585  1.00  0.00     0.044 A 
HETATM   19  C   UNL     1     -45.076  63.373 -44.519  1.00  0.00    -0.053 A 
HETATM   20  C   UNL     1     -44.248  62.326 -44.069  1.00  0.00    -0.056 A 
HETATM   21  C   UNL     1     -45.074  64.723 -43.854  1.00  0.00     0.049 C 
HETATM   22  C   UNL     1     -43.293  62.520 -42.923  1.00  0.00     0.049 C 
HETATM   23  C   UNL     1     -44.302  61.081 -44.718  1.00  0.00     0.010 A 
HETATM   24  C   UNL     1     -45.197  60.854 -45.765  1.00  0.00     0.037 A 
ENDBRANCH  16  17
ENDBRANCH  15  16
ENDBRANCH  12  15
ENDBRANCH   9  11
ENDBRANCH   7   9
ENDBRANCH   1   7
BRANCH   3  25
HETATM   25  O   UNL     1     -44.562  56.689 -51.208  1.00  0.00    -0.360 OA
HETATM   26  H   UNL     1     -45.159  56.437 -51.932  1.00  0.00     0.217 HD
ENDBRANCH   3  25
BRANCH   4  27
HETATM   27  C   UNL     1     -42.048  56.539 -52.538  1.00  0.00     0.183 A 
HETATM   28  O   UNL     1     -41.741  56.400 -53.872  1.00  0.00    -0.289 OA
HETATM   29  C   UNL     1     -41.175  55.159 -53.948  1.00  0.00     0.106 A 
HETATM   30  C   UNL     1     -41.193  54.607 -52.681  1.00  0.00     0.094 A 
HETATM   31  C   UNL     1     -40.657  54.530 -55.071  1.00  0.00     0.040 A 
HETATM   32  N   UNL     1     -41.761  55.482 -51.798  1.00  0.00    -0.221 NA
HETATM   33  C   UNL     1     -40.663  53.325 -52.485  1.00  0.00     0.042 A 
HETATM   34  C   UNL     1     -40.119  52.637 -53.589  1.00  0.00    -0.052 A 
HETATM   35  C   UNL     1     -40.123  53.248 -54.860  1.00  0.00     0.010 A 
BRANCH  34  36
HETATM   36  C   UNL     1     -39.531  51.252 -53.369  1.00  0.00     0.010 C 
HETATM   37  C   UNL     1     -39.620  50.826 -51.902  1.00  0.00     0.015 C 
HETATM   38  C   UNL     1     -40.186  50.214 -54.284  1.00  0.00     0.015 C 
ENDBRANCH  34  36
ENDBRANCH   4  27
TORSDOF 9
ENDMDL
MODEL 3
REMARK VINA RESULT:      -9.2      4.765      9.006
REMARK  9 active torsions:
REMARK  status: ('A' for Active; 'I' for Inactive)
REMARK    1  A    between atoms: C_6  and  O_7 
REMARK    2  A    between atoms: O_7  and  C_8 
REMARK    3  A    between atoms: C_8  and  C_9 
REMARK       I    between atoms: C_9  and  N_10 
REMARK    4  A    between atoms: N_10  and  C_11 
REMARK    5  A    between atoms: C_11  and  N_12 
REMARK    6  A    between atoms: N_12  and  C_13 
REMARK    7  A    between atoms: C_15  and  O_16 
REMARK    8  A    between atoms: C_17  and  C_18 
REMARK    9  A    between atoms: C_25  and  C_26 
ROOT
HETATM    1  C   UNL     1     -44.475  57.579 -55.246  1.00  0.00     0.036 A 
HETATM    2  C   UNL     1     -44.556  56.958 -54.001  1.00  0.00     0.067 A 
HETATM    3  C   UNL     1     -44.675  57.713 -52.829  1.00  0.00     0.082 A 
HETATM    4  C   UNL     1     -44.738  59.110 -52.864  1.00  0.00     0.050 A 
HETATM    5  C   UNL     1     -44.724  59.731 -54.122  1.00  0.00     0.021 A 
HETATM    6  C   UNL     1     -44.598  58.973 -55.297  1.00  0.00     0.030 A 
ENDROOT
BRANCH   1   7
HETATM    7  N   UNL     1     -44.301  56.902 -56.474  1.00  0.00    -0.333 N 
HETATM    8  H   UNL     1     -45.169  56.612 -56.929  1.00  0.00     0.168 HD
BRANCH   7   9
HETATM    9  C   UNL     1     -43.182  56.643 -57.231  1.00  0.00     0.178 C 
HETATM   10  S   UNL     1     -42.895  56.899 -58.860  1.00  0.00    -0.040 SA
BRANCH   9  11
HETATM   11  N   UNL     1     -42.136  56.050 -56.548  1.00  0.00    -0.302 N 
HETATM   12  C   UNL     1     -42.080  54.868 -55.822  1.00  0.00     0.248 C 
HETATM   13  O   UNL     1     -43.068  54.175 -55.584  1.00  0.00    -0.271 OA
HETATM   14  H   UNL     1     -41.263  56.540 -56.686  1.00  0.00     0.171 HD
BRANCH  12  15
HETATM   15  C   UNL     1     -40.683  54.551 -55.272  1.00  0.00     0.278 C 
BRANCH  15  16
HETATM   16  O   UNL     1     -40.612  54.698 -53.853  1.00  0.00    -0.342 OA
BRANCH  16  17
HETATM   17  C   UNL     1     -40.376  53.549 -53.151  1.00  0.00     0.069 A 
HETATM   18  C   UNL     1     -40.132  52.403 -53.909  1.00  0.00     0.044 A 
HETATM   19  C   UNL     1     -39.799  51.187 -53.292  1.00  0.00    -0.053 A 
HETATM   20  C   UNL     1     -39.755  51.122 -51.886  1.00  0.00    -0.056 A 
HETATM   21  C   UNL     1     -39.449  50.000 -54.150  1.00  0.00     0.049 C 
HETATM   22  C   UNL     1     -39.393  49.849 -51.172  1.00  0.00     0.049 C 
HETATM   23  C   UNL     1     -40.077  52.266 -51.136  1.00  0.00     0.010 A 
HETATM   24  C   UNL     1     -40.389  53.474 -51.764  1.00  0.00     0.037 A 
ENDBRANCH  16  17
ENDBRANCH  15  16
ENDBRANCH  12  15
ENDBRANCH   9  11
ENDBRANCH   7   9
ENDBRANCH   1   7
BRANCH   3  25
HETATM   25  O   UNL     1     -44.762  57.051 -51.632  1.00  0.00    -0.360 OA
HETATM   26  H   UNL     1     -43.898  57.068 -51.188  1.00  0.00     0.217 HD
ENDBRANCH   3  25
BRANCH   4  27
HETATM   27  C   UNL     1     -44.781  59.899 -51.637  1.00  0.00     0.183 A 
HETATM   28  O   UNL     1     -44.136  61.114 -51.664  1.00  0.00    -0.289 OA
HETATM   29  C   UNL     1     -44.364  61.632 -50.421  1.00  0.00     0.106 A 
HETATM   30  C   UNL     1     -45.101  60.707 -49.706  1.00  0.00     0.094 A 
HETATM   31  C   UNL     1     -43.954  62.861 -49.925  1.00  0.00     0.040 A 
HETATM   32  N   UNL     1     -45.347  59.607 -50.479  1.00  0.00    -0.221 NA
HETATM   33  C   UNL     1     -45.472  60.998 -48.387  1.00  0.00     0.042 A 
HETATM   34  C   UNL     1     -45.087  62.235 -47.829  1.00  0.00    -0.052 A 
HETATM   35  C   UNL     1     -44.339  63.145 -48.604  1.00  0.00     0.010 A 
BRANCH  34  36
HETATM   36  C   UNL     1     -45.506  62.554 -46.402  1.00  0.00     0.010 C 
HETATM   37  C   UNL     1     -45.406  64.052 -46.105  1.00  0.00     0.015 C 
HETATM   38  C   UNL     1     -46.910  62.026 -46.100  1.00  0.00     0.015 C 
ENDBRANCH  34  36
ENDBRANCH   4  27
TORSDOF 9
ENDMDL
MODEL 4
REMARK VINA RESULT:      -9.1      2.086      3.016
REMARK  9 active torsions:
REMARK  status: ('A' for Active; 'I' for Inactive)
REMARK    1  A    between atoms: C_6  and  O_7 
REMARK    2  A    between atoms: O_7  and  C_8 
REMARK    3  A    between atoms: C_8  and  C_9 
REMARK       I    between atoms: C_9  and  N_10 
REMARK    4  A    between atoms: N_10  and  C_11 
REMARK    5  A    between atoms: C_11  and  N_12 
REMARK    6  A    between atoms: N_12  and  C_13 
REMARK    7  A    between atoms: C_15  and  O_16 
REMARK    8  A    between atoms: C_17  and  C_18 
REMARK    9  A    between atoms: C_25  and  C_26 
ROOT
HETATM    1  C   UNL     1     -43.316  59.962 -52.543  1.00  0.00     0.036 A 
HETATM    2  C   UNL     1     -44.103  58.846 -52.815  1.00  0.00     0.067 A 
HETATM    3  C   UNL     1     -43.559  57.557 -52.777  1.00  0.00     0.082 A 
HETATM    4  C   UNL     1     -42.216  57.342 -52.447  1.00  0.00     0.050 A 
HETATM    5  C   UNL     1     -41.442  58.461 -52.109  1.00  0.00     0.021 A 
HETATM    6  C   UNL     1     -41.987  59.754 -52.153  1.00  0.00     0.030 A 
ENDROOT
BRANCH   1   7
HETATM    7  N   UNL     1     -43.766  61.301 -52.608  1.00  0.00    -0.333 N 
HETATM    8  H   UNL     1     -44.567  61.511 -52.010  1.00  0.00     0.168 HD
BRANCH   7   9
HETATM    9  C   UNL     1     -43.266  62.409 -53.253  1.00  0.00     0.178 C 
HETATM   10  S   UNL     1     -43.180  64.004 -52.753  1.00  0.00    -0.040 SA
BRANCH   9  11
HETATM   11  N   UNL     1     -42.784  62.178 -54.528  1.00  0.00    -0.302 N 
HETATM   12  C   UNL     1     -43.443  61.826 -55.698  1.00  0.00     0.248 C 
HETATM   13  O   UNL     1     -44.641  61.552 -55.742  1.00  0.00    -0.271 OA
HETATM   14  H   UNL     1     -41.798  62.386 -54.607  1.00  0.00     0.171 HD
BRANCH  12  15
HETATM   15  C   UNL     1     -42.518  61.731 -56.918  1.00  0.00     0.278 C 
BRANCH  15  16
HETATM   16  O   UNL     1     -41.556  60.682 -56.789  1.00  0.00    -0.342 OA
BRANCH  16  17
HETATM   17  C   UNL     1     -42.012  59.424 -57.069  1.00  0.00     0.069 A 
HETATM   18  C   UNL     1     -41.996  59.047 -58.413  1.00  0.00     0.044 A 
HETATM   19  C   UNL     1     -42.366  57.751 -58.803  1.00  0.00    -0.053 A 
HETATM   20  C   UNL     1     -42.798  56.838 -57.822  1.00  0.00    -0.056 A 
HETATM   21  C   UNL     1     -42.243  57.357 -60.251  1.00  0.00     0.049 C 
HETATM   22  C   UNL     1     -43.195  55.432 -58.182  1.00  0.00     0.049 C 
HETATM   23  C   UNL     1     -42.880  57.256 -56.483  1.00  0.00     0.010 A 
HETATM   24  C   UNL     1     -42.491  58.543 -56.107  1.00  0.00     0.037 A 
ENDBRANCH  16  17
ENDBRANCH  15  16
ENDBRANCH  12  15
ENDBRANCH   9  11
ENDBRANCH   7   9
ENDBRANCH   1   7
BRANCH   3  25
HETATM   25  O   UNL     1     -44.380  56.493 -53.042  1.00  0.00    -0.360 OA
HETATM   26  H   UNL     1     -44.294  55.832 -52.336  1.00  0.00     0.217 HD
ENDBRANCH   3  25
BRANCH   4  27
HETATM   27  C   UNL     1     -41.630  56.006 -52.487  1.00  0.00     0.183 A 
HETATM   28  O   UNL     1     -41.147  55.510 -51.298  1.00  0.00    -0.289 OA
HETATM   29  C   UNL     1     -40.698  54.262 -51.624  1.00  0.00     0.106 A 
HETATM   30  C   UNL     1     -40.903  54.079 -52.979  1.00  0.00     0.094 A 
HETATM   31  C   UNL     1     -40.137  53.314 -50.780  1.00  0.00     0.040 A 
HETATM   32  N   UNL     1     -41.479  55.194 -53.519  1.00  0.00    -0.221 NA
HETATM   33  C   UNL     1     -40.526  52.867 -53.571  1.00  0.00     0.042 A 
HETATM   34  C   UNL     1     -39.953  51.863 -52.763  1.00  0.00    -0.052 A 
HETATM   35  C   UNL     1     -39.769  52.101 -51.384  1.00  0.00     0.010 A 
BRANCH  34  36
HETATM   36  C   UNL     1     -39.559  50.543 -53.406  1.00  0.00     0.010 C 
HETATM   37  C   UNL     1     -39.549  49.398 -52.391  1.00  0.00     0.015 C 
HETATM   38  C   UNL     1     -40.459  50.212 -54.599  1.00  0.00     0.015 C 
ENDBRANCH  34  36
ENDBRANCH   4  27
TORSDOF 9
ENDMDL
MODEL 5
REMARK VINA RESULT:      -9.0      1.370      1.851
REMARK  9 active torsions:
REMARK  status: ('A' for Active; 'I' for Inactive)
REMARK    1  A    between atoms: C_6  and  O_7 
REMARK    2  A    between atoms: O_7  and  C_8 
REMARK    3  A    between atoms: C_8  and  C_9 
REMARK       I    between atoms: C_9  and  N_10 
REMARK    4  A    between atoms: N_10  and  C_11 
REMARK    5  A    between atoms: C_11  and  N_12 
REMARK    6  A    between atoms: N_12  and  C_13 
REMARK    7  A    between atoms: C_15  and  O_16 
REMARK    8  A    between atoms: C_17  and  C_18 
REMARK    9  A    between atoms: C_25  and  C_26 
ROOT
HETATM    1  C   UNL     1     -43.825  59.445 -54.933  1.00  0.00     0.036 A 
HETATM    2  C   UNL     1     -44.537  58.248 -54.901  1.00  0.00     0.067 A 
HETATM    3  C   UNL     1     -43.909  57.050 -54.542  1.00  0.00     0.082 A 
HETATM    4  C   UNL     1     -42.556  57.014 -54.184  1.00  0.00     0.050 A 
HETATM    5  C   UNL     1     -41.859  58.230 -54.153  1.00  0.00     0.021 A 
HETATM    6  C   UNL     1     -42.488  59.430 -54.520  1.00  0.00     0.030 A 
ENDROOT
BRANCH   1   7
HETATM    7  N   UNL     1     -44.362  60.691 -55.334  1.00  0.00    -0.333 N 
HETATM    8  H   UNL     1     -45.145  61.020 -54.765  1.00  0.00     0.168 HD
BRANCH   7   9
HETATM    9  C   UNL     1     -43.966  61.600 -56.287  1.00  0.00     0.178 C 
HETATM   10  S   UNL     1     -43.775  63.259 -56.186  1.00  0.00    -0.040 SA
BRANCH   9  11
HETATM   11  N   UNL     1     -43.713  61.065 -57.537  1.00  0.00    -0.302 N 
HETATM   12  C   UNL     1     -44.533  60.360 -58.407  1.00  0.00     0.248 C 
HETATM   13  O   UNL     1     -45.672  59.997 -58.115  1.00  0.00    -0.271 OA
HETATM   14  H   UNL     1     -42.796  61.315 -57.881  1.00  0.00     0.171 HD
BRANCH  12  15
HETATM   15  C   UNL     1     -43.856  60.003 -59.736  1.00  0.00     0.278 C 
BRANCH  15  16
HETATM   16  O   UNL     1     -42.796  59.059 -59.569  1.00  0.00    -0.342 OA
BRANCH  16  17
HETATM   17  C   UNL     1     -43.185  57.766 -59.354  1.00  0.00     0.069 A 
HETATM   18  C   UNL     1     -43.990  57.193 -60.339  1.00  0.00     0.044 A 
HETATM   19  C   UNL     1     -44.380  55.847 -60.259  1.00  0.00    -0.053 A 
HETATM   20  C   UNL     1     -43.983  55.084 -59.144  1.00  0.00    -0.056 A 
HETATM   21  C   UNL     1     -45.169  55.243 -61.390  1.00  0.00     0.049 C 
HETATM   22  C   UNL     1     -44.361  53.634 -59.012  1.00  0.00     0.049 C 
HETATM   23  C   UNL     1     -43.234  55.697 -58.124  1.00  0.00     0.010 A 
HETATM   24  C   UNL     1     -42.839  57.032 -58.226  1.00  0.00     0.037 A 
ENDBRANCH  16  17
ENDBRANCH  15  16
ENDBRANCH  12  15
ENDBRANCH   9  11
ENDBRANCH   7   9
ENDBRANCH   1   7
BRANCH   3  25
HETATM   25  O   UNL     1     -44.657  55.902 -54.516  1.00  0.00    -0.360 OA
HETATM   26  H   UNL     1     -45.578  56.120 -54.298  1.00  0.00     0.217 HD
ENDBRANCH   3  25
BRANCH   4  27
HETATM   27  C   UNL     1     -41.883  55.753 -53.889  1.00  0.00     0.183 A 
HETATM   28  O   UNL     1     -41.480  55.561 -52.588  1.00  0.00    -0.289 OA
HETATM   29  C   UNL     1     -40.923  54.313 -52.600  1.00  0.00     0.106 A 
HETATM   30  C   UNL     1     -40.992  53.832 -53.894  1.00  0.00     0.094 A 
HETATM   31  C   UNL     1     -40.380  53.616 -51.531  1.00  0.00     0.040 A 
HETATM   32  N   UNL     1     -41.587  54.756 -54.705  1.00  0.00    -0.221 NA
HETATM   33  C   UNL     1     -40.484  52.558 -54.178  1.00  0.00     0.042 A 
HETATM   34  C   UNL     1     -39.923  51.798 -53.130  1.00  0.00    -0.052 A 
HETATM   35  C   UNL     1     -39.881  52.337 -51.827  1.00  0.00     0.010 A 
BRANCH  34  36
HETATM   36  C   UNL     1     -39.388  50.410 -53.440  1.00  0.00     0.010 C 
HETATM   37  C   UNL     1     -39.630  49.438 -52.283  1.00  0.00     0.015 C 
HETATM   38  C   UNL     1     -39.969  49.865 -54.747  1.00  0.00     0.015 C 
ENDBRANCH  34  36
ENDBRANCH   4  27
TORSDOF 9
ENDMDL
MODEL 6
REMARK VINA RESULT:      -8.7      1.672      2.454
REMARK  9 active torsions:
REMARK  status: ('A' for Active; 'I' for Inactive)
REMARK    1  A    between atoms: C_6  and  O_7 
REMARK    2  A    between atoms: O_7  and  C_8 
REMARK    3  A    between atoms: C_8  and  C_9 
REMARK       I    between atoms: C_9  and  N_10 
REMARK    4  A    between atoms: N_10  and  C_11 
REMARK    5  A    between atoms: C_11  and  N_12 
REMARK    6  A    between atoms: N_12  and  C_13 
REMARK    7  A    between atoms: C_15  and  O_16 
REMARK    8  A    between atoms: C_17  and  C_18 
REMARK    9  A    between atoms: C_25  and  C_26 
ROOT
HETATM    1  C   UNL     1     -43.374  59.891 -53.878  1.00  0.00     0.036 A 
HETATM    2  C   UNL     1     -44.187  58.817 -53.520  1.00  0.00     0.067 A 
HETATM    3  C   UNL     1     -43.640  57.553 -53.276  1.00  0.00     0.082 A 
HETATM    4  C   UNL     1     -42.261  57.326 -53.361  1.00  0.00     0.050 A 
HETATM    5  C   UNL     1     -41.438  58.422 -53.656  1.00  0.00     0.021 A 
HETATM    6  C   UNL     1     -41.989  59.689 -53.908  1.00  0.00     0.030 A 
ENDROOT
BRANCH   1   7
HETATM    7  N   UNL     1     -43.843  61.186 -54.194  1.00  0.00    -0.333 N 
HETATM    8  H   UNL     1     -44.736  61.434 -53.763  1.00  0.00     0.168 HD
BRANCH   7   9
HETATM    9  C   UNL     1     -43.275  62.225 -54.896  1.00  0.00     0.178 C 
HETATM   10  S   UNL     1     -43.288  63.870 -54.594  1.00  0.00    -0.040 SA
BRANCH   9  11
HETATM   11  N   UNL     1     -42.613  61.857 -56.053  1.00  0.00    -0.302 N 
HETATM   12  C   UNL     1     -42.994  61.945 -57.386  1.00  0.00     0.248 C 
HETATM   13  O   UNL     1     -44.114  62.304 -57.744  1.00  0.00    -0.271 OA
HETATM   14  H   UNL     1     -41.667  61.552 -55.871  1.00  0.00     0.171 HD
BRANCH  12  15
HETATM   15  C   UNL     1     -41.913  61.471 -58.365  1.00  0.00     0.278 C 
BRANCH  15  16
HETATM   16  O   UNL     1     -41.266  60.276 -57.924  1.00  0.00    -0.342 OA
BRANCH  16  17
HETATM   17  C   UNL     1     -41.790  59.108 -58.406  1.00  0.00     0.069 A 
HETATM   18  C   UNL     1     -42.174  58.165 -57.452  1.00  0.00     0.044 A 
HETATM   19  C   UNL     1     -42.796  56.967 -57.832  1.00  0.00    -0.053 A 
HETATM   20  C   UNL     1     -42.995  56.702 -59.201  1.00  0.00    -0.056 A 
HETATM   21  C   UNL     1     -43.280  56.020 -56.766  1.00  0.00     0.049 C 
HETATM   22  C   UNL     1     -43.668  55.439 -59.665  1.00  0.00     0.049 C 
HETATM   23  C   UNL     1     -42.536  57.629 -60.153  1.00  0.00     0.010 A 
HETATM   24  C   UNL     1     -41.934  58.826 -59.759  1.00  0.00     0.037 A 
ENDBRANCH  16  17
ENDBRANCH  15  16
ENDBRANCH  12  15
ENDBRANCH   9  11
ENDBRANCH   7   9
ENDBRANCH   1   7
BRANCH   3  25
HETATM   25  O   UNL     1     -44.483  56.535 -52.916  1.00  0.00    -0.360 OA
HETATM   26  H   UNL     1     -45.329  56.904 -52.614  1.00  0.00     0.217 HD
ENDBRANCH   3  25
BRANCH   4  27
HETATM   27  C   UNL     1     -41.701  55.990 -53.186  1.00  0.00     0.183 A 
HETATM   28  O   UNL     1     -41.279  55.345 -54.326  1.00  0.00    -0.289 OA
HETATM   29  C   UNL     1     -40.784  54.158 -53.865  1.00  0.00     0.106 A 
HETATM   30  C   UNL     1     -40.953  54.134 -52.493  1.00  0.00     0.094 A 
HETATM   31  C   UNL     1     -40.202  53.137 -54.602  1.00  0.00     0.040 A 
HETATM   32  N   UNL     1     -41.548  55.290 -52.074  1.00  0.00    -0.221 NA
HETATM   33  C   UNL     1     -40.522  53.014 -51.770  1.00  0.00     0.042 A 
HETATM   34  C   UNL     1     -39.919  51.945 -52.465  1.00  0.00    -0.052 A 
HETATM   35  C   UNL     1     -39.768  52.024 -53.865  1.00  0.00     0.010 A 
BRANCH  34  36
HETATM   36  C   UNL     1     -39.438  50.738 -51.674  1.00  0.00     0.010 C 
HETATM   37  C   UNL     1     -40.137  50.635 -50.317  1.00  0.00     0.015 C 
HETATM   38  C   UNL     1     -39.600  49.444 -52.476  1.00  0.00     0.015 C 
ENDBRANCH  34  36
ENDBRANCH   4  27
TORSDOF 9
ENDMDL
MODEL 7
REMARK VINA RESULT:      -8.6      2.810      4.982
REMARK  9 active torsions:
REMARK  status: ('A' for Active; 'I' for Inactive)
REMARK    1  A    between atoms: C_6  and  O_7 
REMARK    2  A    between atoms: O_7  and  C_8 
REMARK    3  A    between atoms: C_8  and  C_9 
REMARK       I    between atoms: C_9  and  N_10 
REMARK    4  A    between atoms: N_10  and  C_11 
REMARK    5  A    between atoms: C_11  and  N_12 
REMARK    6  A    between atoms: N_12  and  C_13 
REMARK    7  A    between atoms: C_15  and  O_16 
REMARK    8  A    between atoms: C_17  and  C_18 
REMARK    9  A    between atoms: C_25  and  C_26 
ROOT
HETATM    1  C   UNL     1     -45.349  58.491 -56.210  1.00  0.00     0.036 A 
HETATM    2  C   UNL     1     -45.428  58.089 -54.878  1.00  0.00     0.067 A 
HETATM    3  C   UNL     1     -44.552  57.126 -54.366  1.00  0.00     0.082 A 
HETATM    4  C   UNL     1     -43.557  56.549 -55.162  1.00  0.00     0.050 A 
HETATM    5  C   UNL     1     -43.436  57.002 -56.484  1.00  0.00     0.021 A 
HETATM    6  C   UNL     1     -44.319  57.964 -56.998  1.00  0.00     0.030 A 
ENDROOT
BRANCH   1   7
HETATM    7  N   UNL     1     -46.224  59.416 -56.826  1.00  0.00    -0.333 N 
HETATM    8  H   UNL     1     -47.044  58.998 -57.268  1.00  0.00     0.168 HD
BRANCH   7   9
HETATM    9  C   UNL     1     -46.234  60.791 -56.856  1.00  0.00     0.178 C 
HETATM   10  S   UNL     1     -47.009  61.844 -57.901  1.00  0.00    -0.040 SA
BRANCH   9  11
HETATM   11  N   UNL     1     -45.458  61.405 -55.891  1.00  0.00    -0.302 N 
HETATM   12  C   UNL     1     -45.799  61.940 -54.656  1.00  0.00     0.248 C 
HETATM   13  O   UNL     1     -46.960  62.038 -54.261  1.00  0.00    -0.271 OA
HETATM   14  H   UNL     1     -44.473  61.371 -56.114  1.00  0.00     0.171 HD
BRANCH  12  15
HETATM   15  C   UNL     1     -44.599  62.476 -53.866  1.00  0.00     0.278 C 
BRANCH  15  16
HETATM   16  O   UNL     1     -43.387  61.790 -54.189  1.00  0.00    -0.342 OA
BRANCH  16  17
HETATM   17  C   UNL     1     -43.030  60.786 -53.333  1.00  0.00     0.069 A 
HETATM   18  C   UNL     1     -41.929  60.016 -53.711  1.00  0.00     0.044 A 
HETATM   19  C   UNL     1     -41.428  59.012 -52.869  1.00  0.00    -0.053 A 
HETATM   20  C   UNL     1     -42.077  58.756 -51.646  1.00  0.00    -0.056 A 
HETATM   21  C   UNL     1     -40.181  58.271 -53.271  1.00  0.00     0.049 C 
HETATM   22  C   UNL     1     -41.577  57.700 -50.699  1.00  0.00     0.049 C 
HETATM   23  C   UNL     1     -43.230  59.489 -51.314  1.00  0.00     0.010 A 
HETATM   24  C   UNL     1     -43.706  60.498 -52.154  1.00  0.00     0.037 A 
ENDBRANCH  16  17
ENDBRANCH  15  16
ENDBRANCH  12  15
ENDBRANCH   9  11
ENDBRANCH   7   9
ENDBRANCH   1   7
BRANCH   3  25
HETATM   25  O   UNL     1     -44.666  56.775 -53.046  1.00  0.00    -0.360 OA
HETATM   26  H   UNL     1     -45.465  57.180 -52.670  1.00  0.00     0.217 HD
ENDBRANCH   3  25
BRANCH   4  27
HETATM   27  C   UNL     1     -42.697  55.486 -54.650  1.00  0.00     0.183 A 
HETATM   28  O   UNL     1     -42.257  55.622 -53.353  1.00  0.00    -0.289 OA
HETATM   29  C   UNL     1     -41.517  54.494 -53.140  1.00  0.00     0.106 A 
HETATM   30  C   UNL     1     -41.523  53.757 -54.310  1.00  0.00     0.094 A 
HETATM   31  C   UNL     1     -40.865  54.113 -51.976  1.00  0.00     0.040 A 
HETATM   32  N   UNL     1     -42.259  54.400 -55.264  1.00  0.00    -0.221 NA
HETATM   33  C   UNL     1     -40.830  52.540 -54.356  1.00  0.00     0.042 A 
HETATM   34  C   UNL     1     -40.151  52.099 -53.202  1.00  0.00    -0.052 A 
HETATM   35  C   UNL     1     -40.180  52.889 -52.033  1.00  0.00     0.010 A 
BRANCH  34  36
HETATM   36  C   UNL     1     -39.413  50.770 -53.252  1.00  0.00     0.010 C 
HETATM   37  C   UNL     1     -39.531  50.007 -51.931  1.00  0.00     0.015 C 
HETATM   38  C   UNL     1     -39.885  49.912 -54.427  1.00  0.00     0.015 C 
ENDBRANCH  34  36
ENDBRANCH   4  27
TORSDOF 9
ENDMDL
MODEL 8
REMARK VINA RESULT:      -8.6      6.761      9.744
REMARK  9 active torsions:
REMARK  status: ('A' for Active; 'I' for Inactive)
REMARK    1  A    between atoms: C_6  and  O_7 
REMARK    2  A    between atoms: O_7  and  C_8 
REMARK    3  A    between atoms: C_8  and  C_9 
REMARK       I    between atoms: C_9  and  N_10 
REMARK    4  A    between atoms: N_10  and  C_11 
REMARK    5  A    between atoms: C_11  and  N_12 
REMARK    6  A    between atoms: N_12  and  C_13 
REMARK    7  A    between atoms: C_15  and  O_16 
REMARK    8  A    between atoms: C_17  and  C_18 
REMARK    9  A    between atoms: C_25  and  C_26 
ROOT
HETATM    1  C   UNL     1     -43.438  60.214 -51.737  1.00  0.00     0.036 A 
HETATM    2  C   UNL     1     -42.515  59.659 -50.852  1.00  0.00     0.067 A 
HETATM    3  C   UNL     1     -41.945  58.406 -51.102  1.00  0.00     0.082 A 
HETATM    4  C   UNL     1     -42.263  57.677 -52.253  1.00  0.00     0.050 A 
HETATM    5  C   UNL     1     -43.141  58.265 -53.175  1.00  0.00     0.021 A 
HETATM    6  C   UNL     1     -43.718  59.520 -52.920  1.00  0.00     0.030 A 
ENDROOT
BRANCH   1   7
HETATM    7  N   UNL     1     -44.103  61.446 -51.540  1.00  0.00    -0.333 N 
HETATM    8  H   UNL     1     -43.567  62.269 -51.821  1.00  0.00     0.168 HD
BRANCH   7   9
HETATM    9  C   UNL     1     -45.382  61.747 -51.133  1.00  0.00     0.178 C 
HETATM   10  S   UNL     1     -46.743  62.121 -52.031  1.00  0.00    -0.040 SA
BRANCH   9  11
HETATM   11  N   UNL     1     -45.570  61.774 -49.763  1.00  0.00    -0.302 N 
HETATM   12  C   UNL     1     -45.733  60.743 -48.847  1.00  0.00     0.248 C 
HETATM   13  O   UNL     1     -45.841  59.562 -49.174  1.00  0.00    -0.271 OA
HETATM   14  H   UNL     1     -45.490  62.708 -49.385  1.00  0.00     0.171 HD
BRANCH  12  15
HETATM   15  C   UNL     1     -45.851  61.224 -47.396  1.00  0.00     0.278 C 
BRANCH  15  16
HETATM   16  O   UNL     1     -45.985  62.644 -47.303  1.00  0.00    -0.342 OA
BRANCH  16  17
HETATM   17  C   UNL     1     -45.914  63.163 -46.040  1.00  0.00     0.069 A 
HETATM   18  C   UNL     1     -44.930  62.628 -45.208  1.00  0.00     0.044 A 
HETATM   19  C   UNL     1     -44.717  63.142 -43.920  1.00  0.00    -0.053 A 
HETATM   20  C   UNL     1     -45.541  64.185 -43.454  1.00  0.00    -0.056 A 
HETATM   21  C   UNL     1     -43.582  62.601 -43.092  1.00  0.00     0.049 C 
HETATM   22  C   UNL     1     -45.350  64.782 -42.087  1.00  0.00     0.049 C 
HETATM   23  C   UNL     1     -46.576  64.661 -44.276  1.00  0.00     0.010 A 
HETATM   24  C   UNL     1     -46.765  64.152 -45.563  1.00  0.00     0.037 A 
ENDBRANCH  16  17
ENDBRANCH  15  16
ENDBRANCH  12  15
ENDBRANCH   9  11
ENDBRANCH   7   9
ENDBRANCH   1   7
BRANCH   3  25
HETATM   25  O   UNL     1     -41.035  57.912 -50.205  1.00  0.00    -0.360 OA
HETATM   26  H   UNL     1     -40.516  57.206 -50.624  1.00  0.00     0.217 HD
ENDBRANCH   3  25
BRANCH   4  27
HETATM   27  C   UNL     1     -41.731  56.336 -52.473  1.00  0.00     0.183 A 
HETATM   28  O   UNL     1     -41.633  55.919 -53.780  1.00  0.00    -0.289 OA
HETATM   29  C   UNL     1     -41.087  54.670 -53.684  1.00  0.00     0.106 A 
HETATM   30  C   UNL     1     -40.909  54.388 -52.343  1.00  0.00     0.094 A 
HETATM   31  C   UNL     1     -40.750  53.810 -54.719  1.00  0.00     0.040 A 
HETATM   32  N   UNL     1     -41.334  55.442 -51.583  1.00  0.00    -0.221 NA
HETATM   33  C   UNL     1     -40.357  53.156 -51.970  1.00  0.00     0.042 A 
HETATM   34  C   UNL     1     -39.990  52.240 -52.977  1.00  0.00    -0.052 A 
HETATM   35  C   UNL     1     -40.190  52.581 -54.332  1.00  0.00     0.010 A 
BRANCH  34  36
HETATM   36  C   UNL     1     -39.376  50.911 -52.569  1.00  0.00     0.010 C 
HETATM   37  C   UNL     1     -39.796  50.504 -51.155  1.00  0.00     0.015 C 
HETATM   38  C   UNL     1     -39.705  49.809 -53.579  1.00  0.00     0.015 C 
ENDBRANCH  34  36
ENDBRANCH   4  27
TORSDOF 9
ENDMDL
MODEL 9
REMARK VINA RESULT:      -8.6      2.769      3.954
REMARK  9 active torsions:
REMARK  status: ('A' for Active; 'I' for Inactive)
REMARK    1  A    between atoms: C_6  and  O_7 
REMARK    2  A    between atoms: O_7  and  C_8 
REMARK    3  A    between atoms: C_8  and  C_9 
REMARK       I    between atoms: C_9  and  N_10 
REMARK    4  A    between atoms: N_10  and  C_11 
REMARK    5  A    between atoms: C_11  and  N_12 
REMARK    6  A    between atoms: N_12  and  C_13 
REMARK    7  A    between atoms: C_15  and  O_16 
REMARK    8  A    between atoms: C_17  and  C_18 
REMARK    9  A    between atoms: C_25  and  C_26 
ROOT
HETATM    1  C   UNL     1     -43.572  59.957 -51.291  1.00  0.00     0.036 A 
HETATM    2  C   UNL     1     -44.270  58.766 -51.105  1.00  0.00     0.067 A 
HETATM    3  C   UNL     1     -43.694  57.537 -51.444  1.00  0.00     0.082 A 
HETATM    4  C   UNL     1     -42.396  57.457 -51.960  1.00  0.00     0.050 A 
HETATM    5  C   UNL     1     -41.670  58.651 -52.085  1.00  0.00     0.021 A 
HETATM    6  C   UNL     1     -42.251  59.884 -51.750  1.00  0.00     0.030 A 
ENDROOT
BRANCH   1   7
HETATM    7  N   UNL     1     -44.092  61.245 -51.027  1.00  0.00    -0.333 N 
HETATM    8  H   UNL     1     -43.672  61.719 -50.225  1.00  0.00     0.168 HD
BRANCH   7   9
HETATM    9  C   UNL     1     -44.992  62.031 -51.708  1.00  0.00     0.178 C 
HETATM   10  S   UNL     1     -46.229  63.003 -51.138  1.00  0.00    -0.040 SA
BRANCH   9  11
HETATM   11  N   UNL     1     -44.880  61.991 -53.086  1.00  0.00    -0.302 N 
HETATM   12  C   UNL     1     -43.890  62.470 -53.932  1.00  0.00     0.248 C 
HETATM   13  O   UNL     1     -42.938  63.145 -53.541  1.00  0.00    -0.271 OA
HETATM   14  H   UNL     1     -45.616  61.445 -53.513  1.00  0.00     0.171 HD
BRANCH  12  15
HETATM   15  C   UNL     1     -44.138  62.152 -55.411  1.00  0.00     0.278 C 
BRANCH  15  16
HETATM   16  O   UNL     1     -42.954  61.709 -56.078  1.00  0.00    -0.342 OA
BRANCH  16  17
HETATM   17  C   UNL     1     -42.884  60.366 -56.328  1.00  0.00     0.069 A 
HETATM   18  C   UNL     1     -43.680  59.548 -55.526  1.00  0.00     0.044 A 
HETATM   19  C   UNL     1     -43.746  58.164 -55.749  1.00  0.00    -0.053 A 
HETATM   20  C   UNL     1     -42.963  57.597 -56.773  1.00  0.00    -0.056 A 
HETATM   21  C   UNL     1     -44.690  57.331 -54.923  1.00  0.00     0.049 C 
HETATM   22  C   UNL     1     -43.004  56.122 -57.065  1.00  0.00     0.049 C 
HETATM   23  C   UNL     1     -42.110  58.425 -57.523  1.00  0.00     0.010 A 
HETATM   24  C   UNL     1     -42.068  59.803 -57.302  1.00  0.00     0.037 A 
ENDBRANCH  16  17
ENDBRANCH  15  16
ENDBRANCH  12  15
ENDBRANCH   9  11
ENDBRANCH   7   9
ENDBRANCH   1   7
BRANCH   3  25
HETATM   25  O   UNL     1     -44.420  56.394 -51.230  1.00  0.00    -0.360 OA
HETATM   26  H   UNL     1     -44.543  55.925 -52.071  1.00  0.00     0.217 HD
ENDBRANCH   3  25
BRANCH   4  27
HETATM   27  C   UNL     1     -41.827  56.183 -52.389  1.00  0.00     0.183 A 
HETATM   28  O   UNL     1     -41.584  56.040 -53.736  1.00  0.00    -0.289 OA
HETATM   29  C   UNL     1     -41.037  54.793 -53.838  1.00  0.00     0.106 A 
HETATM   30  C   UNL     1     -41.001  54.242 -52.570  1.00  0.00     0.094 A 
HETATM   31  C   UNL     1     -40.580  54.157 -54.983  1.00  0.00     0.040 A 
HETATM   32  N   UNL     1     -41.517  55.123 -51.663  1.00  0.00    -0.221 NA
HETATM   33  C   UNL     1     -40.477  52.954 -52.398  1.00  0.00     0.042 A 
HETATM   34  C   UNL     1     -39.994  52.258 -53.526  1.00  0.00    -0.052 A 
HETATM   35  C   UNL     1     -40.051  52.870 -54.796  1.00  0.00     0.010 A 
BRANCH  34  36
HETATM   36  C   UNL     1     -39.412  50.867 -53.333  1.00  0.00     0.010 C 
HETATM   37  C   UNL     1     -39.617  50.361 -51.903  1.00  0.00     0.015 C 
HETATM   38  C   UNL     1     -39.978  49.877 -54.353  1.00  0.00     0.015 C 
ENDBRANCH  34  36
ENDBRANCH   4  27
TORSDOF 9
ENDMDL
MODEL 10
REMARK VINA RESULT:      -8.6      2.093      2.796
REMARK  9 active torsions:
REMARK  status: ('A' for Active; 'I' for Inactive)
REMARK    1  A    between atoms: C_6  and  O_7 
REMARK    2  A    between atoms: O_7  and  C_8 
REMARK    3  A    between atoms: C_8  and  C_9 
REMARK       I    between atoms: C_9  and  N_10 
REMARK    4  A    between atoms: N_10  and  C_11 
REMARK    5  A    between atoms: C_11  and  N_12 
REMARK    6  A    between atoms: N_12  and  C_13 
REMARK    7  A    between atoms: C_15  and  O_16 
REMARK    8  A    between atoms: C_17  and  C_18 
REMARK    9  A    between atoms: C_25  and  C_26 
ROOT
HETATM    1  C   UNL     1     -45.038  58.684 -55.254  1.00  0.00     0.036 A 
HETATM    2  C   UNL     1     -45.104  58.121 -53.981  1.00  0.00     0.067 A 
HETATM    3  C   UNL     1     -44.253  57.071 -53.617  1.00  0.00     0.082 A 
HETATM    4  C   UNL     1     -43.296  56.566 -54.505  1.00  0.00     0.050 A 
HETATM    5  C   UNL     1     -43.187  57.178 -55.762  1.00  0.00     0.021 A 
HETATM    6  C   UNL     1     -44.046  58.227 -56.129  1.00  0.00     0.030 A 
ENDROOT
BRANCH   1   7
HETATM    7  N   UNL     1     -45.891  59.708 -55.726  1.00  0.00    -0.333 N 
HETATM    8  H   UNL     1     -46.853  59.653 -55.385  1.00  0.00     0.168 HD
BRANCH   7   9
HETATM    9  C   UNL     1     -45.648  60.832 -56.481  1.00  0.00     0.178 C 
HETATM   10  S   UNL     1     -45.008  62.314 -56.041  1.00  0.00    -0.040 SA
BRANCH   9  11
HETATM   11  N   UNL     1     -46.019  60.737 -57.810  1.00  0.00    -0.302 N 
HETATM   12  C   UNL     1     -47.140  60.171 -58.402  1.00  0.00     0.248 C 
HETATM   13  O   UNL     1     -47.985  59.534 -57.775  1.00  0.00    -0.271 OA
HETATM   14  H   UNL     1     -45.390  61.241 -58.419  1.00  0.00     0.171 HD
BRANCH  12  15
HETATM   15  C   UNL     1     -47.183  60.344 -59.925  1.00  0.00     0.278 C 
BRANCH  15  16
HETATM   16  O   UNL     1     -47.217  59.092 -60.614  1.00  0.00    -0.342 OA
BRANCH  16  17
HETATM   17  C   UNL     1     -46.155  58.262 -60.384  1.00  0.00     0.069 A 
HETATM   18  C   UNL     1     -44.888  58.814 -60.579  1.00  0.00     0.044 A 
HETATM   19  C   UNL     1     -43.729  58.077 -60.295  1.00  0.00    -0.053 A 
HETATM   20  C   UNL     1     -43.854  56.748 -59.847  1.00  0.00    -0.056 A 
HETATM   21  C   UNL     1     -42.385  58.742 -60.428  1.00  0.00     0.049 C 
HETATM   22  C   UNL     1     -42.646  55.916 -59.515  1.00  0.00     0.049 C 
HETATM   23  C   UNL     1     -45.136  56.183 -59.726  1.00  0.00     0.010 A 
HETATM   24  C   UNL     1     -46.281  56.934 -59.995  1.00  0.00     0.037 A 
ENDBRANCH  16  17
ENDBRANCH  15  16
ENDBRANCH  12  15
ENDBRANCH   9  11
ENDBRANCH   7   9
ENDBRANCH   1   7
BRANCH   3  25
HETATM   25  O   UNL     1     -44.351  56.561 -52.349  1.00  0.00    -0.360 OA
HETATM   26  H   UNL     1     -43.863  57.129 -51.731  1.00  0.00     0.217 HD
ENDBRANCH   3  25
BRANCH   4  27
HETATM   27  C   UNL     1     -42.465  55.419 -54.152  1.00  0.00     0.183 A 
HETATM   28  O   UNL     1     -41.866  55.451 -52.914  1.00  0.00    -0.289 OA
HETATM   29  C   UNL     1     -41.193  54.263 -52.847  1.00  0.00     0.106 A 
HETATM   30  C   UNL     1     -41.395  53.596 -54.040  1.00  0.00     0.094 A 
HETATM   31  C   UNL     1     -40.439  53.774 -51.791  1.00  0.00     0.040 A 
HETATM   32  N   UNL     1     -42.188  54.341 -54.866  1.00  0.00    -0.221 NA
HETATM   33  C   UNL     1     -40.806  52.338 -54.229  1.00  0.00     0.042 A 
HETATM   34  C   UNL     1     -40.030  51.786 -53.188  1.00  0.00    -0.052 A 
HETATM   35  C   UNL     1     -39.861  52.510 -51.989  1.00  0.00     0.010 A 
BRANCH  34  36
HETATM   36  C   UNL     1     -39.407  50.414 -53.390  1.00  0.00     0.010 C 
HETATM   37  C   UNL     1     -39.733  49.468 -52.233  1.00  0.00     0.015 C 
HETATM   38  C   UNL     1     -39.820  49.805 -54.732  1.00  0.00     0.015 C 
ENDBRANCH  34  36
ENDBRANCH   4  27
TORSDOF 9
ENDMDL
