MODEL 1
REMARK VINA RESULT:      -8.4      0.000      0.000
REMARK  4 active torsions:
REMARK  status: ('A' for Active; 'I' for Inactive)
REMARK    1  A    between atoms: C_5  and  N_6 
REMARK    2  A    between atoms: C_11  and  C_12 
REMARK    3  A    between atoms: C_13  and  O_14 
REMARK    4  A    between atoms: C_18  and  C_19 
REMARK       I    between atoms: C_19  and  N_20 
ROOT
HETATM    1  C   UNL     1     -43.858  58.587 -51.910  1.00  0.00     0.023 A 
HETATM    2  C   UNL     1     -44.831  58.327 -51.006  1.00  0.00     0.153 A 
HETATM    3  N   UNL     1     -45.311  59.293 -50.188  1.00  0.00    -0.303 N 
HETATM    4  C   UNL     1     -44.922  60.599 -50.215  1.00  0.00     0.263 A 
HETATM    5  O   UNL     1     -45.407  61.414 -49.433  1.00  0.00    -0.267 OA
HETATM    6  C   UNL     1     -43.883  60.971 -51.232  1.00  0.00     0.106 A 
HETATM    7  C   UNL     1     -43.350  59.982 -51.998  1.00  0.00    -0.026 A 
HETATM    8  C   UNL     1     -42.216  60.199 -52.978  1.00  0.00     0.050 C 
HETATM    9  H   UNL     1     -46.029  59.039 -49.521  1.00  0.00     0.171 HD
ENDROOT
BRANCH   1  10
HETATM   10  C   UNL     1     -43.377  57.507 -52.762  1.00  0.00     0.035 C 
HETATM   11  C   UNL     1     -42.410  56.623 -52.486  1.00  0.00     0.061 A 
HETATM   12  C   UNL     1     -41.494  56.435 -51.351  1.00  0.00     0.067 A 
HETATM   13  C   UNL     1     -42.144  55.465 -53.376  1.00  0.00     0.281 A 
HETATM   14  N   UNL     1     -40.823  55.319 -51.444  1.00  0.00    -0.168 NA
HETATM   15  C   UNL     1     -41.338  57.380 -50.207  1.00  0.00     0.073 C 
HETATM   16  N   UNL     1     -41.208  54.721 -52.645  1.00  0.00    -0.197 N 
HETATM   17  O   UNL     1     -42.707  55.267 -54.438  1.00  0.00    -0.265 OA
BRANCH  16  18
HETATM   18  C   UNL     1     -40.701  53.434 -52.953  1.00  0.00     0.062 A 
HETATM   19  C   UNL     1     -40.860  52.858 -54.220  1.00  0.00     0.032 A 
HETATM   20  C   UNL     1     -40.397  51.563 -54.490  1.00  0.00     0.009 A 
HETATM   21  C   UNL     1     -39.759  50.815 -53.499  1.00  0.00    -0.062 A 
HETATM   22  C   UNL     1     -39.284  49.418 -53.768  1.00  0.00     0.048 C 
HETATM   23  C   UNL     1     -39.580  51.386 -52.236  1.00  0.00     0.009 A 
HETATM   24  C   UNL     1     -40.041  52.680 -51.970  1.00  0.00     0.032 A 
ENDBRANCH  16  18
ENDBRANCH   1  10
BRANCH   2  25
HETATM   25  O   UNL     1     -45.445  57.121 -50.801  1.00  0.00    -0.345 OA
HETATM   26  H   UNL     1     -45.018  56.662 -50.059  1.00  0.00     0.219 HD
ENDBRANCH   2  25
BRANCH   6  27
HETATM   27  C   UNL     1     -43.490  62.409 -51.404  1.00  0.00     0.255 C 
HETATM   28  N   UNL     1     -42.819  62.988 -50.371  1.00  0.00    -0.366 N 
HETATM   29  H   UNL     1     -42.781  62.538 -49.458  1.00  0.00     0.159 HD
HETATM   30  H   UNL     1     -42.667  63.986 -50.414  1.00  0.00     0.159 HD
HETATM   31  O   UNL     1     -43.776  63.078 -52.391  1.00  0.00    -0.268 OA
ENDBRANCH   6  27
TORSDOF 4
ENDMDL
MODEL 2
REMARK VINA RESULT:      -8.1      1.701      2.093
REMARK  4 active torsions:
REMARK  status: ('A' for Active; 'I' for Inactive)
REMARK    1  A    between atoms: C_5  and  N_6 
REMARK    2  A    between atoms: C_11  and  C_12 
REMARK    3  A    between atoms: C_13  and  O_14 
REMARK    4  A    between atoms: C_18  and  C_19 
REMARK       I    between atoms: C_19  and  N_20 
ROOT
HETATM    1  C   UNL     1     -43.701  59.111 -52.918  1.00  0.00     0.023 A 
HETATM    2  C   UNL     1     -44.837  59.077 -53.652  1.00  0.00     0.153 A 
HETATM    3  N   UNL     1     -45.867  59.919 -53.399  1.00  0.00    -0.303 N 
HETATM    4  C   UNL     1     -45.857  60.894 -52.446  1.00  0.00     0.263 A 
HETATM    5  O   UNL     1     -46.838  61.616 -52.278  1.00  0.00    -0.267 OA
HETATM    6  C   UNL     1     -44.606  61.025 -51.629  1.00  0.00     0.106 A 
HETATM    7  C   UNL     1     -43.605  60.128 -51.836  1.00  0.00    -0.026 A 
HETATM    8  C   UNL     1     -42.341  60.073 -51.005  1.00  0.00     0.050 C 
HETATM    9  H   UNL     1     -46.698  59.840 -53.971  1.00  0.00     0.171 HD
ENDROOT
BRANCH   1  10
HETATM   10  C   UNL     1     -42.626  58.178 -53.234  1.00  0.00     0.035 C 
HETATM   11  C   UNL     1     -42.469  56.932 -52.768  1.00  0.00     0.061 A 
HETATM   12  C   UNL     1     -43.208  56.102 -51.805  1.00  0.00     0.067 A 
HETATM   13  C   UNL     1     -41.422  56.031 -53.312  1.00  0.00     0.281 A 
HETATM   14  N   UNL     1     -42.778  54.870 -51.791  1.00  0.00    -0.168 NA
HETATM   15  C   UNL     1     -44.329  56.578 -50.943  1.00  0.00     0.073 C 
HETATM   16  N   UNL     1     -41.716  54.807 -52.696  1.00  0.00    -0.197 N 
HETATM   17  O   UNL     1     -40.593  56.357 -54.143  1.00  0.00    -0.265 OA
BRANCH  16  18
HETATM   18  C   UNL     1     -41.121  53.547 -52.953  1.00  0.00     0.062 A 
HETATM   19  C   UNL     1     -40.248  52.940 -52.043  1.00  0.00     0.032 A 
HETATM   20  C   UNL     1     -39.628  51.718 -52.339  1.00  0.00     0.009 A 
HETATM   21  C   UNL     1     -39.871  51.073 -53.552  1.00  0.00    -0.062 A 
HETATM   22  C   UNL     1     -39.192  49.780 -53.891  1.00  0.00     0.048 C 
HETATM   23  C   UNL     1     -40.753  51.661 -54.462  1.00  0.00     0.009 A 
HETATM   24  C   UNL     1     -41.373  52.880 -54.163  1.00  0.00     0.032 A 
ENDBRANCH  16  18
ENDBRANCH   1  10
BRANCH   2  25
HETATM   25  O   UNL     1     -45.098  58.242 -54.704  1.00  0.00    -0.345 OA
HETATM   26  H   UNL     1     -44.488  57.486 -54.677  1.00  0.00     0.219 HD
ENDBRANCH   2  25
BRANCH   6  27
HETATM   27  C   UNL     1     -44.474  62.148 -50.643  1.00  0.00     0.255 C 
HETATM   28  N   UNL     1     -45.197  62.044 -49.495  1.00  0.00    -0.366 N 
HETATM   29  H   UNL     1     -45.944  61.357 -49.412  1.00  0.00     0.159 HD
HETATM   30  H   UNL     1     -45.225  62.850 -48.885  1.00  0.00     0.159 HD
HETATM   31  O   UNL     1     -43.792  63.148 -50.840  1.00  0.00    -0.268 OA
ENDBRANCH   6  27
TORSDOF 4
ENDMDL
MODEL 3
REMARK VINA RESULT:      -8.0      1.720      2.829
REMARK  4 active torsions:
REMARK  status: ('A' for Active; 'I' for Inactive)
REMARK    1  A    between atoms: C_5  and  N_6 
REMARK    2  A    between atoms: C_11  and  C_12 
REMARK    3  A    between atoms: C_13  and  O_14 
REMARK    4  A    between atoms: C_18  and  C_19 
REMARK       I    between atoms: C_19  and  N_20 
ROOT
HETATM    1  C   UNL     1     -43.850  60.481 -52.188  1.00  0.00     0.023 A 
HETATM    2  C   UNL     1     -43.361  61.690 -52.548  1.00  0.00     0.153 A 
HETATM    3  N   UNL     1     -43.600  62.797 -51.805  1.00  0.00    -0.303 N 
HETATM    4  C   UNL     1     -44.287  62.810 -50.628  1.00  0.00     0.263 A 
HETATM    5  O   UNL     1     -44.462  63.862 -50.016  1.00  0.00    -0.267 OA
HETATM    6  C   UNL     1     -44.812  61.492 -50.140  1.00  0.00     0.106 A 
HETATM    7  C   UNL     1     -44.636  60.398 -50.928  1.00  0.00    -0.026 A 
HETATM    8  C   UNL     1     -45.214  59.034 -50.613  1.00  0.00     0.050 C 
HETATM    9  H   UNL     1     -43.222  63.679 -52.129  1.00  0.00     0.171 HD
ENDROOT
BRANCH   1  10
HETATM   10  C   UNL     1     -43.565  59.324 -53.029  1.00  0.00     0.035 C 
HETATM   11  C   UNL     1     -42.573  58.437 -52.881  1.00  0.00     0.061 A 
HETATM   12  C   UNL     1     -41.449  58.311 -51.941  1.00  0.00     0.067 A 
HETATM   13  C   UNL     1     -42.507  57.207 -53.709  1.00  0.00     0.281 A 
HETATM   14  N   UNL     1     -40.825  57.172 -52.076  1.00  0.00    -0.168 NA
HETATM   15  C   UNL     1     -41.053  59.336 -50.932  1.00  0.00     0.073 C 
HETATM   16  N   UNL     1     -41.453  56.494 -53.123  1.00  0.00    -0.197 N 
HETATM   17  O   UNL     1     -43.276  56.944 -54.617  1.00  0.00    -0.265 OA
BRANCH  16  18
HETATM   18  C   UNL     1     -41.034  55.173 -53.421  1.00  0.00     0.062 A 
HETATM   19  C   UNL     1     -40.584  54.809 -54.696  1.00  0.00     0.032 A 
HETATM   20  C   UNL     1     -40.224  53.485 -54.985  1.00  0.00     0.009 A 
HETATM   21  C   UNL     1     -40.302  52.496 -54.003  1.00  0.00    -0.062 A 
HETATM   22  C   UNL     1     -39.947  51.071 -54.309  1.00  0.00     0.048 C 
HETATM   23  C   UNL     1     -40.735  52.852 -52.723  1.00  0.00     0.009 A 
HETATM   24  C   UNL     1     -41.092  54.174 -52.436  1.00  0.00     0.032 A 
ENDBRANCH  16  18
ENDBRANCH   1  10
BRANCH   2  25
HETATM   25  O   UNL     1     -42.593  61.960 -53.647  1.00  0.00    -0.345 OA
HETATM   26  H   UNL     1     -42.123  62.800 -53.516  1.00  0.00     0.219 HD
ENDBRANCH   2  25
BRANCH   6  27
HETATM   27  C   UNL     1     -45.475  61.405 -48.797  1.00  0.00     0.255 C 
HETATM   28  N   UNL     1     -44.695  61.016 -47.753  1.00  0.00    -0.366 N 
HETATM   29  H   UNL     1     -43.779  60.601 -47.915  1.00  0.00     0.159 HD
HETATM   30  H   UNL     1     -45.153  60.822 -46.873  1.00  0.00     0.159 HD
HETATM   31  O   UNL     1     -46.667  61.625 -48.612  1.00  0.00    -0.268 OA
ENDBRANCH   6  27
TORSDOF 4
ENDMDL
MODEL 4
REMARK VINA RESULT:      -8.0      1.885      3.087
REMARK  4 active torsions:
REMARK  status: ('A' for Active; 'I' for Inactive)
REMARK    1  A    between atoms: C_5  and  N_6 
REMARK    2  A    between atoms: C_11  and  C_12 
REMARK    3  A    between atoms: C_13  and  O_14 
REMARK    4  A    between atoms: C_18  and  C_19 
REMARK       I    between atoms: C_19  and  N_20 
ROOT
HETATM    1  C   UNL     1     -43.148  59.259 -52.254  1.00  0.00     0.023 A 
HETATM    2  C   UNL     1     -42.470  60.109 -53.059  1.00  0.00     0.153 A 
HETATM    3  N   UNL     1     -43.029  61.261 -53.501  1.00  0.00    -0.303 N 
HETATM    4  C   UNL     1     -44.272  61.703 -53.157  1.00  0.00     0.263 A 
HETATM    5  O   UNL     1     -44.708  62.761 -53.607  1.00  0.00    -0.267 OA
HETATM    6  C   UNL     1     -45.061  60.835 -52.222  1.00  0.00     0.106 A 
HETATM    7  C   UNL     1     -44.525  59.644 -51.843  1.00  0.00    -0.026 A 
HETATM    8  C   UNL     1     -45.259  58.623 -50.999  1.00  0.00     0.050 C 
HETATM    9  H   UNL     1     -42.481  61.853 -54.113  1.00  0.00     0.171 HD
ENDROOT
BRANCH   1  10
HETATM   10  C   UNL     1     -42.497  58.032 -51.812  1.00  0.00     0.035 C 
HETATM   11  C   UNL     1     -42.548  56.829 -52.398  1.00  0.00     0.061 A 
HETATM   12  C   UNL     1     -43.254  56.295 -53.572  1.00  0.00     0.067 A 
HETATM   13  C   UNL     1     -41.691  55.708 -51.935  1.00  0.00     0.281 A 
HETATM   14  N   UNL     1     -42.864  55.085 -53.868  1.00  0.00    -0.168 NA
HETATM   15  C   UNL     1     -44.287  57.028 -54.360  1.00  0.00     0.073 C 
HETATM   16  N   UNL     1     -41.920  54.722 -52.905  1.00  0.00    -0.197 N 
HETATM   17  O   UNL     1     -40.951  55.758 -50.969  1.00  0.00    -0.265 OA
BRANCH  16  18
HETATM   18  C   UNL     1     -41.253  53.480 -53.046  1.00  0.00     0.062 A 
HETATM   19  C   UNL     1     -40.473  52.937 -52.017  1.00  0.00     0.032 A 
HETATM   20  C   UNL     1     -39.779  51.733 -52.194  1.00  0.00     0.009 A 
HETATM   21  C   UNL     1     -39.852  51.040 -53.403  1.00  0.00    -0.062 A 
HETATM   22  C   UNL     1     -39.090  49.766 -53.614  1.00  0.00     0.048 C 
HETATM   23  C   UNL     1     -40.640  51.565 -54.432  1.00  0.00     0.009 A 
HETATM   24  C   UNL     1     -41.334  52.766 -54.251  1.00  0.00     0.032 A 
ENDBRANCH  16  18
ENDBRANCH   1  10
BRANCH   2  25
HETATM   25  O   UNL     1     -41.190  59.947 -53.514  1.00  0.00    -0.345 OA
HETATM   26  H   UNL     1     -40.571  60.388 -52.908  1.00  0.00     0.219 HD
ENDBRANCH   2  25
BRANCH   6  27
HETATM   27  C   UNL     1     -46.387  61.310 -51.704  1.00  0.00     0.255 C 
HETATM   28  N   UNL     1     -47.440  61.240 -52.563  1.00  0.00    -0.366 N 
HETATM   29  H   UNL     1     -47.291  61.082 -53.558  1.00  0.00     0.159 HD
HETATM   30  H   UNL     1     -48.305  61.679 -52.278  1.00  0.00     0.159 HD
HETATM   31  O   UNL     1     -46.549  61.783 -50.585  1.00  0.00    -0.268 OA
ENDBRANCH   6  27
TORSDOF 4
ENDMDL
MODEL 5
REMARK VINA RESULT:      -7.8      4.215      5.678
REMARK  4 active torsions:
REMARK  status: ('A' for Active; 'I' for Inactive)
REMARK    1  A    between atoms: C_5  and  N_6 
REMARK    2  A    between atoms: C_11  and  C_12 
REMARK    3  A    between atoms: C_13  and  O_14 
REMARK    4  A    between atoms: C_18  and  C_19 
REMARK       I    between atoms: C_19  and  N_20 
ROOT
HETATM    1  C   UNL     1     -42.805  57.635 -56.721  1.00  0.00     0.023 A 
HETATM    2  C   UNL     1     -43.058  58.871 -56.231  1.00  0.00     0.153 A 
HETATM    3  N   UNL     1     -44.002  59.670 -56.782  1.00  0.00    -0.303 N 
HETATM    4  C   UNL     1     -44.811  59.315 -57.821  1.00  0.00     0.263 A 
HETATM    5  O   UNL     1     -45.643  60.103 -58.266  1.00  0.00    -0.267 OA
HETATM    6  C   UNL     1     -44.622  57.935 -58.380  1.00  0.00     0.106 A 
HETATM    7  C   UNL     1     -43.622  57.166 -57.873  1.00  0.00    -0.026 A 
HETATM    8  C   UNL     1     -43.248  55.806 -58.421  1.00  0.00     0.050 C 
HETATM    9  H   UNL     1     -44.139  60.590 -56.384  1.00  0.00     0.171 HD
ENDROOT
BRANCH   1  10
HETATM   10  C   UNL     1     -41.774  56.821 -56.090  1.00  0.00     0.035 C 
HETATM   11  C   UNL     1     -41.913  56.009 -55.034  1.00  0.00     0.061 A 
HETATM   12  C   UNL     1     -43.033  55.683 -54.138  1.00  0.00     0.067 A 
HETATM   13  C   UNL     1     -40.817  55.105 -54.606  1.00  0.00     0.281 A 
HETATM   14  N   UNL     1     -42.746  54.693 -53.337  1.00  0.00    -0.168 NA
HETATM   15  C   UNL     1     -44.356  56.373 -54.131  1.00  0.00     0.073 C 
HETATM   16  N   UNL     1     -41.427  54.327 -53.612  1.00  0.00    -0.197 N 
HETATM   17  O   UNL     1     -39.707  55.078 -55.108  1.00  0.00    -0.265 OA
BRANCH  16  18
HETATM   18  C   UNL     1     -40.885  53.199 -52.946  1.00  0.00     0.062 A 
HETATM   19  C   UNL     1     -40.784  53.140 -51.551  1.00  0.00     0.032 A 
HETATM   20  C   UNL     1     -40.197  52.038 -50.915  1.00  0.00     0.009 A 
HETATM   21  C   UNL     1     -39.702  50.966 -51.659  1.00  0.00    -0.062 A 
HETATM   22  C   UNL     1     -39.047  49.794 -50.990  1.00  0.00     0.048 C 
HETATM   23  C   UNL     1     -39.813  51.007 -53.052  1.00  0.00     0.009 A 
HETATM   24  C   UNL     1     -40.401  52.108 -53.685  1.00  0.00     0.032 A 
ENDBRANCH  16  18
ENDBRANCH   1  10
BRANCH   2  25
HETATM   25  O   UNL     1     -42.439  59.461 -55.163  1.00  0.00    -0.345 OA
HETATM   26  H   UNL     1     -41.651  59.940 -55.468  1.00  0.00     0.219 HD
ENDBRANCH   2  25
BRANCH   6  27
HETATM   27  C   UNL     1     -45.552  57.429 -59.443  1.00  0.00     0.255 C 
HETATM   28  N   UNL     1     -45.336  57.877 -60.710  1.00  0.00    -0.366 N 
HETATM   29  H   UNL     1     -44.723  58.672 -60.883  1.00  0.00     0.159 HD
HETATM   30  H   UNL     1     -46.031  57.654 -61.410  1.00  0.00     0.159 HD
HETATM   31  O   UNL     1     -46.497  56.681 -59.219  1.00  0.00    -0.268 OA
ENDBRANCH   6  27
TORSDOF 4
ENDMDL
MODEL 6
REMARK VINA RESULT:      -7.8      1.495      2.651
REMARK  4 active torsions:
REMARK  status: ('A' for Active; 'I' for Inactive)
REMARK    1  A    between atoms: C_5  and  N_6 
REMARK    2  A    between atoms: C_11  and  C_12 
REMARK    3  A    between atoms: C_13  and  O_14 
REMARK    4  A    between atoms: C_18  and  C_19 
REMARK       I    between atoms: C_19  and  N_20 
ROOT
HETATM    1  C   UNL     1     -43.094  59.229 -52.627  1.00  0.00     0.023 A 
HETATM    2  C   UNL     1     -42.451  60.292 -53.164  1.00  0.00     0.153 A 
HETATM    3  N   UNL     1     -42.779  61.561 -52.824  1.00  0.00    -0.303 N 
HETATM    4  C   UNL     1     -43.722  61.898 -51.899  1.00  0.00     0.263 A 
HETATM    5  O   UNL     1     -43.962  63.078 -51.650  1.00  0.00    -0.267 OA
HETATM    6  C   UNL     1     -44.437  60.766 -51.222  1.00  0.00     0.106 A 
HETATM    7  C   UNL     1     -44.158  59.497 -51.623  1.00  0.00    -0.026 A 
HETATM    8  C   UNL     1     -44.887  58.274 -51.109  1.00  0.00     0.050 C 
HETATM    9  H   UNL     1     -42.275  62.318 -53.268  1.00  0.00     0.171 HD
ENDROOT
BRANCH   1  10
HETATM   10  C   UNL     1     -42.700  57.885 -53.034  1.00  0.00     0.035 C 
HETATM   11  C   UNL     1     -41.897  57.040 -52.376  1.00  0.00     0.061 A 
HETATM   12  C   UNL     1     -41.119  57.131 -51.132  1.00  0.00     0.067 A 
HETATM   13  C   UNL     1     -41.724  55.635 -52.823  1.00  0.00     0.281 A 
HETATM   14  N   UNL     1     -40.609  55.979 -50.788  1.00  0.00    -0.168 NA
HETATM   15  C   UNL     1     -40.929  58.373 -50.327  1.00  0.00     0.073 C 
HETATM   16  N   UNL     1     -40.971  55.070 -51.784  1.00  0.00    -0.197 N 
HETATM   17  O   UNL     1     -42.216  55.165 -53.834  1.00  0.00    -0.265 OA
BRANCH  16  18
HETATM   18  C   UNL     1     -40.628  53.705 -51.611  1.00  0.00     0.062 A 
HETATM   19  C   UNL     1     -40.742  53.065 -50.371  1.00  0.00     0.032 A 
HETATM   20  C   UNL     1     -40.348  51.730 -50.208  1.00  0.00     0.009 A 
HETATM   21  C   UNL     1     -39.836  51.002 -51.283  1.00  0.00    -0.062 A 
HETATM   22  C   UNL     1     -39.385  49.582 -51.114  1.00  0.00     0.048 C 
HETATM   23  C   UNL     1     -39.734  51.627 -52.529  1.00  0.00     0.009 A 
HETATM   24  C   UNL     1     -40.129  52.960 -52.690  1.00  0.00     0.032 A 
ENDBRANCH  16  18
ENDBRANCH   1  10
BRANCH   2  25
HETATM   25  O   UNL     1     -41.429  60.247 -54.072  1.00  0.00    -0.345 OA
HETATM   26  H   UNL     1     -40.799  60.964 -53.888  1.00  0.00     0.219 HD
ENDBRANCH   2  25
BRANCH   6  27
HETATM   27  C   UNL     1     -45.402  61.054 -50.110  1.00  0.00     0.255 C 
HETATM   28  N   UNL     1     -44.964  60.817 -48.843  1.00  0.00    -0.366 N 
HETATM   29  H   UNL     1     -44.117  60.275 -48.678  1.00  0.00     0.159 HD
HETATM   30  H   UNL     1     -45.641  60.875 -48.095  1.00  0.00     0.159 HD
HETATM   31  O   UNL     1     -46.550  61.443 -50.290  1.00  0.00    -0.268 OA
ENDBRANCH   6  27
TORSDOF 4
ENDMDL
MODEL 7
REMARK VINA RESULT:      -7.5     17.189     19.557
REMARK  4 active torsions:
REMARK  status: ('A' for Active; 'I' for Inactive)
REMARK    1  A    between atoms: C_5  and  N_6 
REMARK    2  A    between atoms: C_11  and  C_12 
REMARK    3  A    between atoms: C_13  and  O_14 
REMARK    4  A    between atoms: C_18  and  C_19 
REMARK       I    between atoms: C_19  and  N_20 
ROOT
HETATM    1  C   UNL     1     -36.951  40.394 -56.886  1.00  0.00     0.023 A 
HETATM    2  C   UNL     1     -37.117  41.731 -57.007  1.00  0.00     0.153 A 
HETATM    3  N   UNL     1     -37.329  42.311 -58.212  1.00  0.00    -0.303 N 
HETATM    4  C   UNL     1     -37.447  41.634 -59.390  1.00  0.00     0.263 A 
HETATM    5  O   UNL     1     -37.637  42.237 -60.444  1.00  0.00    -0.267 OA
HETATM    6  C   UNL     1     -37.328  40.140 -59.323  1.00  0.00     0.106 A 
HETATM    7  C   UNL     1     -37.039  39.570 -58.122  1.00  0.00    -0.026 A 
HETATM    8  C   UNL     1     -36.778  38.091 -57.935  1.00  0.00     0.050 C 
HETATM    9  H   UNL     1     -37.432  43.317 -58.246  1.00  0.00     0.171 HD
ENDROOT
BRANCH   1  10
HETATM   10  C   UNL     1     -36.722  39.826 -55.563  1.00  0.00     0.035 C 
HETATM   11  C   UNL     1     -35.565  39.776 -54.890  1.00  0.00     0.061 A 
HETATM   12  C   UNL     1     -34.186  40.181 -55.200  1.00  0.00     0.067 A 
HETATM   13  C   UNL     1     -35.514  39.326 -53.476  1.00  0.00     0.281 A 
HETATM   14  N   UNL     1     -33.405  40.093 -54.157  1.00  0.00    -0.168 NA
HETATM   15  C   UNL     1     -33.708  40.653 -56.532  1.00  0.00     0.073 C 
HETATM   16  N   UNL     1     -34.187  39.593 -53.114  1.00  0.00    -0.197 N 
HETATM   17  O   UNL     1     -36.470  38.903 -52.851  1.00  0.00    -0.265 OA
BRANCH  16  18
HETATM   18  C   UNL     1     -33.608  39.491 -51.824  1.00  0.00     0.062 A 
HETATM   19  C   UNL     1     -34.357  39.109 -50.704  1.00  0.00     0.032 A 
HETATM   20  C   UNL     1     -33.778  39.063 -49.429  1.00  0.00     0.009 A 
HETATM   21  C   UNL     1     -32.435  39.395 -49.244  1.00  0.00    -0.062 A 
HETATM   22  C   UNL     1     -31.813  39.378 -47.879  1.00  0.00     0.048 C 
HETATM   23  C   UNL     1     -31.674  39.762 -50.357  1.00  0.00     0.009 A 
HETATM   24  C   UNL     1     -32.254  39.805 -51.630  1.00  0.00     0.032 A 
ENDBRANCH  16  18
ENDBRANCH   1  10
BRANCH   2  25
HETATM   25  O   UNL     1     -37.103  42.645 -55.989  1.00  0.00    -0.345 OA
HETATM   26  H   UNL     1     -36.744  42.231 -55.186  1.00  0.00     0.219 HD
ENDBRANCH   2  25
BRANCH   6  27
HETATM   27  C   UNL     1     -37.565  39.317 -60.555  1.00  0.00     0.255 C 
HETATM   28  N   UNL     1     -36.549  39.262 -61.459  1.00  0.00    -0.366 N 
HETATM   29  H   UNL     1     -35.767  39.913 -61.403  1.00  0.00     0.159 HD
HETATM   30  H   UNL     1     -36.740  38.827 -62.351  1.00  0.00     0.159 HD
HETATM   31  O   UNL     1     -38.620  38.741 -60.795  1.00  0.00    -0.268 OA
ENDBRANCH   6  27
TORSDOF 4
ENDMDL
MODEL 8
REMARK VINA RESULT:      -7.5      4.195      7.526
REMARK  4 active torsions:
REMARK  status: ('A' for Active; 'I' for Inactive)
REMARK    1  A    between atoms: C_5  and  N_6 
REMARK    2  A    between atoms: C_11  and  C_12 
REMARK    3  A    between atoms: C_13  and  O_14 
REMARK    4  A    between atoms: C_18  and  C_19 
REMARK       I    between atoms: C_19  and  N_20 
ROOT
HETATM    1  C   UNL     1     -42.753  55.539 -52.974  1.00  0.00     0.023 A 
HETATM    2  C   UNL     1     -43.524  55.910 -51.925  1.00  0.00     0.153 A 
HETATM    3  N   UNL     1     -43.265  55.474 -50.669  1.00  0.00    -0.303 N 
HETATM    4  C   UNL     1     -42.208  54.685 -50.323  1.00  0.00     0.263 A 
HETATM    5  O   UNL     1     -42.046  54.330 -49.157  1.00  0.00    -0.267 OA
HETATM    6  C   UNL     1     -41.279  54.279 -51.429  1.00  0.00     0.106 A 
HETATM    7  C   UNL     1     -41.587  54.656 -52.699  1.00  0.00    -0.026 A 
HETATM    8  C   UNL     1     -40.803  54.220 -53.918  1.00  0.00     0.050 C 
HETATM    9  H   UNL     1     -43.883  55.772 -49.925  1.00  0.00     0.171 HD
ENDROOT
BRANCH   1  10
HETATM   10  C   UNL     1     -43.082  56.036 -54.304  1.00  0.00     0.035 C 
HETATM   11  C   UNL     1     -42.702  57.195 -54.855  1.00  0.00     0.061 A 
HETATM   12  C   UNL     1     -41.924  58.347 -54.375  1.00  0.00     0.067 A 
HETATM   13  C   UNL     1     -42.965  57.493 -56.286  1.00  0.00     0.281 A 
HETATM   14  N   UNL     1     -41.657  59.191 -55.334  1.00  0.00    -0.168 NA
HETATM   15  C   UNL     1     -41.467  58.548 -52.969  1.00  0.00     0.073 C 
HETATM   16  N   UNL     1     -42.264  58.690 -56.487  1.00  0.00    -0.197 N 
HETATM   17  O   UNL     1     -43.597  56.771 -57.037  1.00  0.00    -0.265 OA
BRANCH  16  18
HETATM   18  C   UNL     1     -42.049  59.367 -57.714  1.00  0.00     0.062 A 
HETATM   19  C   UNL     1     -41.725  60.729 -57.761  1.00  0.00     0.032 A 
HETATM   20  C   UNL     1     -41.568  61.392 -58.985  1.00  0.00     0.009 A 
HETATM   21  C   UNL     1     -41.727  60.708 -60.191  1.00  0.00    -0.062 A 
HETATM   22  C   UNL     1     -41.589  61.415 -61.507  1.00  0.00     0.048 C 
HETATM   23  C   UNL     1     -42.034  59.345 -60.156  1.00  0.00     0.009 A 
HETATM   24  C   UNL     1     -42.189  58.684 -58.932  1.00  0.00     0.032 A 
ENDBRANCH  16  18
ENDBRANCH   1  10
BRANCH   2  25
HETATM   25  O   UNL     1     -44.612  56.738 -51.972  1.00  0.00    -0.345 OA
HETATM   26  H   UNL     1     -45.007  56.704 -52.859  1.00  0.00     0.219 HD
ENDBRANCH   2  25
BRANCH   6  27
HETATM   27  C   UNL     1     -40.031  53.512 -51.110  1.00  0.00     0.255 C 
HETATM   28  N   UNL     1     -39.177  54.076 -50.213  1.00  0.00    -0.366 N 
HETATM   29  H   UNL     1     -39.276  55.054 -49.945  1.00  0.00     0.159 HD
HETATM   30  H   UNL     1     -38.274  53.641 -50.089  1.00  0.00     0.159 HD
HETATM   31  O   UNL     1     -39.735  52.446 -51.638  1.00  0.00    -0.268 OA
ENDBRANCH   6  27
TORSDOF 4
ENDMDL
MODEL 9
REMARK VINA RESULT:      -7.4      2.098      2.631
REMARK  4 active torsions:
REMARK  status: ('A' for Active; 'I' for Inactive)
REMARK    1  A    between atoms: C_5  and  N_6 
REMARK    2  A    between atoms: C_11  and  C_12 
REMARK    3  A    between atoms: C_13  and  O_14 
REMARK    4  A    between atoms: C_18  and  C_19 
REMARK       I    between atoms: C_19  and  N_20 
ROOT
HETATM    1  C   UNL     1     -43.495  60.314 -52.065  1.00  0.00     0.023 A 
HETATM    2  C   UNL     1     -43.591  60.806 -50.807  1.00  0.00     0.153 A 
HETATM    3  N   UNL     1     -44.560  61.688 -50.466  1.00  0.00    -0.303 N 
HETATM    4  C   UNL     1     -45.543  62.125 -51.304  1.00  0.00     0.263 A 
HETATM    5  O   UNL     1     -46.385  62.932 -50.915  1.00  0.00    -0.267 OA
HETATM    6  C   UNL     1     -45.530  61.579 -52.701  1.00  0.00     0.106 A 
HETATM    7  C   UNL     1     -44.511  60.753 -53.059  1.00  0.00    -0.026 A 
HETATM    8  C   UNL     1     -44.313  60.224 -54.464  1.00  0.00     0.050 C 
HETATM    9  H   UNL     1     -44.576  62.034 -49.515  1.00  0.00     0.171 HD
ENDROOT
BRANCH   1  10
HETATM   10  C   UNL     1     -42.429  59.370 -52.376  1.00  0.00     0.035 C 
HETATM   11  C   UNL     1     -42.453  58.040 -52.224  1.00  0.00     0.061 A 
HETATM   12  C   UNL     1     -43.439  57.091 -51.686  1.00  0.00     0.067 A 
HETATM   13  C   UNL     1     -41.358  57.184 -52.747  1.00  0.00     0.281 A 
HETATM   14  N   UNL     1     -43.091  55.851 -51.899  1.00  0.00    -0.168 NA
HETATM   15  C   UNL     1     -44.702  57.469 -50.988  1.00  0.00     0.073 C 
HETATM   16  N   UNL     1     -41.853  55.888 -52.544  1.00  0.00    -0.197 N 
HETATM   17  O   UNL     1     -40.342  57.605 -53.271  1.00  0.00    -0.265 OA
BRANCH  16  18
HETATM   18  C   UNL     1     -41.283  54.668 -52.985  1.00  0.00     0.062 A 
HETATM   19  C   UNL     1     -41.267  54.305 -54.338  1.00  0.00     0.032 A 
HETATM   20  C   UNL     1     -40.745  53.071 -54.749  1.00  0.00     0.009 A 
HETATM   21  C   UNL     1     -40.224  52.172 -53.816  1.00  0.00    -0.062 A 
HETATM   22  C   UNL     1     -39.690  50.837 -54.242  1.00  0.00     0.048 C 
HETATM   23  C   UNL     1     -40.221  52.531 -52.466  1.00  0.00     0.009 A 
HETATM   24  C   UNL     1     -40.740  53.765 -52.058  1.00  0.00     0.032 A 
ENDBRANCH  16  18
ENDBRANCH   1  10
BRANCH   2  25
HETATM   25  O   UNL     1     -42.777  60.497 -49.752  1.00  0.00    -0.345 OA
HETATM   26  H   UNL     1     -43.231  60.706 -48.919  1.00  0.00     0.219 HD
ENDBRANCH   2  25
BRANCH   6  27
HETATM   27  C   UNL     1     -46.645  61.920 -53.645  1.00  0.00     0.255 C 
HETATM   28  N   UNL     1     -47.907  61.614 -53.237  1.00  0.00    -0.366 N 
HETATM   29  H   UNL     1     -48.062  60.998 -52.441  1.00  0.00     0.159 HD
HETATM   30  H   UNL     1     -48.653  61.712 -53.912  1.00  0.00     0.159 HD
HETATM   31  O   UNL     1     -46.470  62.411 -54.754  1.00  0.00    -0.268 OA
ENDBRANCH   6  27
TORSDOF 4
ENDMDL
MODEL 10
REMARK VINA RESULT:      -7.3     17.934     20.033
REMARK  4 active torsions:
REMARK  status: ('A' for Active; 'I' for Inactive)
REMARK    1  A    between atoms: C_5  and  N_6 
REMARK    2  A    between atoms: C_11  and  C_12 
REMARK    3  A    between atoms: C_13  and  O_14 
REMARK    4  A    between atoms: C_18  and  C_19 
REMARK       I    between atoms: C_19  and  N_20 
ROOT
HETATM    1  C   UNL     1     -33.234  39.007 -50.521  1.00  0.00     0.023 A 
HETATM    2  C   UNL     1     -32.100  39.746 -50.496  1.00  0.00     0.153 A 
HETATM    3  N   UNL     1     -31.411  39.944 -49.347  1.00  0.00    -0.303 N 
HETATM    4  C   UNL     1     -31.740  39.399 -48.141  1.00  0.00     0.263 A 
HETATM    5  O   UNL     1     -31.061  39.632 -47.142  1.00  0.00    -0.267 OA
HETATM    6  C   UNL     1     -32.957  38.524 -48.106  1.00  0.00     0.106 A 
HETATM    7  C   UNL     1     -33.688  38.391 -49.245  1.00  0.00    -0.026 A 
HETATM    8  C   UNL     1     -34.997  37.634 -49.321  1.00  0.00     0.050 C 
HETATM    9  H   UNL     1     -30.577  40.516 -49.384  1.00  0.00     0.171 HD
ENDROOT
BRANCH   1  10
HETATM   10  C   UNL     1     -33.936  38.832 -51.786  1.00  0.00     0.035 C 
HETATM   11  C   UNL     1     -34.602  39.762 -52.481  1.00  0.00     0.061 A 
HETATM   12  C   UNL     1     -34.913  41.181 -52.250  1.00  0.00     0.067 A 
HETATM   13  C   UNL     1     -35.120  39.484 -53.845  1.00  0.00     0.281 A 
HETATM   14  N   UNL     1     -35.453  41.740 -53.299  1.00  0.00    -0.168 NA
HETATM   15  C   UNL     1     -34.644  41.924 -50.985  1.00  0.00     0.073 C 
HETATM   16  N   UNL     1     -35.574  40.741 -54.267  1.00  0.00    -0.197 N 
HETATM   17  O   UNL     1     -35.058  38.401 -54.399  1.00  0.00    -0.265 OA
BRANCH  16  18
HETATM   18  C   UNL     1     -36.045  41.100 -55.555  1.00  0.00     0.062 A 
HETATM   19  C   UNL     1     -37.319  40.735 -56.005  1.00  0.00     0.032 A 
HETATM   20  C   UNL     1     -37.747  41.054 -57.301  1.00  0.00     0.009 A 
HETATM   21  C   UNL     1     -36.910  41.750 -58.176  1.00  0.00    -0.062 A 
HETATM   22  C   UNL     1     -37.346  42.072 -59.574  1.00  0.00     0.048 C 
HETATM   23  C   UNL     1     -35.642  42.133 -57.731  1.00  0.00     0.009 A 
HETATM   24  C   UNL     1     -35.219  41.815 -56.435  1.00  0.00     0.032 A 
ENDBRANCH  16  18
ENDBRANCH   1  10
BRANCH   2  25
HETATM   25  O   UNL     1     -31.509  40.361 -51.566  1.00  0.00    -0.345 OA
HETATM   26  H   UNL     1     -31.325  39.703 -52.257  1.00  0.00     0.219 HD
ENDBRANCH   2  25
BRANCH   6  27
HETATM   27  C   UNL     1     -33.315  37.795 -46.844  1.00  0.00     0.255 C 
HETATM   28  N   UNL     1     -32.466  36.809 -46.445  1.00  0.00    -0.366 N 
HETATM   29  H   UNL     1     -31.756  36.446 -47.079  1.00  0.00     0.159 HD
HETATM   30  H   UNL     1     -32.761  36.221 -45.677  1.00  0.00     0.159 HD
HETATM   31  O   UNL     1     -34.332  38.016 -46.197  1.00  0.00    -0.268 OA
ENDBRANCH   6  27
TORSDOF 4
ENDMDL
