MODEL 1
REMARK VINA RESULT:      -9.3      0.000      0.000
REMARK  8 active torsions:
REMARK  status: ('A' for Active; 'I' for Inactive)
REMARK    1  A    between atoms: C_6  and  N_7 
REMARK       I    between atoms: N_7  and  C_8 
REMARK    2  A    between atoms: C_8  and  C_9 
REMARK    3  A    between atoms: C_9  and  S_10 
REMARK    4  A    between atoms: S_10  and  C_11 
REMARK    5  A    between atoms: N_12  and  C_13 
REMARK    6  A    between atoms: C_13  and  C_14 
REMARK    7  A    between atoms: C_14  and  C_15 
REMARK       I    between atoms: C_15  and  N_16 
REMARK    8  A    between atoms: N_16  and  C_17 
ROOT
HETATM    1  C   UNL     1     -40.831  54.400 -53.047  1.00  0.00     0.172 A 
HETATM    2  N   UNL     1     -40.655  54.352 -51.676  1.00  0.00    -0.292 N 
HETATM    3  C   UNL     1     -40.170  53.186 -51.078  1.00  0.00     0.262 A 
HETATM    4  O   UNL     1     -39.882  53.094 -49.888  1.00  0.00    -0.267 OA
HETATM    5  C   UNL     1     -39.985  52.018 -51.950  1.00  0.00     0.061 A 
HETATM    6  C   UNL     1     -40.225  52.184 -53.310  1.00  0.00     0.075 A 
HETATM    7  C   UNL     1     -39.605  50.777 -51.425  1.00  0.00     0.019 A 
HETATM    8  C   UNL     1     -39.479  49.680 -52.275  1.00  0.00     0.001 A 
HETATM    9  C   UNL     1     -39.740  49.827 -53.636  1.00  0.00     0.002 A 
HETATM   10  C   UNL     1     -40.115  51.073 -54.148  1.00  0.00     0.032 A 
HETATM   11  N   UNL     1     -40.594  53.420 -53.856  1.00  0.00    -0.224 NA
ENDROOT
BRANCH   1  12
HETATM   12  S   UNL     1     -41.411  55.868 -53.794  1.00  0.00    -0.082 SA
BRANCH  12  13
HETATM   13  C   UNL     1     -41.130  55.451 -55.524  1.00  0.00     0.185 C 
BRANCH  13  14
HETATM   14  C   UNL     1     -42.404  55.111 -56.276  1.00  0.00     0.231 C 
HETATM   15  N   UNL     1     -42.475  55.670 -57.540  1.00  0.00    -0.326 N 
HETATM   16  H   UNL     1     -41.589  55.919 -57.979  1.00  0.00     0.169 HD
HETATM   17  O   UNL     1     -43.302  54.486 -55.717  1.00  0.00    -0.272 OA
BRANCH  15  18
HETATM   18  C   UNL     1     -43.639  55.887 -58.308  1.00  0.00     0.036 A 
HETATM   19  C   UNL     1     -44.388  57.065 -58.274  1.00  0.00     0.053 A 
HETATM   20  C   UNL     1     -45.480  57.237 -59.136  1.00  0.00     0.042 A 
HETATM   21  C   UNL     1     -45.849  56.234 -60.043  1.00  0.00    -0.040 A 
HETATM   22 CL   UNL     1     -46.335  58.739 -59.063  1.00  0.00    -0.084 Cl
HETATM   23  C   UNL     1     -46.984  56.410 -61.011  1.00  0.00     0.050 C 
HETATM   24  C   UNL     1     -45.099  55.052 -60.065  1.00  0.00     0.011 A 
HETATM   25  C   UNL     1     -44.009  54.882 -59.206  1.00  0.00     0.030 A 
ENDBRANCH  15  18
ENDBRANCH  13  14
ENDBRANCH  12  13
ENDBRANCH   1  12
BRANCH   2  26
HETATM   26  C   UNL     1     -40.890  55.477 -50.752  1.00  0.00     0.144 C 
BRANCH  26  27
HETATM   27  C   UNL     1     -42.115  55.243 -49.863  1.00  0.00     0.123 C 
BRANCH  27  28
HETATM   28  C   UNL     1     -43.379  55.565 -50.627  1.00  0.00     0.219 C 
HETATM   29  N   UNL     1     -43.630  56.915 -50.738  1.00  0.00    -0.356 N 
HETATM   30  H   UNL     1     -42.938  57.575 -50.409  1.00  0.00     0.162 HD
HETATM   31  O   UNL     1     -44.092  54.696 -51.120  1.00  0.00    -0.274 OA
BRANCH  29  32
HETATM   32  C   UNL     1     -44.816  57.428 -51.416  1.00  0.00     0.084 C 
HETATM   33  C   UNL     1     -45.355  58.677 -50.705  1.00  0.00     0.025 C 
HETATM   34  C   UNL     1     -44.499  59.921 -50.949  1.00  0.00     0.002 C 
HETATM   35  C   UNL     1     -44.276  60.167 -52.437  1.00  0.00     0.000 C 
HETATM   36  C   UNL     1     -43.681  58.942 -53.124  1.00  0.00     0.002 C 
HETATM   37  C   UNL     1     -44.541  57.700 -52.901  1.00  0.00     0.025 C 
ENDBRANCH  29  32
ENDBRANCH  27  28
ENDBRANCH  26  27
ENDBRANCH   2  26
TORSDOF 8
ENDMDL
MODEL 2
REMARK VINA RESULT:      -9.1      3.237      8.288
REMARK  8 active torsions:
REMARK  status: ('A' for Active; 'I' for Inactive)
REMARK    1  A    between atoms: C_6  and  N_7 
REMARK       I    between atoms: N_7  and  C_8 
REMARK    2  A    between atoms: C_8  and  C_9 
REMARK    3  A    between atoms: C_9  and  S_10 
REMARK    4  A    between atoms: S_10  and  C_11 
REMARK    5  A    between atoms: N_12  and  C_13 
REMARK    6  A    between atoms: C_13  and  C_14 
REMARK    7  A    between atoms: C_14  and  C_15 
REMARK       I    between atoms: C_15  and  N_16 
REMARK    8  A    between atoms: N_16  and  C_17 
ROOT
HETATM    1  C   UNL     1     -41.531  58.617 -51.590  1.00  0.00     0.172 A 
HETATM    2  N   UNL     1     -41.481  58.570 -52.972  1.00  0.00    -0.292 N 
HETATM    3  C   UNL     1     -41.879  59.682 -53.719  1.00  0.00     0.262 A 
HETATM    4  O   UNL     1     -41.764  59.765 -54.940  1.00  0.00    -0.267 OA
HETATM    5  C   UNL     1     -42.450  60.814 -52.977  1.00  0.00     0.061 A 
HETATM    6  C   UNL     1     -42.473  60.729 -51.589  1.00  0.00     0.075 A 
HETATM    7  C   UNL     1     -42.973  61.927 -53.646  1.00  0.00     0.019 A 
HETATM    8  C   UNL     1     -43.544  62.964 -52.912  1.00  0.00     0.001 A 
HETATM    9  C   UNL     1     -43.597  62.881 -51.522  1.00  0.00     0.002 A 
HETATM   10  C   UNL     1     -43.066  61.765 -50.866  1.00  0.00     0.032 A 
HETATM   11  N   UNL     1     -41.944  59.630 -50.900  1.00  0.00    -0.224 NA
ENDROOT
BRANCH   1  12
HETATM   12  S   UNL     1     -41.007  57.236 -50.659  1.00  0.00    -0.082 SA
BRANCH  12  13
HETATM   13  C   UNL     1     -42.539  56.287 -50.650  1.00  0.00     0.185 C 
BRANCH  13  14
HETATM   14  C   UNL     1     -42.339  54.818 -50.979  1.00  0.00     0.231 C 
HETATM   15  N   UNL     1     -41.016  54.462 -51.172  1.00  0.00    -0.326 N 
HETATM   16  H   UNL     1     -40.314  55.062 -50.738  1.00  0.00     0.169 HD
HETATM   17  O   UNL     1     -43.311  54.089 -51.158  1.00  0.00    -0.272 OA
BRANCH  15  18
HETATM   18  C   UNL     1     -40.533  53.330 -51.863  1.00  0.00     0.036 A 
HETATM   19  C   UNL     1     -40.068  52.173 -51.237  1.00  0.00     0.053 A 
HETATM   20  C   UNL     1     -39.690  51.057 -51.996  1.00  0.00     0.042 A 
HETATM   21  C   UNL     1     -39.762  51.079 -53.396  1.00  0.00    -0.040 A 
HETATM   22 CL   UNL     1     -39.160  49.646 -51.147  1.00  0.00    -0.084 Cl
HETATM   23  C   UNL     1     -39.408  49.882 -54.233  1.00  0.00     0.050 C 
HETATM   24  C   UNL     1     -40.220  52.246 -54.018  1.00  0.00     0.011 A 
HETATM   25  C   UNL     1     -40.599  53.357 -53.259  1.00  0.00     0.030 A 
ENDBRANCH  15  18
ENDBRANCH  13  14
ENDBRANCH  12  13
ENDBRANCH   1  12
BRANCH   2  26
HETATM   26  C   UNL     1     -40.979  57.433 -53.763  1.00  0.00     0.144 C 
BRANCH  26  27
HETATM   27  C   UNL     1     -42.095  56.451 -54.130  1.00  0.00     0.123 C 
BRANCH  27  28
HETATM   28  C   UNL     1     -42.099  56.204 -55.621  1.00  0.00     0.219 C 
HETATM   29  N   UNL     1     -42.396  57.324 -56.366  1.00  0.00    -0.356 N 
HETATM   30  H   UNL     1     -42.488  58.218 -55.900  1.00  0.00     0.162 HD
HETATM   31  O   UNL     1     -41.836  55.111 -56.111  1.00  0.00    -0.274 OA
BRANCH  29  32
HETATM   32  C   UNL     1     -42.478  57.286 -57.822  1.00  0.00     0.084 C 
HETATM   33  C   UNL     1     -43.903  56.952 -58.283  1.00  0.00     0.025 C 
HETATM   34  C   UNL     1     -44.876  58.119 -58.113  1.00  0.00     0.002 C 
HETATM   35  C   UNL     1     -44.351  59.389 -58.773  1.00  0.00     0.000 C 
HETATM   36  C   UNL     1     -42.959  59.751 -58.264  1.00  0.00     0.002 C 
HETATM   37  C   UNL     1     -41.977  58.595 -58.447  1.00  0.00     0.025 C 
ENDBRANCH  29  32
ENDBRANCH  27  28
ENDBRANCH  26  27
ENDBRANCH   2  26
TORSDOF 8
ENDMDL
MODEL 3
REMARK VINA RESULT:      -9.0      1.326      1.775
REMARK  8 active torsions:
REMARK  status: ('A' for Active; 'I' for Inactive)
REMARK    1  A    between atoms: C_6  and  N_7 
REMARK       I    between atoms: N_7  and  C_8 
REMARK    2  A    between atoms: C_8  and  C_9 
REMARK    3  A    between atoms: C_9  and  S_10 
REMARK    4  A    between atoms: S_10  and  C_11 
REMARK    5  A    between atoms: N_12  and  C_13 
REMARK    6  A    between atoms: C_13  and  C_14 
REMARK    7  A    between atoms: C_14  and  C_15 
REMARK       I    between atoms: C_15  and  N_16 
REMARK    8  A    between atoms: N_16  and  C_17 
ROOT
HETATM    1  C   UNL     1     -41.201  54.693 -52.840  1.00  0.00     0.172 A 
HETATM    2  N   UNL     1     -41.361  54.676 -51.466  1.00  0.00    -0.292 N 
HETATM    3  C   UNL     1     -40.908  53.580 -50.728  1.00  0.00     0.262 A 
HETATM    4  O   UNL     1     -40.910  53.532 -49.500  1.00  0.00    -0.267 OA
HETATM    5  C   UNL     1     -40.382  52.437 -51.486  1.00  0.00     0.061 A 
HETATM    6  C   UNL     1     -40.300  52.564 -52.868  1.00  0.00     0.075 A 
HETATM    7  C   UNL     1     -40.003  51.254 -50.840  1.00  0.00     0.019 A 
HETATM    8  C   UNL     1     -39.548  50.174 -51.595  1.00  0.00     0.001 A 
HETATM    9  C   UNL     1     -39.484  50.279 -52.983  1.00  0.00     0.002 A 
HETATM   10  C   UNL     1     -39.862  51.468 -53.615  1.00  0.00     0.032 A 
HETATM   11  N   UNL     1     -40.662  53.743 -53.532  1.00  0.00    -0.224 NA
ENDROOT
BRANCH   1  12
HETATM   12  S   UNL     1     -41.745  56.076 -53.757  1.00  0.00    -0.082 SA
BRANCH  12  13
HETATM   13  C   UNL     1     -41.271  55.540 -55.411  1.00  0.00     0.185 C 
BRANCH  13  14
HETATM   14  C   UNL     1     -42.451  55.130 -56.273  1.00  0.00     0.231 C 
HETATM   15  N   UNL     1     -42.540  55.823 -57.468  1.00  0.00    -0.326 N 
HETATM   16  H   UNL     1     -41.676  56.235 -57.821  1.00  0.00     0.169 HD
HETATM   17  O   UNL     1     -43.281  54.333 -55.843  1.00  0.00    -0.272 OA
BRANCH  15  18
HETATM   18  C   UNL     1     -43.686  55.979 -58.276  1.00  0.00     0.036 A 
HETATM   19  C   UNL     1     -44.511  57.104 -58.251  1.00  0.00     0.053 A 
HETATM   20  C   UNL     1     -45.579  57.223 -59.151  1.00  0.00     0.042 A 
HETATM   21  C   UNL     1     -45.848  56.215 -60.088  1.00  0.00    -0.040 A 
HETATM   22 CL   UNL     1     -46.534  58.664 -59.085  1.00  0.00    -0.084 Cl
HETATM   23  C   UNL     1     -46.956  56.335 -61.095  1.00  0.00     0.050 C 
HETATM   24  C   UNL     1     -45.022  55.084 -60.101  1.00  0.00     0.011 A 
HETATM   25  C   UNL     1     -43.956  54.970 -59.204  1.00  0.00     0.030 A 
ENDBRANCH  15  18
ENDBRANCH  13  14
ENDBRANCH  12  13
ENDBRANCH   1  12
BRANCH   2  26
HETATM   26  C   UNL     1     -41.942  55.771 -50.668  1.00  0.00     0.144 C 
BRANCH  26  27
HETATM   27  C   UNL     1     -40.868  56.713 -50.116  1.00  0.00     0.123 C 
BRANCH  27  28
HETATM   28  C   UNL     1     -41.054  58.101 -50.684  1.00  0.00     0.219 C 
HETATM   29  N   UNL     1     -42.372  58.493 -50.766  1.00  0.00    -0.356 N 
HETATM   30  H   UNL     1     -43.090  57.902 -50.367  1.00  0.00     0.162 HD
HETATM   31  O   UNL     1     -40.110  58.812 -51.014  1.00  0.00    -0.274 OA
BRANCH  29  32
HETATM   32  C   UNL     1     -42.761  59.789 -51.313  1.00  0.00     0.084 C 
HETATM   33  C   UNL     1     -43.040  59.686 -52.818  1.00  0.00     0.025 C 
HETATM   34  C   UNL     1     -44.364  58.990 -53.137  1.00  0.00     0.002 C 
HETATM   35  C   UNL     1     -45.528  59.628 -52.388  1.00  0.00     0.000 C 
HETATM   36  C   UNL     1     -45.272  59.669 -50.885  1.00  0.00     0.002 C 
HETATM   37  C   UNL     1     -43.960  60.380 -50.558  1.00  0.00     0.025 C 
ENDBRANCH  29  32
ENDBRANCH  27  28
ENDBRANCH  26  27
ENDBRANCH   2  26
TORSDOF 8
ENDMDL
MODEL 4
REMARK VINA RESULT:      -8.9      2.446      2.931
REMARK  8 active torsions:
REMARK  status: ('A' for Active; 'I' for Inactive)
REMARK    1  A    between atoms: C_6  and  N_7 
REMARK       I    between atoms: N_7  and  C_8 
REMARK    2  A    between atoms: C_8  and  C_9 
REMARK    3  A    between atoms: C_9  and  S_10 
REMARK    4  A    between atoms: S_10  and  C_11 
REMARK    5  A    between atoms: N_12  and  C_13 
REMARK    6  A    between atoms: C_13  and  C_14 
REMARK    7  A    between atoms: C_14  and  C_15 
REMARK       I    between atoms: C_15  and  N_16 
REMARK    8  A    between atoms: N_16  and  C_17 
ROOT
HETATM    1  C   UNL     1     -41.839  54.948 -53.820  1.00  0.00     0.172 A 
HETATM    2  N   UNL     1     -41.661  55.230 -52.478  1.00  0.00    -0.292 N 
HETATM    3  C   UNL     1     -40.918  54.358 -51.678  1.00  0.00     0.262 A 
HETATM    4  O   UNL     1     -40.619  54.586 -50.508  1.00  0.00    -0.267 OA
HETATM    5  C   UNL     1     -40.460  53.108 -52.301  1.00  0.00     0.061 A 
HETATM    6  C   UNL     1     -40.727  52.927 -53.653  1.00  0.00     0.075 A 
HETATM    7  C   UNL     1     -39.800  52.127 -51.552  1.00  0.00     0.019 A 
HETATM    8  C   UNL     1     -39.417  50.936 -52.165  1.00  0.00     0.001 A 
HETATM    9  C   UNL     1     -39.701  50.730 -53.514  1.00  0.00     0.002 A 
HETATM   10  C   UNL     1     -40.356  51.722 -54.252  1.00  0.00     0.032 A 
HETATM   11  N   UNL     1     -41.375  53.902 -54.423  1.00  0.00    -0.224 NA
ENDROOT
BRANCH   1  12
HETATM   12  S   UNL     1     -42.746  56.053 -54.823  1.00  0.00    -0.082 SA
BRANCH  12  13
HETATM   13  C   UNL     1     -42.987  55.009 -56.272  1.00  0.00     0.185 C 
BRANCH  13  14
HETATM   14  C   UNL     1     -42.934  55.774 -57.581  1.00  0.00     0.231 C 
HETATM   15  N   UNL     1     -42.058  56.845 -57.570  1.00  0.00    -0.326 N 
HETATM   16  H   UNL     1     -41.302  56.808 -56.887  1.00  0.00     0.169 HD
HETATM   17  O   UNL     1     -43.707  55.489 -58.493  1.00  0.00    -0.272 OA
BRANCH  15  18
HETATM   18  C   UNL     1     -42.068  57.960 -58.435  1.00  0.00     0.036 A 
HETATM   19  C   UNL     1     -42.081  59.285 -58.000  1.00  0.00     0.053 A 
HETATM   20  C   UNL     1     -41.998  60.337 -58.923  1.00  0.00     0.042 A 
HETATM   21  C   UNL     1     -41.909  60.084 -60.299  1.00  0.00    -0.040 A 
HETATM   22 CL   UNL     1     -41.980  61.953 -58.304  1.00  0.00    -0.084 Cl
HETATM   23  C   UNL     1     -41.771  61.190 -61.307  1.00  0.00     0.050 C 
HETATM   24  C   UNL     1     -41.906  58.752 -60.729  1.00  0.00     0.011 A 
HETATM   25  C   UNL     1     -41.987  57.705 -59.807  1.00  0.00     0.030 A 
ENDBRANCH  15  18
ENDBRANCH  13  14
ENDBRANCH  12  13
ENDBRANCH   1  12
BRANCH   2  26
HETATM   26  C   UNL     1     -42.157  56.437 -51.793  1.00  0.00     0.144 C 
BRANCH  26  27
HETATM   27  C   UNL     1     -43.553  56.228 -51.199  1.00  0.00     0.123 C 
BRANCH  27  28
HETATM   28  C   UNL     1     -44.372  57.490 -51.344  1.00  0.00     0.219 C 
HETATM   29  N   UNL     1     -43.795  58.433 -52.166  1.00  0.00    -0.356 N 
HETATM   30  H   UNL     1     -42.954  58.196 -52.676  1.00  0.00     0.162 HD
HETATM   31  O   UNL     1     -45.461  57.638 -50.798  1.00  0.00    -0.274 OA
BRANCH  29  32
HETATM   32  C   UNL     1     -44.417  59.730 -52.412  1.00  0.00     0.084 C 
HETATM   33  C   UNL     1     -43.363  60.845 -52.444  1.00  0.00     0.025 C 
HETATM   34  C   UNL     1     -42.525  60.841 -53.723  1.00  0.00     0.002 C 
HETATM   35  C   UNL     1     -43.402  60.855 -54.970  1.00  0.00     0.000 C 
HETATM   36  C   UNL     1     -44.405  59.705 -54.962  1.00  0.00     0.002 C 
HETATM   37  C   UNL     1     -45.259  59.715 -53.696  1.00  0.00     0.025 C 
ENDBRANCH  29  32
ENDBRANCH  27  28
ENDBRANCH  26  27
ENDBRANCH   2  26
TORSDOF 8
ENDMDL
MODEL 5
REMARK VINA RESULT:      -8.9      2.768      3.330
REMARK  8 active torsions:
REMARK  status: ('A' for Active; 'I' for Inactive)
REMARK    1  A    between atoms: C_6  and  N_7 
REMARK       I    between atoms: N_7  and  C_8 
REMARK    2  A    between atoms: C_8  and  C_9 
REMARK    3  A    between atoms: C_9  and  S_10 
REMARK    4  A    between atoms: S_10  and  C_11 
REMARK    5  A    between atoms: N_12  and  C_13 
REMARK    6  A    between atoms: C_13  and  C_14 
REMARK    7  A    between atoms: C_14  and  C_15 
REMARK       I    between atoms: C_15  and  N_16 
REMARK    8  A    between atoms: N_16  and  C_17 
ROOT
HETATM    1  C   UNL     1     -41.644  55.330 -53.280  1.00  0.00     0.172 A 
HETATM    2  N   UNL     1     -41.502  55.340 -51.904  1.00  0.00    -0.292 N 
HETATM    3  C   UNL     1     -40.828  54.294 -51.268  1.00  0.00     0.262 A 
HETATM    4  O   UNL     1     -40.563  54.279 -50.068  1.00  0.00    -0.267 OA
HETATM    5  C   UNL     1     -40.404  53.165 -52.108  1.00  0.00     0.061 A 
HETATM    6  C   UNL     1     -40.631  53.261 -53.476  1.00  0.00     0.075 A 
HETATM    7  C   UNL     1     -39.817  52.027 -51.545  1.00  0.00     0.019 A 
HETATM    8  C   UNL     1     -39.465  50.957 -52.366  1.00  0.00     0.001 A 
HETATM    9  C   UNL     1     -39.709  51.028 -53.736  1.00  0.00     0.002 A 
HETATM   10  C   UNL     1     -40.293  52.175 -54.286  1.00  0.00     0.032 A 
HETATM   11  N   UNL     1     -41.206  54.396 -54.061  1.00  0.00    -0.224 NA
ENDROOT
BRANCH   1  12
HETATM   12  S   UNL     1     -42.464  56.651 -54.075  1.00  0.00    -0.082 SA
BRANCH  12  13
HETATM   13  C   UNL     1     -42.738  55.901 -55.690  1.00  0.00     0.185 C 
BRANCH  13  14
HETATM   14  C   UNL     1     -43.149  56.900 -56.757  1.00  0.00     0.231 C 
HETATM   15  N   UNL     1     -42.138  57.218 -57.647  1.00  0.00    -0.326 N 
HETATM   16  H   UNL     1     -41.388  56.533 -57.748  1.00  0.00     0.169 HD
HETATM   17  O   UNL     1     -44.257  57.429 -56.711  1.00  0.00    -0.272 OA
BRANCH  15  18
HETATM   18  C   UNL     1     -42.058  58.363 -58.467  1.00  0.00     0.036 A 
HETATM   19  C   UNL     1     -41.742  59.639 -57.997  1.00  0.00     0.053 A 
HETATM   20  C   UNL     1     -41.593  60.708 -58.890  1.00  0.00     0.042 A 
HETATM   21  C   UNL     1     -41.763  60.525 -60.270  1.00  0.00    -0.040 A 
HETATM   22 CL   UNL     1     -41.163  62.251 -58.237  1.00  0.00    -0.084 Cl
HETATM   23  C   UNL     1     -41.563  61.642 -61.255  1.00  0.00     0.050 C 
HETATM   24  C   UNL     1     -42.089  59.245 -60.734  1.00  0.00     0.011 A 
HETATM   25  C   UNL     1     -42.235  58.179 -59.841  1.00  0.00     0.030 A 
ENDBRANCH  15  18
ENDBRANCH  13  14
ENDBRANCH  12  13
ENDBRANCH   1  12
BRANCH   2  26
HETATM   26  C   UNL     1     -41.969  56.417 -51.013  1.00  0.00     0.144 C 
BRANCH  26  27
HETATM   27  C   UNL     1     -40.869  57.445 -50.729  1.00  0.00     0.123 C 
BRANCH  27  28
HETATM   28  C   UNL     1     -41.313  58.817 -51.181  1.00  0.00     0.219 C 
HETATM   29  N   UNL     1     -42.607  59.125 -50.823  1.00  0.00    -0.356 N 
HETATM   30  H   UNL     1     -43.120  58.490 -50.225  1.00  0.00     0.162 HD
HETATM   31  O   UNL     1     -40.572  59.586 -51.785  1.00  0.00    -0.274 OA
BRANCH  29  32
HETATM   32  C   UNL     1     -43.231  60.393 -51.190  1.00  0.00     0.084 C 
HETATM   33  C   UNL     1     -43.949  60.278 -52.542  1.00  0.00     0.025 C 
HETATM   34  C   UNL     1     -45.257  59.491 -52.461  1.00  0.00     0.002 C 
HETATM   35  C   UNL     1     -46.177  60.039 -51.376  1.00  0.00     0.000 C 
HETATM   36  C   UNL     1     -45.477  60.090 -50.022  1.00  0.00     0.002 C 
HETATM   37  C   UNL     1     -44.178  60.892 -50.091  1.00  0.00     0.025 C 
ENDBRANCH  29  32
ENDBRANCH  27  28
ENDBRANCH  26  27
ENDBRANCH   2  26
TORSDOF 8
ENDMDL
MODEL 6
REMARK VINA RESULT:      -8.7      3.232      8.905
REMARK  8 active torsions:
REMARK  status: ('A' for Active; 'I' for Inactive)
REMARK    1  A    between atoms: C_6  and  N_7 
REMARK       I    between atoms: N_7  and  C_8 
REMARK    2  A    between atoms: C_8  and  C_9 
REMARK    3  A    between atoms: C_9  and  S_10 
REMARK    4  A    between atoms: S_10  and  C_11 
REMARK    5  A    between atoms: N_12  and  C_13 
REMARK    6  A    between atoms: C_13  and  C_14 
REMARK    7  A    between atoms: C_14  and  C_15 
REMARK       I    between atoms: C_15  and  N_16 
REMARK    8  A    between atoms: N_16  and  C_17 
ROOT
HETATM    1  C   UNL     1     -43.779  58.665 -52.118  1.00  0.00     0.172 A 
HETATM    2  N   UNL     1     -43.412  58.999 -53.409  1.00  0.00    -0.292 N 
HETATM    3  C   UNL     1     -43.095  60.324 -53.720  1.00  0.00     0.262 A 
HETATM    4  O   UNL     1     -42.656  60.687 -54.809  1.00  0.00    -0.267 OA
HETATM    5  C   UNL     1     -43.290  61.323 -52.660  1.00  0.00     0.061 A 
HETATM    6  C   UNL     1     -43.692  60.864 -51.410  1.00  0.00     0.075 A 
HETATM    7  C   UNL     1     -43.101  62.687 -52.908  1.00  0.00     0.019 A 
HETATM    8  C   UNL     1     -43.334  63.610 -51.891  1.00  0.00     0.001 A 
HETATM    9  C   UNL     1     -43.762  63.168 -50.641  1.00  0.00     0.002 A 
HETATM   10  C   UNL     1     -43.942  61.801 -50.405  1.00  0.00     0.032 A 
HETATM   11  N   UNL     1     -43.875  59.503 -51.138  1.00  0.00    -0.224 NA
ENDROOT
BRANCH   1  12
HETATM   12  S   UNL     1     -44.148  57.004 -51.726  1.00  0.00    -0.082 SA
BRANCH  12  13
HETATM   13  C   UNL     1     -42.531  56.473 -51.134  1.00  0.00     0.185 C 
BRANCH  13  14
HETATM   14  C   UNL     1     -42.288  54.984 -51.302  1.00  0.00     0.231 C 
HETATM   15  N   UNL     1     -40.976  54.660 -51.600  1.00  0.00    -0.326 N 
HETATM   16  H   UNL     1     -40.265  55.339 -51.325  1.00  0.00     0.169 HD
HETATM   17  O   UNL     1     -43.232  54.198 -51.278  1.00  0.00    -0.272 OA
BRANCH  15  18
HETATM   18  C   UNL     1     -40.509  53.471 -52.198  1.00  0.00     0.036 A 
HETATM   19  C   UNL     1     -40.065  52.359 -51.481  1.00  0.00     0.053 A 
HETATM   20  C   UNL     1     -39.702  51.181 -52.149  1.00  0.00     0.042 A 
HETATM   21  C   UNL     1     -39.768  51.095 -53.546  1.00  0.00    -0.040 A 
HETATM   22 CL   UNL     1     -39.200  49.832 -51.189  1.00  0.00    -0.084 Cl
HETATM   23  C   UNL     1     -39.431  49.831 -54.285  1.00  0.00     0.050 C 
HETATM   24  C   UNL     1     -40.205  52.217 -54.260  1.00  0.00     0.011 A 
HETATM   25  C   UNL     1     -40.569  53.390 -53.592  1.00  0.00     0.030 A 
ENDBRANCH  15  18
ENDBRANCH  13  14
ENDBRANCH  12  13
ENDBRANCH   1  12
BRANCH   2  26
HETATM   26  C   UNL     1     -43.267  58.044 -54.522  1.00  0.00     0.144 C 
BRANCH  26  27
HETATM   27  C   UNL     1     -44.553  57.917 -55.342  1.00  0.00     0.123 C 
BRANCH  27  28
HETATM   28  C   UNL     1     -44.268  58.190 -56.801  1.00  0.00     0.219 C 
HETATM   29  N   UNL     1     -44.192  57.051 -57.572  1.00  0.00    -0.356 N 
HETATM   30  H   UNL     1     -44.421  56.157 -57.157  1.00  0.00     0.162 HD
HETATM   31  O   UNL     1     -44.143  59.325 -57.249  1.00  0.00    -0.274 OA
BRANCH  29  32
HETATM   32  C   UNL     1     -43.897  57.101 -59.001  1.00  0.00     0.084 C 
HETATM   33  C   UNL     1     -43.258  55.789 -59.474  1.00  0.00     0.025 C 
HETATM   34  C   UNL     1     -44.258  54.636 -59.572  1.00  0.00     0.002 C 
HETATM   35  C   UNL     1     -45.468  55.013 -60.419  1.00  0.00     0.000 C 
HETATM   36  C   UNL     1     -46.137  56.284 -59.904  1.00  0.00     0.002 C 
HETATM   37  C   UNL     1     -45.148  57.445 -59.821  1.00  0.00     0.025 C 
ENDBRANCH  29  32
ENDBRANCH  27  28
ENDBRANCH  26  27
ENDBRANCH   2  26
TORSDOF 8
ENDMDL
MODEL 7
REMARK VINA RESULT:      -8.5      3.605      7.295
REMARK  8 active torsions:
REMARK  status: ('A' for Active; 'I' for Inactive)
REMARK    1  A    between atoms: C_6  and  N_7 
REMARK       I    between atoms: N_7  and  C_8 
REMARK    2  A    between atoms: C_8  and  C_9 
REMARK    3  A    between atoms: C_9  and  S_10 
REMARK    4  A    between atoms: S_10  and  C_11 
REMARK    5  A    between atoms: N_12  and  C_13 
REMARK    6  A    between atoms: C_13  and  C_14 
REMARK    7  A    between atoms: C_14  and  C_15 
REMARK       I    between atoms: C_15  and  N_16 
REMARK    8  A    between atoms: N_16  and  C_17 
ROOT
HETATM    1  C   UNL     1     -42.219  57.746 -53.460  1.00  0.00     0.172 A 
HETATM    2  N   UNL     1     -42.894  58.905 -53.797  1.00  0.00    -0.292 N 
HETATM    3  C   UNL     1     -43.586  58.980 -55.008  1.00  0.00     0.262 A 
HETATM    4  O   UNL     1     -44.299  59.926 -55.334  1.00  0.00    -0.267 OA
HETATM    5  C   UNL     1     -43.455  57.837 -55.922  1.00  0.00     0.061 A 
HETATM    6  C   UNL     1     -42.724  56.739 -55.480  1.00  0.00     0.075 A 
HETATM    7  C   UNL     1     -44.025  57.864 -57.200  1.00  0.00     0.019 A 
HETATM    8  C   UNL     1     -43.846  56.779 -58.056  1.00  0.00     0.001 A 
HETATM    9  C   UNL     1     -43.095  55.684 -57.636  1.00  0.00     0.002 A 
HETATM   10  C   UNL     1     -42.535  55.668 -56.354  1.00  0.00     0.032 A 
HETATM   11  N   UNL     1     -42.156  56.687 -54.201  1.00  0.00    -0.224 NA
ENDROOT
BRANCH   1  12
HETATM   12  S   UNL     1     -41.377  57.647 -51.934  1.00  0.00    -0.082 SA
BRANCH  12  13
HETATM   13  C   UNL     1     -42.520  56.585 -51.033  1.00  0.00     0.185 C 
BRANCH  13  14
HETATM   14  C   UNL     1     -42.168  55.111 -51.118  1.00  0.00     0.231 C 
HETATM   15  N   UNL     1     -40.944  54.860 -51.713  1.00  0.00    -0.326 N 
HETATM   16  H   UNL     1     -40.264  55.621 -51.696  1.00  0.00     0.169 HD
HETATM   17  O   UNL     1     -42.986  54.261 -50.777  1.00  0.00    -0.272 OA
BRANCH  15  18
HETATM   18  C   UNL     1     -40.515  53.649 -52.298  1.00  0.00     0.036 A 
HETATM   19  C   UNL     1     -40.081  52.542 -51.568  1.00  0.00     0.053 A 
HETATM   20  C   UNL     1     -39.758  51.344 -52.221  1.00  0.00     0.042 A 
HETATM   21  C   UNL     1     -39.855  51.233 -53.615  1.00  0.00    -0.040 A 
HETATM   22 CL   UNL     1     -39.264  50.003 -51.246  1.00  0.00    -0.084 Cl
HETATM   23  C   UNL     1     -39.561  49.948 -54.336  1.00  0.00     0.050 C 
HETATM   24  C   UNL     1     -40.283  52.351 -54.341  1.00  0.00     0.011 A 
HETATM   25  C   UNL     1     -40.607  53.544 -53.688  1.00  0.00     0.030 A 
ENDBRANCH  15  18
ENDBRANCH  13  14
ENDBRANCH  12  13
ENDBRANCH   1  12
BRANCH   2  26
HETATM   26  C   UNL     1     -42.999  60.102 -52.943  1.00  0.00     0.144 C 
BRANCH  26  27
HETATM   27  C   UNL     1     -44.042  59.928 -51.835  1.00  0.00     0.123 C 
BRANCH  27  28
HETATM   28  C   UNL     1     -43.577  60.616 -50.572  1.00  0.00     0.219 C 
HETATM   29  N   UNL     1     -44.608  61.081 -49.784  1.00  0.00    -0.356 N 
HETATM   30  H   UNL     1     -45.562  60.855 -50.034  1.00  0.00     0.162 HD
HETATM   31  O   UNL     1     -42.392  60.722 -50.275  1.00  0.00    -0.274 OA
BRANCH  29  32
HETATM   32  C   UNL     1     -44.365  61.798 -48.537  1.00  0.00     0.084 C 
HETATM   33  C   UNL     1     -44.319  63.313 -48.777  1.00  0.00     0.025 C 
HETATM   34  C   UNL     1     -45.698  63.923 -49.029  1.00  0.00     0.002 C 
HETATM   35  C   UNL     1     -46.686  63.554 -47.928  1.00  0.00     0.000 C 
HETATM   36  C   UNL     1     -46.774  62.043 -47.739  1.00  0.00     0.002 C 
HETATM   37  C   UNL     1     -45.402  61.430 -47.467  1.00  0.00     0.025 C 
ENDBRANCH  29  32
ENDBRANCH  27  28
ENDBRANCH  26  27
ENDBRANCH   2  26
TORSDOF 8
ENDMDL
MODEL 8
REMARK VINA RESULT:      -8.4      3.050      7.900
REMARK  8 active torsions:
REMARK  status: ('A' for Active; 'I' for Inactive)
REMARK    1  A    between atoms: C_6  and  N_7 
REMARK       I    between atoms: N_7  and  C_8 
REMARK    2  A    between atoms: C_8  and  C_9 
REMARK    3  A    between atoms: C_9  and  S_10 
REMARK    4  A    between atoms: S_10  and  C_11 
REMARK    5  A    between atoms: N_12  and  C_13 
REMARK    6  A    between atoms: C_13  and  C_14 
REMARK    7  A    between atoms: C_14  and  C_15 
REMARK       I    between atoms: C_15  and  N_16 
REMARK    8  A    between atoms: N_16  and  C_17 
ROOT
HETATM    1  C   UNL     1     -43.158  56.198 -53.010  1.00  0.00     0.172 A 
HETATM    2  N   UNL     1     -43.107  56.115 -54.390  1.00  0.00    -0.292 N 
HETATM    3  C   UNL     1     -42.408  55.069 -54.998  1.00  0.00     0.262 A 
HETATM    4  O   UNL     1     -42.405  54.859 -56.209  1.00  0.00    -0.267 OA
HETATM    5  C   UNL     1     -41.657  54.167 -54.115  1.00  0.00     0.061 A 
HETATM    6  C   UNL     1     -41.764  54.372 -52.744  1.00  0.00     0.075 A 
HETATM    7  C   UNL     1     -40.843  53.155 -54.638  1.00  0.00     0.019 A 
HETATM    8  C   UNL     1     -40.112  52.345 -53.773  1.00  0.00     0.001 A 
HETATM    9  C   UNL     1     -40.190  52.554 -52.397  1.00  0.00     0.002 A 
HETATM   10  C   UNL     1     -41.010  53.566 -51.888  1.00  0.00     0.032 A 
HETATM   11  N   UNL     1     -42.581  55.370 -52.200  1.00  0.00    -0.224 NA
ENDROOT
BRANCH   1  12
HETATM   12  S   UNL     1     -44.053  57.491 -52.253  1.00  0.00    -0.082 SA
BRANCH  12  13
HETATM   13  C   UNL     1     -42.679  58.488 -51.648  1.00  0.00     0.185 C 
BRANCH  13  14
HETATM   14  C   UNL     1     -43.113  59.823 -51.069  1.00  0.00     0.231 C 
HETATM   15  N   UNL     1     -44.209  59.740 -50.229  1.00  0.00    -0.326 N 
HETATM   16  H   UNL     1     -44.383  58.833 -49.795  1.00  0.00     0.169 HD
HETATM   17  O   UNL     1     -42.571  60.861 -51.441  1.00  0.00    -0.272 OA
BRANCH  15  18
HETATM   18  C   UNL     1     -45.083  60.787 -49.867  1.00  0.00     0.036 A 
HETATM   19  C   UNL     1     -45.882  61.485 -50.773  1.00  0.00     0.053 A 
HETATM   20  C   UNL     1     -46.792  62.451 -50.322  1.00  0.00     0.042 A 
HETATM   21  C   UNL     1     -46.914  62.744 -48.956  1.00  0.00    -0.040 A 
HETATM   22 CL   UNL     1     -47.776  63.246 -51.501  1.00  0.00    -0.084 Cl
HETATM   23  C   UNL     1     -47.913  63.740 -48.439  1.00  0.00     0.050 C 
HETATM   24  C   UNL     1     -46.102  62.048 -48.053  1.00  0.00     0.011 A 
HETATM   25  C   UNL     1     -45.197  61.082 -48.506  1.00  0.00     0.030 A 
ENDBRANCH  15  18
ENDBRANCH  13  14
ENDBRANCH  12  13
ENDBRANCH   1  12
BRANCH   2  26
HETATM   26  C   UNL     1     -43.790  57.034 -55.319  1.00  0.00     0.144 C 
BRANCH  26  27
HETATM   27  C   UNL     1     -42.906  58.224 -55.703  1.00  0.00     0.123 C 
BRANCH  27  28
HETATM   28  C   UNL     1     -42.699  58.254 -57.200  1.00  0.00     0.219 C 
HETATM   29  N   UNL     1     -43.439  57.311 -57.880  1.00  0.00    -0.356 N 
HETATM   30  H   UNL     1     -44.116  56.755 -57.374  1.00  0.00     0.162 HD
HETATM   31  O   UNL     1     -41.958  59.063 -57.749  1.00  0.00    -0.274 OA
BRANCH  29  32
HETATM   32  C   UNL     1     -43.357  57.161 -59.329  1.00  0.00     0.084 C 
HETATM   33  C   UNL     1     -43.023  55.712 -59.711  1.00  0.00     0.025 C 
HETATM   34  C   UNL     1     -44.204  54.758 -59.532  1.00  0.00     0.002 C 
HETATM   35  C   UNL     1     -45.448  55.261 -60.255  1.00  0.00     0.000 C 
HETATM   36  C   UNL     1     -45.812  56.678 -59.823  1.00  0.00     0.002 C 
HETATM   37  C   UNL     1     -44.642  57.641 -60.017  1.00  0.00     0.025 C 
ENDBRANCH  29  32
ENDBRANCH  27  28
ENDBRANCH  26  27
ENDBRANCH   2  26
TORSDOF 8
ENDMDL
MODEL 9
REMARK VINA RESULT:      -8.3      2.503      7.005
REMARK  8 active torsions:
REMARK  status: ('A' for Active; 'I' for Inactive)
REMARK    1  A    between atoms: C_6  and  N_7 
REMARK       I    between atoms: N_7  and  C_8 
REMARK    2  A    between atoms: C_8  and  C_9 
REMARK    3  A    between atoms: C_9  and  S_10 
REMARK    4  A    between atoms: S_10  and  C_11 
REMARK    5  A    between atoms: N_12  and  C_13 
REMARK    6  A    between atoms: C_13  and  C_14 
REMARK    7  A    between atoms: C_14  and  C_15 
REMARK       I    between atoms: C_15  and  N_16 
REMARK    8  A    between atoms: N_16  and  C_17 
ROOT
HETATM    1  C   UNL     1     -43.189  59.819 -51.923  1.00  0.00     0.172 A 
HETATM    2  N   UNL     1     -44.229  59.000 -51.521  1.00  0.00    -0.292 N 
HETATM    3  C   UNL     1     -45.159  59.466 -50.587  1.00  0.00     0.262 A 
HETATM    4  O   UNL     1     -46.169  58.849 -50.259  1.00  0.00    -0.267 OA
HETATM    5  C   UNL     1     -44.902  60.784 -49.991  1.00  0.00     0.061 A 
HETATM    6  C   UNL     1     -43.805  61.500 -50.459  1.00  0.00     0.075 A 
HETATM    7  C   UNL     1     -45.719  61.288 -48.972  1.00  0.00     0.019 A 
HETATM    8  C   UNL     1     -45.422  62.524 -48.401  1.00  0.00     0.001 A 
HETATM    9  C   UNL     1     -44.312  63.241 -48.842  1.00  0.00     0.002 A 
HETATM   10  C   UNL     1     -43.506  62.727 -49.864  1.00  0.00     0.032 A 
HETATM   11  N   UNL     1     -42.983  61.019 -51.486  1.00  0.00    -0.224 NA
ENDROOT
BRANCH   1  12
HETATM   12  S   UNL     1     -42.044  59.244 -53.109  1.00  0.00    -0.082 SA
BRANCH  12  13
HETATM   13  C   UNL     1     -42.292  60.489 -54.388  1.00  0.00     0.185 C 
BRANCH  13  14
HETATM   14  C   UNL     1     -42.473  59.899 -55.775  1.00  0.00     0.231 C 
HETATM   15  N   UNL     1     -43.565  59.056 -55.887  1.00  0.00    -0.326 N 
HETATM   16  H   UNL     1     -44.315  59.188 -55.208  1.00  0.00     0.169 HD
HETATM   17  O   UNL     1     -41.630  60.099 -56.646  1.00  0.00    -0.272 OA
BRANCH  15  18
HETATM   18  C   UNL     1     -43.776  58.066 -56.870  1.00  0.00     0.036 A 
HETATM   19  C   UNL     1     -44.656  58.207 -57.944  1.00  0.00     0.053 A 
HETATM   20  C   UNL     1     -44.742  57.213 -58.929  1.00  0.00     0.042 A 
HETATM   21  C   UNL     1     -43.955  56.055 -58.855  1.00  0.00    -0.040 A 
HETATM   22 CL   UNL     1     -45.827  57.477 -60.250  1.00  0.00    -0.084 Cl
HETATM   23  C   UNL     1     -43.990  54.996 -59.920  1.00  0.00     0.050 C 
HETATM   24  C   UNL     1     -43.081  55.915 -57.770  1.00  0.00     0.011 A 
HETATM   25  C   UNL     1     -42.995  56.909 -56.790  1.00  0.00     0.030 A 
ENDBRANCH  15  18
ENDBRANCH  13  14
ENDBRANCH  12  13
ENDBRANCH   1  12
BRANCH   2  26
HETATM   26  C   UNL     1     -44.489  57.646 -52.041  1.00  0.00     0.144 C 
BRANCH  26  27
HETATM   27  C   UNL     1     -44.036  56.558 -51.063  1.00  0.00     0.123 C 
BRANCH  27  28
HETATM   28  C   UNL     1     -42.554  56.305 -51.220  1.00  0.00     0.219 C 
HETATM   29  N   UNL     1     -42.224  55.655 -52.389  1.00  0.00    -0.356 N 
HETATM   30  H   UNL     1     -42.943  55.486 -53.081  1.00  0.00     0.162 HD
HETATM   31  O   UNL     1     -41.729  56.673 -50.390  1.00  0.00    -0.274 OA
BRANCH  29  32
HETATM   32  C   UNL     1     -40.848  55.295 -52.713  1.00  0.00     0.084 C 
HETATM   33  C   UNL     1     -40.493  53.917 -52.140  1.00  0.00     0.025 C 
HETATM   34  C   UNL     1     -41.131  52.763 -52.914  1.00  0.00     0.002 C 
HETATM   35  C   UNL     1     -40.827  52.851 -54.405  1.00  0.00     0.000 C 
HETATM   36  C   UNL     1     -41.241  54.201 -54.982  1.00  0.00     0.002 C 
HETATM   37  C   UNL     1     -40.592  55.357 -54.225  1.00  0.00     0.025 C 
ENDBRANCH  29  32
ENDBRANCH  27  28
ENDBRANCH  26  27
ENDBRANCH   2  26
TORSDOF 8
ENDMDL
MODEL 10
REMARK VINA RESULT:      -8.3      3.109      8.149
REMARK  8 active torsions:
REMARK  status: ('A' for Active; 'I' for Inactive)
REMARK    1  A    between atoms: C_6  and  N_7 
REMARK       I    between atoms: N_7  and  C_8 
REMARK    2  A    between atoms: C_8  and  C_9 
REMARK    3  A    between atoms: C_9  and  S_10 
REMARK    4  A    between atoms: S_10  and  C_11 
REMARK    5  A    between atoms: N_12  and  C_13 
REMARK    6  A    between atoms: C_13  and  C_14 
REMARK    7  A    between atoms: C_14  and  C_15 
REMARK       I    between atoms: C_15  and  N_16 
REMARK    8  A    between atoms: N_16  and  C_17 
ROOT
HETATM    1  C   UNL     1     -43.938  57.523 -57.648  1.00  0.00     0.172 A 
HETATM    2  N   UNL     1     -44.538  58.763 -57.515  1.00  0.00    -0.292 N 
HETATM    3  C   UNL     1     -45.692  59.057 -58.245  1.00  0.00     0.262 A 
HETATM    4  O   UNL     1     -46.348  60.087 -58.105  1.00  0.00    -0.267 OA
HETATM    5  C   UNL     1     -46.141  58.052 -59.218  1.00  0.00     0.061 A 
HETATM    6  C   UNL     1     -45.436  56.855 -59.279  1.00  0.00     0.075 A 
HETATM    7  C   UNL     1     -47.225  58.302 -60.068  1.00  0.00     0.019 A 
HETATM    8  C   UNL     1     -47.598  57.342 -61.007  1.00  0.00     0.001 A 
HETATM    9  C   UNL     1     -46.884  56.149 -61.097  1.00  0.00     0.002 A 
HETATM   10  C   UNL     1     -45.806  55.910 -60.238  1.00  0.00     0.032 A 
HETATM   11  N   UNL     1     -44.357  56.581 -58.429  1.00  0.00    -0.224 NA
ENDROOT
BRANCH   1  12
HETATM   12  S   UNL     1     -42.510  57.148 -56.716  1.00  0.00    -0.082 SA
BRANCH  12  13
HETATM   13  C   UNL     1     -42.560  55.349 -56.809  1.00  0.00     0.185 C 
BRANCH  13  14
HETATM   14  C   UNL     1     -42.434  54.673 -55.456  1.00  0.00     0.231 C 
HETATM   15  N   UNL     1     -41.127  54.502 -55.034  1.00  0.00    -0.326 N 
HETATM   16  H   UNL     1     -40.432  55.130 -55.437  1.00  0.00     0.169 HD
HETATM   17  O   UNL     1     -43.433  54.237 -54.889  1.00  0.00    -0.272 OA
BRANCH  15  18
HETATM   18  C   UNL     1     -40.659  53.586 -54.067  1.00  0.00     0.036 A 
HETATM   19  C   UNL     1     -40.625  53.846 -52.697  1.00  0.00     0.053 A 
HETATM   20  C   UNL     1     -40.231  52.849 -51.794  1.00  0.00     0.042 A 
HETATM   21  C   UNL     1     -39.856  51.576 -52.244  1.00  0.00    -0.040 A 
HETATM   22 CL   UNL     1     -40.252  53.235 -50.108  1.00  0.00    -0.084 Cl
HETATM   23  C   UNL     1     -39.475  50.474 -51.296  1.00  0.00     0.050 C 
HETATM   24  C   UNL     1     -39.883  51.324 -53.621  1.00  0.00     0.011 A 
HETATM   25  C   UNL     1     -40.279  52.319 -54.520  1.00  0.00     0.030 A 
ENDBRANCH  15  18
ENDBRANCH  13  14
ENDBRANCH  12  13
ENDBRANCH   1  12
BRANCH   2  26
HETATM   26  C   UNL     1     -44.086  59.828 -56.602  1.00  0.00     0.144 C 
BRANCH  26  27
HETATM   27  C   UNL     1     -44.961  59.920 -55.349  1.00  0.00     0.123 C 
BRANCH  27  28
HETATM   28  C   UNL     1     -44.596  58.819 -54.380  1.00  0.00     0.219 C 
HETATM   29  N   UNL     1     -43.520  59.124 -53.575  1.00  0.00    -0.356 N 
HETATM   30  H   UNL     1     -43.125  60.055 -53.610  1.00  0.00     0.162 HD
HETATM   31  O   UNL     1     -45.223  57.766 -54.308  1.00  0.00    -0.274 OA
BRANCH  29  32
HETATM   32  C   UNL     1     -42.995  58.180 -52.593  1.00  0.00     0.084 C 
HETATM   33  C   UNL     1     -41.635  57.626 -53.038  1.00  0.00     0.025 C 
HETATM   34  C   UNL     1     -40.498  58.638 -52.890  1.00  0.00     0.002 C 
HETATM   35  C   UNL     1     -40.440  59.216 -51.480  1.00  0.00     0.000 C 
HETATM   36  C   UNL     1     -41.778  59.822 -51.068  1.00  0.00     0.002 C 
HETATM   37  C   UNL     1     -42.916  58.811 -51.196  1.00  0.00     0.025 C 
ENDBRANCH  29  32
ENDBRANCH  27  28
ENDBRANCH  26  27
ENDBRANCH   2  26
TORSDOF 8
ENDMDL
