MODEL 1
REMARK VINA RESULT:      -9.3      0.000      0.000
REMARK  6 active torsions:
REMARK  status: ('A' for Active; 'I' for Inactive)
REMARK    1  A    between atoms: C_2  and  O_3 
REMARK    2  A    between atoms: C_2  and  C_4 
REMARK    3  A    between atoms: C_6  and  N_7 
REMARK       I    between atoms: N_7  and  C_8 
REMARK    4  A    between atoms: C_8  and  C_9 
REMARK    5  A    between atoms: C_12  and  C_13 
REMARK    6  A    between atoms: C_18  and  C_19 
ROOT
HETATM    1  C   UNL     1     -42.482  56.320 -53.390  1.00  0.00     0.096 C 
HETATM    2  C   UNL     1     -41.758  55.269 -52.857  1.00  0.00     0.138 C 
HETATM    3  N   UNL     1     -41.429  55.653 -51.576  1.00  0.00    -0.240 N 
HETATM    4  C   UNL     1     -40.633  54.859 -50.656  1.00  0.00     0.221 C 
HETATM    5  C   UNL     1     -40.507  53.409 -51.156  1.00  0.00     0.067 C 
HETATM    6  C   UNL     1     -40.245  53.378 -52.668  1.00  0.00     0.125 C 
HETATM    7  N   UNL     1     -41.354  54.065 -53.353  1.00  0.00    -0.365 N 
HETATM    8  N   UNL     1     -41.725  56.933 -51.312  1.00  0.00    -0.181 NA
HETATM    9  C   UNL     1     -42.395  57.327 -52.400  1.00  0.00     0.160 C 
HETATM   10  H   UNL     1     -41.253  53.985 -54.368  1.00  0.00     0.162 HD
ENDROOT
BRANCH   1  11
HETATM   11  C   UNL     1     -43.150  56.433 -54.677  1.00  0.00     0.261 C 
HETATM   12  N   UNL     1     -42.277  56.492 -55.747  1.00  0.00    -0.323 N 
HETATM   13  H   UNL     1     -41.299  56.353 -55.517  1.00  0.00     0.169 HD
HETATM   14  O   UNL     1     -44.373  56.429 -54.742  1.00  0.00    -0.267 OA
BRANCH  12  15
HETATM   15  C   UNL     1     -42.595  56.604 -57.115  1.00  0.00     0.035 A 
HETATM   16  C   UNL     1     -43.219  55.597 -57.855  1.00  0.00     0.039 A 
HETATM   17  C   UNL     1     -43.499  55.766 -59.224  1.00  0.00    -0.028 A 
HETATM   18  C   UNL     1     -43.130  56.966 -59.846  1.00  0.00     0.010 A 
HETATM   19  C   UNL     1     -42.520  57.982 -59.113  1.00  0.00     0.003 A 
HETATM   20  C   UNL     1     -42.257  57.802 -57.754  1.00  0.00     0.029 A 
BRANCH  17  21
HETATM   21  C   UNL     1     -44.150  54.643 -60.002  1.00  0.00     0.147 C 
HETATM   22  C   UNL     1     -45.080  55.166 -61.088  1.00  0.00     0.044 C 
BRANCH  21  23
HETATM   23  O   UNL     1     -44.893  53.795 -59.128  1.00  0.00    -0.391 OA
HETATM   24  H   UNL     1     -44.944  52.925 -59.561  1.00  0.00     0.210 HD
ENDBRANCH  21  23
ENDBRANCH  17  21
ENDBRANCH  12  15
ENDBRANCH   1  11
BRANCH   4  25
HETATM   25  C   UNL     1     -41.220  54.864 -49.261  1.00  0.00     0.409 C 
HETATM   26  F   UNL     1     -40.583  54.046 -48.401  1.00  0.00    -0.169 F 
HETATM   27  F   UNL     1     -41.254  56.105 -48.724  1.00  0.00    -0.169 F 
HETATM   28  F   UNL     1     -42.508  54.429 -49.311  1.00  0.00    -0.169 F 
ENDBRANCH   4  25
BRANCH   6  29
HETATM   29  C   UNL     1     -40.068  51.956 -53.140  1.00  0.00     0.005 A 
HETATM   30  S   UNL     1     -39.522  50.750 -52.048  1.00  0.00    -0.104 SA
HETATM   31  C   UNL     1     -39.598  49.536 -53.248  1.00  0.00     0.050 A 
HETATM   32  C   UNL     1     -40.028  50.031 -54.458  1.00  0.00     0.008 A 
HETATM   33  C   UNL     1     -40.295  51.428 -54.398  1.00  0.00     0.017 A 
ENDBRANCH   6  29
TORSDOF 6
ENDMDL
MODEL 2
REMARK VINA RESULT:      -8.7      4.292      8.066
REMARK  6 active torsions:
REMARK  status: ('A' for Active; 'I' for Inactive)
REMARK    1  A    between atoms: C_2  and  O_3 
REMARK    2  A    between atoms: C_2  and  C_4 
REMARK    3  A    between atoms: C_6  and  N_7 
REMARK       I    between atoms: N_7  and  C_8 
REMARK    4  A    between atoms: C_8  and  C_9 
REMARK    5  A    between atoms: C_12  and  C_13 
REMARK    6  A    between atoms: C_18  and  C_19 
ROOT
HETATM    1  C   UNL     1     -42.160  56.512 -54.986  1.00  0.00     0.096 C 
HETATM    2  C   UNL     1     -42.802  56.990 -56.114  1.00  0.00     0.138 C 
HETATM    3  N   UNL     1     -42.629  58.357 -56.092  1.00  0.00    -0.240 N 
HETATM    4  C   UNL     1     -43.174  59.272 -57.079  1.00  0.00     0.221 C 
HETATM    5  C   UNL     1     -43.658  58.507 -58.324  1.00  0.00     0.067 C 
HETATM    6  C   UNL     1     -44.412  57.233 -57.917  1.00  0.00     0.125 C 
HETATM    7  N   UNL     1     -43.511  56.390 -57.111  1.00  0.00    -0.365 N 
HETATM    8  N   UNL     1     -42.087  58.806 -54.951  1.00  0.00    -0.181 NA
HETATM    9  C   UNL     1     -41.771  57.685 -54.296  1.00  0.00     0.160 C 
HETATM   10  H   UNL     1     -43.955  55.493 -56.898  1.00  0.00     0.162 HD
ENDROOT
BRANCH   1  11
HETATM   11  C   UNL     1     -41.951  55.143 -54.543  1.00  0.00     0.261 C 
HETATM   12  N   UNL     1     -41.016  55.029 -53.531  1.00  0.00    -0.323 N 
HETATM   13  H   UNL     1     -40.668  55.908 -53.161  1.00  0.00     0.169 HD
HETATM   14  O   UNL     1     -42.602  54.228 -55.031  1.00  0.00    -0.267 OA
BRANCH  12  15
HETATM   15  C   UNL     1     -40.583  53.855 -52.883  1.00  0.00     0.035 A 
HETATM   16  C   UNL     1     -40.233  52.680 -53.552  1.00  0.00     0.039 A 
HETATM   17  C   UNL     1     -39.819  51.535 -52.845  1.00  0.00    -0.028 A 
HETATM   18  C   UNL     1     -39.771  51.586 -51.446  1.00  0.00     0.010 A 
HETATM   19  C   UNL     1     -40.103  52.759 -50.770  1.00  0.00     0.003 A 
HETATM   20  C   UNL     1     -40.504  53.888 -51.487  1.00  0.00     0.029 A 
BRANCH  17  21
HETATM   21  C   UNL     1     -39.476  50.269 -53.600  1.00  0.00     0.147 C 
HETATM   22  C   UNL     1     -40.476  49.977 -54.710  1.00  0.00     0.044 C 
BRANCH  21  23
HETATM   23  O   UNL     1     -39.435  49.154 -52.711  1.00  0.00    -0.391 OA
HETATM   24  H   UNL     1     -40.248  49.193 -52.179  1.00  0.00     0.210 HD
ENDBRANCH  21  23
ENDBRANCH  17  21
ENDBRANCH  12  15
ENDBRANCH   1  11
BRANCH   4  25
HETATM   25  C   UNL     1     -42.160  60.318 -57.491  1.00  0.00     0.409 C 
HETATM   26  F   UNL     1     -42.519  61.022 -58.583  1.00  0.00    -0.169 F 
HETATM   27  F   UNL     1     -41.887  61.189 -56.493  1.00  0.00    -0.169 F 
HETATM   28  F   UNL     1     -40.984  59.709 -57.804  1.00  0.00    -0.169 F 
ENDBRANCH   4  25
BRANCH   6  29
HETATM   29  C   UNL     1     -44.931  56.519 -59.140  1.00  0.00     0.005 A 
HETATM   30  S   UNL     1     -43.957  55.348 -59.930  1.00  0.00    -0.104 SA
HETATM   31  C   UNL     1     -45.165  55.034 -61.097  1.00  0.00     0.050 A 
HETATM   32  C   UNL     1     -46.290  55.802 -60.896  1.00  0.00     0.008 A 
HETATM   33  C   UNL     1     -46.154  56.662 -59.770  1.00  0.00     0.017 A 
ENDBRANCH   6  29
TORSDOF 6
ENDMDL
MODEL 3
REMARK VINA RESULT:      -8.3      3.802      7.349
REMARK  6 active torsions:
REMARK  status: ('A' for Active; 'I' for Inactive)
REMARK    1  A    between atoms: C_2  and  O_3 
REMARK    2  A    between atoms: C_2  and  C_4 
REMARK    3  A    between atoms: C_6  and  N_7 
REMARK       I    between atoms: N_7  and  C_8 
REMARK    4  A    between atoms: C_8  and  C_9 
REMARK    5  A    between atoms: C_12  and  C_13 
REMARK    6  A    between atoms: C_18  and  C_19 
ROOT
HETATM    1  C   UNL     1     -43.009  56.236 -52.701  1.00  0.00     0.096 C 
HETATM    2  C   UNL     1     -43.055  56.908 -53.909  1.00  0.00     0.138 C 
HETATM    3  N   UNL     1     -43.234  58.237 -53.592  1.00  0.00    -0.240 N 
HETATM    4  C   UNL     1     -43.373  59.305 -54.566  1.00  0.00     0.221 C 
HETATM    5  C   UNL     1     -42.945  58.825 -55.965  1.00  0.00     0.067 C 
HETATM    6  C   UNL     1     -43.487  57.417 -56.244  1.00  0.00     0.125 C 
HETATM    7  N   UNL     1     -42.977  56.502 -55.207  1.00  0.00    -0.365 N 
HETATM    8  N   UNL     1     -43.489  58.443 -52.293  1.00  0.00    -0.181 NA
HETATM    9  C   UNL     1     -43.318  57.235 -51.747  1.00  0.00     0.160 C 
HETATM   10  H   UNL     1     -43.250  55.538 -55.416  1.00  0.00     0.162 HD
ENDROOT
BRANCH   1  11
HETATM   11  C   UNL     1     -42.758  54.831 -52.425  1.00  0.00     0.261 C 
HETATM   12  N   UNL     1     -41.431  54.551 -52.156  1.00  0.00    -0.323 N 
HETATM   13  H   UNL     1     -40.823  55.360 -52.090  1.00  0.00     0.169 HD
HETATM   14  O   UNL     1     -43.684  54.029 -52.406  1.00  0.00    -0.267 OA
BRANCH  12  15
HETATM   15  C   UNL     1     -40.856  53.301 -51.853  1.00  0.00     0.035 A 
HETATM   16  C   UNL     1     -40.403  52.397 -52.816  1.00  0.00     0.039 A 
HETATM   17  C   UNL     1     -39.849  51.158 -52.448  1.00  0.00    -0.028 A 
HETATM   18  C   UNL     1     -39.764  50.833 -51.088  1.00  0.00     0.010 A 
HETATM   19  C   UNL     1     -40.200  51.734 -50.118  1.00  0.00     0.003 A 
HETATM   20  C   UNL     1     -40.739  52.963 -50.500  1.00  0.00     0.029 A 
BRANCH  17  21
HETATM   21  C   UNL     1     -39.394  50.189 -53.519  1.00  0.00     0.147 C 
HETATM   22  C   UNL     1     -40.382  50.112 -54.674  1.00  0.00     0.044 C 
BRANCH  21  23
HETATM   23  O   UNL     1     -39.222  48.883 -52.971  1.00  0.00    -0.391 OA
HETATM   24  H   UNL     1     -39.626  48.898 -52.086  1.00  0.00     0.210 HD
ENDBRANCH  21  23
ENDBRANCH  17  21
ENDBRANCH  12  15
ENDBRANCH   1  11
BRANCH   4  25
HETATM   25  C   UNL     1     -42.562  60.523 -54.179  1.00  0.00     0.409 C 
HETATM   26  F   UNL     1     -43.178  61.323 -53.287  1.00  0.00    -0.169 F 
HETATM   27  F   UNL     1     -41.346  60.194 -53.689  1.00  0.00    -0.169 F 
HETATM   28  F   UNL     1     -42.340  61.288 -55.282  1.00  0.00    -0.169 F 
ENDBRANCH   4  25
BRANCH   6  29
HETATM   29  C   UNL     1     -43.110  56.978 -57.638  1.00  0.00     0.005 A 
HETATM   30  S   UNL     1     -42.308  58.066 -58.695  1.00  0.00    -0.104 SA
HETATM   31  C   UNL     1     -42.234  56.902 -59.943  1.00  0.00     0.050 A 
HETATM   32  C   UNL     1     -42.807  55.707 -59.571  1.00  0.00     0.008 A 
HETATM   33  C   UNL     1     -43.317  55.751 -58.242  1.00  0.00     0.017 A 
ENDBRANCH   6  29
TORSDOF 6
ENDMDL
MODEL 4
REMARK VINA RESULT:      -8.3      1.868      2.486
REMARK  6 active torsions:
REMARK  status: ('A' for Active; 'I' for Inactive)
REMARK    1  A    between atoms: C_2  and  O_3 
REMARK    2  A    between atoms: C_2  and  C_4 
REMARK    3  A    between atoms: C_6  and  N_7 
REMARK       I    between atoms: N_7  and  C_8 
REMARK    4  A    between atoms: C_8  and  C_9 
REMARK    5  A    between atoms: C_12  and  C_13 
REMARK    6  A    between atoms: C_18  and  C_19 
ROOT
HETATM    1  C   UNL     1     -41.917  56.195 -52.189  1.00  0.00     0.096 C 
HETATM    2  C   UNL     1     -41.231  55.047 -51.836  1.00  0.00     0.138 C 
HETATM    3  N   UNL     1     -40.771  55.264 -50.556  1.00  0.00    -0.240 N 
HETATM    4  C   UNL     1     -39.963  54.323 -49.800  1.00  0.00     0.221 C 
HETATM    5  C   UNL     1     -39.984  52.933 -50.461  1.00  0.00     0.067 C 
HETATM    6  C   UNL     1     -39.847  53.056 -51.985  1.00  0.00     0.125 C 
HETATM    7  N   UNL     1     -40.956  53.884 -52.492  1.00  0.00    -0.365 N 
HETATM    8  N   UNL     1     -40.952  56.522 -50.133  1.00  0.00    -0.181 NA
HETATM    9  C   UNL     1     -41.678  57.077 -51.108  1.00  0.00     0.160 C 
HETATM   10  H   UNL     1     -40.943  53.912 -53.515  1.00  0.00     0.162 HD
ENDROOT
BRANCH   1  11
HETATM   11  C   UNL     1     -42.677  56.494 -53.392  1.00  0.00     0.261 C 
HETATM   12  N   UNL     1     -41.912  56.484 -54.543  1.00  0.00    -0.323 N 
HETATM   13  H   UNL     1     -40.952  56.178 -54.423  1.00  0.00     0.169 HD
HETATM   14  O   UNL     1     -43.885  56.686 -53.329  1.00  0.00    -0.267 OA
BRANCH  12  15
HETATM   15  C   UNL     1     -42.336  56.731 -55.864  1.00  0.00     0.035 A 
HETATM   16  C   UNL     1     -42.367  58.000 -56.448  1.00  0.00     0.039 A 
HETATM   17  C   UNL     1     -42.813  58.182 -57.770  1.00  0.00    -0.028 A 
HETATM   18  C   UNL     1     -43.239  57.065 -58.499  1.00  0.00     0.010 A 
HETATM   19  C   UNL     1     -43.199  55.793 -57.931  1.00  0.00     0.003 A 
HETATM   20  C   UNL     1     -42.745  55.628 -56.621  1.00  0.00     0.029 A 
BRANCH  17  21
HETATM   21  C   UNL     1     -42.861  59.575 -58.362  1.00  0.00     0.147 C 
HETATM   22  C   UNL     1     -43.323  59.562 -59.812  1.00  0.00     0.044 C 
BRANCH  21  23
HETATM   23  O   UNL     1     -41.577  60.192 -58.292  1.00  0.00    -0.391 OA
HETATM   24  H   UNL     1     -41.101  59.934 -59.100  1.00  0.00     0.210 HD
ENDBRANCH  21  23
ENDBRANCH  17  21
ENDBRANCH  12  15
ENDBRANCH   1  11
BRANCH   4  25
HETATM   25  C   UNL     1     -40.434  54.209 -48.366  1.00  0.00     0.409 C 
HETATM   26  F   UNL     1     -39.430  54.121 -47.471  1.00  0.00    -0.169 F 
HETATM   27  F   UNL     1     -41.237  55.235 -48.007  1.00  0.00    -0.169 F 
HETATM   28  F   UNL     1     -41.169  53.073 -48.221  1.00  0.00    -0.169 F 
ENDBRANCH   4  25
BRANCH   6  29
HETATM   29  C   UNL     1     -39.812  51.687 -52.619  1.00  0.00     0.005 A 
HETATM   30  S   UNL     1     -40.173  51.502 -54.286  1.00  0.00    -0.104 SA
HETATM   31  C   UNL     1     -39.919  49.813 -54.221  1.00  0.00     0.050 A 
HETATM   32  C   UNL     1     -39.568  49.391 -52.958  1.00  0.00     0.008 A 
HETATM   33  C   UNL     1     -39.511  50.471 -52.032  1.00  0.00     0.017 A 
ENDBRANCH   6  29
TORSDOF 6
ENDMDL
MODEL 5
REMARK VINA RESULT:      -8.2      4.541      8.025
REMARK  6 active torsions:
REMARK  status: ('A' for Active; 'I' for Inactive)
REMARK    1  A    between atoms: C_2  and  O_3 
REMARK    2  A    between atoms: C_2  and  C_4 
REMARK    3  A    between atoms: C_6  and  N_7 
REMARK       I    between atoms: N_7  and  C_8 
REMARK    4  A    between atoms: C_8  and  C_9 
REMARK    5  A    between atoms: C_12  and  C_13 
REMARK    6  A    between atoms: C_18  and  C_19 
ROOT
HETATM    1  C   UNL     1     -42.351  55.979 -55.730  1.00  0.00     0.096 C 
HETATM    2  C   UNL     1     -42.371  57.281 -55.266  1.00  0.00     0.138 C 
HETATM    3  N   UNL     1     -42.652  58.066 -56.363  1.00  0.00    -0.240 N 
HETATM    4  C   UNL     1     -42.735  59.516 -56.340  1.00  0.00     0.221 C 
HETATM    5  C   UNL     1     -42.821  60.034 -54.892  1.00  0.00     0.067 C 
HETATM    6  C   UNL     1     -41.839  59.277 -53.988  1.00  0.00     0.125 C 
HETATM    7  N   UNL     1     -42.161  57.840 -54.041  1.00  0.00    -0.365 N 
HETATM    8  N   UNL     1     -42.633  57.389 -57.519  1.00  0.00    -0.181 NA
HETATM    9  C   UNL     1     -42.485  56.118 -57.132  1.00  0.00     0.160 C 
HETATM   10  H   UNL     1     -41.579  57.318 -53.380  1.00  0.00     0.162 HD
ENDROOT
BRANCH   1  11
HETATM   11  C   UNL     1     -42.185  54.732 -55.001  1.00  0.00     0.261 C 
HETATM   12  N   UNL     1     -41.038  54.694 -54.230  1.00  0.00    -0.323 N 
HETATM   13  H   UNL     1     -40.513  55.561 -54.191  1.00  0.00     0.169 HD
HETATM   14  O   UNL     1     -43.036  53.855 -55.073  1.00  0.00    -0.267 OA
BRANCH  12  15
HETATM   15  C   UNL     1     -40.584  53.642 -53.410  1.00  0.00     0.035 A 
HETATM   16  C   UNL     1     -40.128  52.415 -53.897  1.00  0.00     0.039 A 
HETATM   17  C   UNL     1     -39.698  51.399 -53.023  1.00  0.00    -0.028 A 
HETATM   18  C   UNL     1     -39.742  51.632 -51.643  1.00  0.00     0.010 A 
HETATM   19  C   UNL     1     -40.181  52.858 -51.147  1.00  0.00     0.003 A 
HETATM   20  C   UNL     1     -40.596  53.859 -52.027  1.00  0.00     0.029 A 
BRANCH  17  21
HETATM   21  C   UNL     1     -39.237  50.070 -53.584  1.00  0.00     0.147 C 
HETATM   22  C   UNL     1     -39.933  49.733 -54.895  1.00  0.00     0.044 C 
BRANCH  21  23
HETATM   23  O   UNL     1     -39.482  49.022 -52.649  1.00  0.00    -0.391 OA
HETATM   24  H   UNL     1     -40.101  48.406 -53.077  1.00  0.00     0.210 HD
ENDBRANCH  21  23
ENDBRANCH  17  21
ENDBRANCH  12  15
ENDBRANCH   1  11
BRANCH   4  25
HETATM   25  C   UNL     1     -43.924  60.020 -57.129  1.00  0.00     0.409 C 
HETATM   26  F   UNL     1     -44.360  61.234 -56.738  1.00  0.00    -0.169 F 
HETATM   27  F   UNL     1     -43.676  60.064 -58.457  1.00  0.00    -0.169 F 
HETATM   28  F   UNL     1     -44.973  59.170 -56.959  1.00  0.00    -0.169 F 
ENDBRANCH   4  25
BRANCH   6  29
HETATM   29  C   UNL     1     -41.890  59.829 -52.584  1.00  0.00     0.005 A 
HETATM   30  S   UNL     1     -43.034  61.041 -52.178  1.00  0.00    -0.104 SA
HETATM   31  C   UNL     1     -42.495  61.100 -50.557  1.00  0.00     0.050 A 
HETATM   32  C   UNL     1     -41.464  60.218 -50.323  1.00  0.00     0.008 A 
HETATM   33  C   UNL     1     -41.111  59.487 -51.493  1.00  0.00     0.017 A 
ENDBRANCH   6  29
TORSDOF 6
ENDMDL
MODEL 6
REMARK VINA RESULT:      -8.1      3.616      5.900
REMARK  6 active torsions:
REMARK  status: ('A' for Active; 'I' for Inactive)
REMARK    1  A    between atoms: C_2  and  O_3 
REMARK    2  A    between atoms: C_2  and  C_4 
REMARK    3  A    between atoms: C_6  and  N_7 
REMARK       I    between atoms: N_7  and  C_8 
REMARK    4  A    between atoms: C_8  and  C_9 
REMARK    5  A    between atoms: C_12  and  C_13 
REMARK    6  A    between atoms: C_18  and  C_19 
ROOT
HETATM    1  C   UNL     1     -42.785  56.433 -56.275  1.00  0.00     0.096 C 
HETATM    2  C   UNL     1     -42.400  56.420 -54.947  1.00  0.00     0.138 C 
HETATM    3  N   UNL     1     -42.200  55.096 -54.628  1.00  0.00    -0.240 N 
HETATM    4  C   UNL     1     -41.816  54.614 -53.312  1.00  0.00     0.221 C 
HETATM    5  C   UNL     1     -41.323  55.774 -52.429  1.00  0.00     0.067 C 
HETATM    6  C   UNL     1     -42.228  57.003 -52.595  1.00  0.00     0.125 C 
HETATM    7  N   UNL     1     -42.228  57.399 -54.015  1.00  0.00    -0.365 N 
HETATM    8  N   UNL     1     -42.601  54.251 -55.588  1.00  0.00    -0.181 NA
HETATM    9  C   UNL     1     -42.923  55.062 -56.600  1.00  0.00     0.160 C 
HETATM   10  H   UNL     1     -42.752  58.269 -54.144  1.00  0.00     0.162 HD
ENDROOT
BRANCH   1  11
HETATM   11  C   UNL     1     -43.048  57.557 -57.159  1.00  0.00     0.261 C 
HETATM   12  N   UNL     1     -41.932  57.983 -57.855  1.00  0.00    -0.323 N 
HETATM   13  H   UNL     1     -41.104  57.408 -57.740  1.00  0.00     0.169 HD
HETATM   14  O   UNL     1     -44.181  58.011 -57.263  1.00  0.00    -0.267 OA
BRANCH  12  15
HETATM   15  C   UNL     1     -41.844  59.039 -58.783  1.00  0.00     0.035 A 
HETATM   16  C   UNL     1     -41.448  60.337 -58.452  1.00  0.00     0.039 A 
HETATM   17  C   UNL     1     -41.392  61.352 -59.426  1.00  0.00    -0.028 A 
HETATM   18  C   UNL     1     -41.751  61.044 -60.744  1.00  0.00     0.010 A 
HETATM   19  C   UNL     1     -42.133  59.749 -61.088  1.00  0.00     0.003 A 
HETATM   20  C   UNL     1     -42.175  58.751 -60.112  1.00  0.00     0.029 A 
BRANCH  17  21
HETATM   21  C   UNL     1     -40.987  62.755 -59.026  1.00  0.00     0.147 C 
HETATM   22  C   UNL     1     -39.568  63.086 -59.467  1.00  0.00     0.044 C 
BRANCH  21  23
HETATM   23  O   UNL     1     -41.081  62.918 -57.612  1.00  0.00    -0.391 OA
HETATM   24  H   UNL     1     -40.271  62.535 -57.234  1.00  0.00     0.210 HD
ENDBRANCH  21  23
ENDBRANCH  17  21
ENDBRANCH  12  15
ENDBRANCH   1  11
BRANCH   4  25
HETATM   25  C   UNL     1     -40.742  53.551 -53.398  1.00  0.00     0.409 C 
HETATM   26  F   UNL     1     -41.223  52.304 -53.569  1.00  0.00    -0.169 F 
HETATM   27  F   UNL     1     -39.850  53.802 -54.383  1.00  0.00    -0.169 F 
HETATM   28  F   UNL     1     -40.036  53.526 -52.235  1.00  0.00    -0.169 F 
ENDBRANCH   4  25
BRANCH   6  29
HETATM   29  C   UNL     1     -41.770  58.116 -51.685  1.00  0.00     0.005 A 
HETATM   30  S   UNL     1     -42.760  59.497 -51.451  1.00  0.00    -0.104 SA
HETATM   31  C   UNL     1     -41.635  60.203 -50.376  1.00  0.00     0.050 A 
HETATM   32  C   UNL     1     -40.525  59.409 -50.194  1.00  0.00     0.008 A 
HETATM   33  C   UNL     1     -40.600  58.207 -50.953  1.00  0.00     0.017 A 
ENDBRANCH   6  29
TORSDOF 6
ENDMDL
MODEL 7
REMARK VINA RESULT:      -8.0      5.078      8.662
REMARK  6 active torsions:
REMARK  status: ('A' for Active; 'I' for Inactive)
REMARK    1  A    between atoms: C_2  and  O_3 
REMARK    2  A    between atoms: C_2  and  C_4 
REMARK    3  A    between atoms: C_6  and  N_7 
REMARK       I    between atoms: N_7  and  C_8 
REMARK    4  A    between atoms: C_8  and  C_9 
REMARK    5  A    between atoms: C_12  and  C_13 
REMARK    6  A    between atoms: C_18  and  C_19 
ROOT
HETATM    1  C   UNL     1     -43.160  55.801 -55.659  1.00  0.00     0.096 C 
HETATM    2  C   UNL     1     -43.811  57.021 -55.638  1.00  0.00     0.138 C 
HETATM    3  N   UNL     1     -43.943  57.398 -56.957  1.00  0.00    -0.240 N 
HETATM    4  C   UNL     1     -44.543  58.643 -57.403  1.00  0.00     0.221 C 
HETATM    5  C   UNL     1     -45.322  59.314 -56.256  1.00  0.00     0.067 C 
HETATM    6  C   UNL     1     -44.527  59.236 -54.945  1.00  0.00     0.125 C 
HETATM    7  N   UNL     1     -44.270  57.819 -54.633  1.00  0.00    -0.365 N 
HETATM    8  N   UNL     1     -43.269  56.608 -57.804  1.00  0.00    -0.181 NA
HETATM    9  C   UNL     1     -42.824  55.621 -57.021  1.00  0.00     0.160 C 
HETATM   10  H   UNL     1     -43.818  57.730 -53.719  1.00  0.00     0.162 HD
ENDROOT
BRANCH   1  11
HETATM   11  C   UNL     1     -42.831  54.902 -54.564  1.00  0.00     0.261 C 
HETATM   12  N   UNL     1     -41.506  54.506 -54.558  1.00  0.00    -0.323 N 
HETATM   13  H   UNL     1     -40.915  54.959 -55.247  1.00  0.00     0.169 HD
HETATM   14  O   UNL     1     -43.680  54.597 -53.736  1.00  0.00    -0.267 OA
BRANCH  12  15
HETATM   15  C   UNL     1     -40.867  53.646 -53.644  1.00  0.00     0.035 A 
HETATM   16  C   UNL     1     -40.388  52.375 -53.973  1.00  0.00     0.039 A 
HETATM   17  C   UNL     1     -39.768  51.558 -53.009  1.00  0.00    -0.028 A 
HETATM   18  C   UNL     1     -39.643  52.036 -51.698  1.00  0.00     0.010 A 
HETATM   19  C   UNL     1     -40.104  53.308 -51.363  1.00  0.00     0.003 A 
HETATM   20  C   UNL     1     -40.709  54.109 -52.333  1.00  0.00     0.029 A 
BRANCH  17  21
HETATM   21  C   UNL     1     -39.287  50.175 -53.392  1.00  0.00     0.147 C 
HETATM   22  C   UNL     1     -39.884  49.710 -54.713  1.00  0.00     0.044 C 
BRANCH  21  23
HETATM   23  O   UNL     1     -39.623  49.231 -52.377  1.00  0.00    -0.391 OA
HETATM   24  H   UNL     1     -39.657  48.360 -52.808  1.00  0.00     0.210 HD
ENDBRANCH  21  23
ENDBRANCH  17  21
ENDBRANCH  12  15
ENDBRANCH   1  11
BRANCH   4  25
HETATM   25  C   UNL     1     -45.466  58.427 -58.582  1.00  0.00     0.409 C 
HETATM   26  F   UNL     1     -46.106  57.241 -58.561  1.00  0.00    -0.169 F 
HETATM   27  F   UNL     1     -46.391  59.408 -58.696  1.00  0.00    -0.169 F 
HETATM   28  F   UNL     1     -44.741  58.444 -59.733  1.00  0.00    -0.169 F 
ENDBRANCH   4  25
BRANCH   6  29
HETATM   29  C   UNL     1     -45.272  59.945 -53.840  1.00  0.00     0.005 A 
HETATM   30  S   UNL     1     -45.986  61.477 -54.129  1.00  0.00    -0.104 SA
HETATM   31  C   UNL     1     -46.588  61.572 -52.533  1.00  0.00     0.050 A 
HETATM   32  C   UNL     1     -46.255  60.463 -51.788  1.00  0.00     0.008 A 
HETATM   33  C   UNL     1     -45.492  59.525 -52.540  1.00  0.00     0.017 A 
ENDBRANCH   6  29
TORSDOF 6
ENDMDL
MODEL 8
REMARK VINA RESULT:      -8.0      2.637      3.632
REMARK  6 active torsions:
REMARK  status: ('A' for Active; 'I' for Inactive)
REMARK    1  A    between atoms: C_2  and  O_3 
REMARK    2  A    between atoms: C_2  and  C_4 
REMARK    3  A    between atoms: C_6  and  N_7 
REMARK       I    between atoms: N_7  and  C_8 
REMARK    4  A    between atoms: C_8  and  C_9 
REMARK    5  A    between atoms: C_12  and  C_13 
REMARK    6  A    between atoms: C_18  and  C_19 
ROOT
HETATM    1  C   UNL     1     -42.292  58.453 -56.039  1.00  0.00     0.096 C 
HETATM    2  C   UNL     1     -41.803  57.633 -55.039  1.00  0.00     0.138 C 
HETATM    3  N   UNL     1     -41.662  58.438 -53.930  1.00  0.00    -0.240 N 
HETATM    4  C   UNL     1     -41.141  57.993 -52.649  1.00  0.00     0.221 C 
HETATM    5  C   UNL     1     -41.100  56.455 -52.582  1.00  0.00     0.067 C 
HETATM    6  C   UNL     1     -40.580  55.869 -53.902  1.00  0.00     0.125 C 
HETATM    7  N   UNL     1     -41.462  56.314 -54.995  1.00  0.00    -0.365 N 
HETATM    8  N   UNL     1     -41.849  59.739 -54.191  1.00  0.00    -0.181 NA
HETATM    9  C   UNL     1     -42.265  59.744 -55.461  1.00  0.00     0.160 C 
HETATM   10  H   UNL     1     -41.193  55.868 -55.876  1.00  0.00     0.162 HD
ENDROOT
BRANCH   1  11
HETATM   11  C   UNL     1     -42.705  58.126 -57.395  1.00  0.00     0.261 C 
HETATM   12  N   UNL     1     -43.803  57.289 -57.449  1.00  0.00    -0.323 N 
HETATM   13  H   UNL     1     -44.240  57.088 -56.555  1.00  0.00     0.169 HD
HETATM   14  O   UNL     1     -42.119  58.611 -58.354  1.00  0.00    -0.267 OA
BRANCH  12  15
HETATM   15  C   UNL     1     -44.450  56.785 -58.595  1.00  0.00     0.035 A 
HETATM   16  C   UNL     1     -45.548  57.397 -59.203  1.00  0.00     0.039 A 
HETATM   17  C   UNL     1     -46.157  56.836 -60.340  1.00  0.00    -0.028 A 
HETATM   18  C   UNL     1     -45.649  55.637 -60.857  1.00  0.00     0.010 A 
HETATM   19  C   UNL     1     -44.545  55.026 -60.266  1.00  0.00     0.003 A 
HETATM   20  C   UNL     1     -43.946  55.600 -59.143  1.00  0.00     0.029 A 
BRANCH  17  21
HETATM   21  C   UNL     1     -47.365  57.510 -60.957  1.00  0.00     0.147 C 
HETATM   22  C   UNL     1     -48.107  56.587 -61.912  1.00  0.00     0.044 C 
BRANCH  21  23
HETATM   23  O   UNL     1     -46.973  58.686 -61.663  1.00  0.00    -0.391 OA
HETATM   24  H   UNL     1     -46.930  59.403 -61.007  1.00  0.00     0.210 HD
ENDBRANCH  21  23
ENDBRANCH  17  21
ENDBRANCH  12  15
ENDBRANCH   1  11
BRANCH   4  25
HETATM   25  C   UNL     1     -41.961  58.528 -51.496  1.00  0.00     0.409 C 
HETATM   26  F   UNL     1     -41.666  59.801 -51.164  1.00  0.00    -0.169 F 
HETATM   27  F   UNL     1     -43.290  58.446 -51.730  1.00  0.00    -0.169 F 
HETATM   28  F   UNL     1     -41.718  57.783 -50.383  1.00  0.00    -0.169 F 
ENDBRANCH   4  25
BRANCH   6  29
HETATM   29  C   UNL     1     -40.491  54.366 -53.807  1.00  0.00     0.005 A 
HETATM   30  S   UNL     1     -40.614  53.592 -52.281  1.00  0.00    -0.104 SA
HETATM   31  C   UNL     1     -40.445  52.041 -52.980  1.00  0.00     0.050 A 
HETATM   32  C   UNL     1     -40.297  52.104 -54.347  1.00  0.00     0.008 A 
HETATM   33  C   UNL     1     -40.318  53.445 -54.825  1.00  0.00     0.017 A 
ENDBRANCH   6  29
TORSDOF 6
ENDMDL
MODEL 9
REMARK VINA RESULT:      -7.9      4.550      7.978
REMARK  6 active torsions:
REMARK  status: ('A' for Active; 'I' for Inactive)
REMARK    1  A    between atoms: C_2  and  O_3 
REMARK    2  A    between atoms: C_2  and  C_4 
REMARK    3  A    between atoms: C_6  and  N_7 
REMARK       I    between atoms: N_7  and  C_8 
REMARK    4  A    between atoms: C_8  and  C_9 
REMARK    5  A    between atoms: C_12  and  C_13 
REMARK    6  A    between atoms: C_18  and  C_19 
ROOT
HETATM    1  C   UNL     1     -42.426  57.835 -51.613  1.00  0.00     0.096 C 
HETATM    2  C   UNL     1     -42.229  57.076 -52.752  1.00  0.00     0.138 C 
HETATM    3  N   UNL     1     -41.508  55.974 -52.349  1.00  0.00    -0.240 N 
HETATM    4  C   UNL     1     -41.047  54.921 -53.236  1.00  0.00     0.221 C 
HETATM    5  C   UNL     1     -41.758  55.006 -54.599  1.00  0.00     0.067 C 
HETATM    6  C   UNL     1     -41.848  56.464 -55.072  1.00  0.00     0.125 C 
HETATM    7  N   UNL     1     -42.581  57.243 -54.058  1.00  0.00    -0.365 N 
HETATM    8  N   UNL     1     -41.073  56.058 -51.084  1.00  0.00    -0.181 NA
HETATM    9  C   UNL     1     -41.659  57.169 -50.627  1.00  0.00     0.160 C 
HETATM   10  H   UNL     1     -42.735  58.201 -54.385  1.00  0.00     0.162 HD
ENDROOT
BRANCH   1  11
HETATM   11  C   UNL     1     -43.188  59.059 -51.428  1.00  0.00     0.261 C 
HETATM   12  N   UNL     1     -42.757  59.820 -50.358  1.00  0.00    -0.323 N 
HETATM   13  H   UNL     1     -41.915  59.486 -49.900  1.00  0.00     0.169 HD
HETATM   14  O   UNL     1     -44.088  59.352 -52.206  1.00  0.00    -0.267 OA
BRANCH  12  15
HETATM   15  C   UNL     1     -43.275  61.051 -49.908  1.00  0.00     0.035 A 
HETATM   16  C   UNL     1     -44.247  61.170 -48.912  1.00  0.00     0.039 A 
HETATM   17  C   UNL     1     -44.733  62.430 -48.517  1.00  0.00    -0.028 A 
HETATM   18  C   UNL     1     -44.231  63.577 -49.147  1.00  0.00     0.010 A 
HETATM   19  C   UNL     1     -43.250  63.469 -50.131  1.00  0.00     0.003 A 
HETATM   20  C   UNL     1     -42.773  62.212 -50.506  1.00  0.00     0.029 A 
BRANCH  17  21
HETATM   21  C   UNL     1     -45.808  62.522 -47.454  1.00  0.00     0.147 C 
HETATM   22  C   UNL     1     -45.353  61.925 -46.130  1.00  0.00     0.044 C 
BRANCH  21  23
HETATM   23  O   UNL     1     -46.990  61.849 -47.882  1.00  0.00    -0.391 OA
HETATM   24  H   UNL     1     -46.988  61.874 -48.854  1.00  0.00     0.210 HD
ENDBRANCH  21  23
ENDBRANCH  17  21
ENDBRANCH  12  15
ENDBRANCH   1  11
BRANCH   4  25
HETATM   25  C   UNL     1     -41.266  53.549 -52.636  1.00  0.00     0.409 C 
HETATM   26  F   UNL     1     -40.244  53.122 -51.869  1.00  0.00    -0.169 F 
HETATM   27  F   UNL     1     -42.403  53.485 -51.906  1.00  0.00    -0.169 F 
HETATM   28  F   UNL     1     -41.397  52.634 -53.634  1.00  0.00    -0.169 F 
ENDBRANCH   4  25
BRANCH   6  29
HETATM   29  C   UNL     1     -42.496  56.532 -56.433  1.00  0.00     0.005 A 
HETATM   30  S   UNL     1     -42.799  58.054 -57.165  1.00  0.00    -0.104 SA
HETATM   31  C   UNL     1     -43.470  57.325 -58.557  1.00  0.00     0.050 A 
HETATM   32  C   UNL     1     -43.467  55.951 -58.473  1.00  0.00     0.008 A 
HETATM   33  C   UNL     1     -42.910  55.492 -57.246  1.00  0.00     0.017 A 
ENDBRANCH   6  29
TORSDOF 6
ENDMDL
MODEL 10
REMARK VINA RESULT:      -7.9      2.789      4.875
REMARK  6 active torsions:
REMARK  status: ('A' for Active; 'I' for Inactive)
REMARK    1  A    between atoms: C_2  and  O_3 
REMARK    2  A    between atoms: C_2  and  C_4 
REMARK    3  A    between atoms: C_6  and  N_7 
REMARK       I    between atoms: N_7  and  C_8 
REMARK    4  A    between atoms: C_8  and  C_9 
REMARK    5  A    between atoms: C_12  and  C_13 
REMARK    6  A    between atoms: C_18  and  C_19 
ROOT
HETATM    1  C   UNL     1     -42.227  54.959 -54.888  1.00  0.00     0.096 C 
HETATM    2  C   UNL     1     -41.983  55.427 -53.610  1.00  0.00     0.138 C 
HETATM    3  N   UNL     1     -41.706  54.313 -52.849  1.00  0.00    -0.240 N 
HETATM    4  C   UNL     1     -41.423  54.338 -51.424  1.00  0.00     0.221 C 
HETATM    5  C   UNL     1     -41.125  55.773 -50.952  1.00  0.00     0.067 C 
HETATM    6  C   UNL     1     -42.108  56.766 -51.587  1.00  0.00     0.125 C 
HETATM    7  N   UNL     1     -41.993  56.671 -53.053  1.00  0.00    -0.365 N 
HETATM    8  N   UNL     1     -41.931  53.160 -53.493  1.00  0.00    -0.181 NA
HETATM    9  C   UNL     1     -42.213  53.551 -54.740  1.00  0.00     0.160 C 
HETATM   10  H   UNL     1     -42.573  57.384 -53.505  1.00  0.00     0.162 HD
ENDROOT
BRANCH   1  11
HETATM   11  C   UNL     1     -42.490  55.692 -56.115  1.00  0.00     0.261 C 
HETATM   12  N   UNL     1     -43.221  54.971 -57.041  1.00  0.00    -0.323 N 
HETATM   13  H   UNL     1     -43.563  54.072 -56.718  1.00  0.00     0.169 HD
HETATM   14  O   UNL     1     -42.108  56.849 -56.239  1.00  0.00    -0.267 OA
BRANCH  12  15
HETATM   15  C   UNL     1     -43.642  55.385 -58.321  1.00  0.00     0.035 A 
HETATM   16  C   UNL     1     -43.491  56.685 -58.808  1.00  0.00     0.039 A 
HETATM   17  C   UNL     1     -43.944  57.038 -60.093  1.00  0.00    -0.028 A 
HETATM   18  C   UNL     1     -44.564  56.061 -60.883  1.00  0.00     0.010 A 
HETATM   19  C   UNL     1     -44.706  54.758 -60.411  1.00  0.00     0.003 A 
HETATM   20  C   UNL     1     -44.243  54.421 -59.138  1.00  0.00     0.029 A 
BRANCH  17  21
HETATM   21  C   UNL     1     -43.791  58.464 -60.579  1.00  0.00     0.147 C 
HETATM   22  C   UNL     1     -43.217  59.374 -59.502  1.00  0.00     0.044 C 
BRANCH  21  23
HETATM   23  O   UNL     1     -45.050  58.986 -61.000  1.00  0.00    -0.391 OA
HETATM   24  H   UNL     1     -45.729  58.370 -60.675  1.00  0.00     0.210 HD
ENDBRANCH  21  23
ENDBRANCH  17  21
ENDBRANCH  12  15
ENDBRANCH   1  11
BRANCH   4  25
HETATM   25  C   UNL     1     -40.259  53.437 -51.070  1.00  0.00     0.409 C 
HETATM   26  F   UNL     1     -40.626  52.282 -50.482  1.00  0.00    -0.169 F 
HETATM   27  F   UNL     1     -39.493  53.144 -52.145  1.00  0.00    -0.169 F 
HETATM   28  F   UNL     1     -39.450  54.073 -50.180  1.00  0.00    -0.169 F 
ENDBRANCH   4  25
BRANCH   6  29
HETATM   29  C   UNL     1     -41.845  58.161 -51.076  1.00  0.00     0.005 A 
HETATM   30  S   UNL     1     -43.031  59.386 -51.267  1.00  0.00    -0.104 SA
HETATM   31  C   UNL     1     -42.053  60.548 -50.484  1.00  0.00     0.050 A 
HETATM   32  C   UNL     1     -40.846  60.022 -50.083  1.00  0.00     0.008 A 
HETATM   33  C   UNL     1     -40.723  58.646 -50.428  1.00  0.00     0.017 A 
ENDBRANCH   6  29
TORSDOF 6
ENDMDL
