MODEL 1
REMARK VINA RESULT:      -7.7      0.000      0.000
REMARK  6 active torsions:
REMARK  status: ('A' for Active; 'I' for Inactive)
REMARK    1  A    between atoms: C_3  and  N_4 
REMARK       I    between atoms: N_4  and  C_5 
REMARK       I    between atoms: C_5  and  N_6 
REMARK    2  A    between atoms: N_6  and  C_7 
REMARK    3  A    between atoms: C_7  and  C_8 
REMARK    4  A    between atoms: C_10  and  C_11 
REMARK       I    between atoms: C_11  and  N_12 
REMARK    5  A    between atoms: N_12  and  C_13 
REMARK    6  A    between atoms: C_13  and  C_14 
ROOT
HETATM    1  C   UNL     1     -40.380  53.114 -53.393  1.00  0.00    -0.040 A 
HETATM    2  C   UNL     1     -40.767  54.264 -52.686  1.00  0.00     0.026 A 
HETATM    3  C   UNL     1     -40.688  54.306 -51.289  1.00  0.00     0.032 A 
HETATM    4  C   UNL     1     -40.259  53.176 -50.588  1.00  0.00     0.017 A 
HETATM    5  C   UNL     1     -39.873  52.027 -51.282  1.00  0.00     0.002 A 
HETATM    6  C   UNL     1     -39.922  52.000 -52.677  1.00  0.00     0.009 A 
ENDROOT
BRANCH   1   7
HETATM    7  C   UNL     1     -40.428  53.110 -54.900  1.00  0.00     0.162 C 
BRANCH   7   8
HETATM    8  N   UNL     1     -40.734  54.417 -55.447  1.00  0.00    -0.339 N 
HETATM    9  C   UNL     1     -42.026  54.736 -55.827  1.00  0.00     0.321 C 
HETATM   10  N   UNL     1     -42.057  55.997 -56.374  1.00  0.00    -0.307 N 
HETATM   11  O   UNL     1     -42.974  53.987 -55.648  1.00  0.00    -0.247 OA
HETATM   12  H   UNL     1     -41.314  56.584 -56.019  1.00  0.00     0.170 HD
HETATM   13  H   UNL     1     -40.019  54.822 -56.032  1.00  0.00     0.164 HD
BRANCH  10  14
HETATM   14  C   UNL     1     -43.143  56.681 -56.971  1.00  0.00     0.059 A 
HETATM   15  C   UNL     1     -43.544  56.638 -58.315  1.00  0.00    -0.032 A 
HETATM   16  C   UNL     1     -42.850  55.877 -59.407  1.00  0.00     0.050 C 
HETATM   17  C   UNL     1     -44.682  57.379 -58.693  1.00  0.00     0.028 A 
HETATM   18  C   UNL     1     -45.334  58.168 -57.761  1.00  0.00     0.117 A 
HETATM   19  N   UNL     1     -44.943  58.277 -56.480  1.00  0.00    -0.271 NA
HETATM   20  C   UNL     1     -43.868  57.535 -56.127  1.00  0.00     0.146 A 
ENDBRANCH  10  14
ENDBRANCH   7   8
ENDBRANCH   1   7
BRANCH   3  21
HETATM   21  C   UNL     1     -41.064  55.527 -50.525  1.00  0.00     0.252 C 
HETATM   22  N   UNL     1     -41.008  56.716 -51.211  1.00  0.00    -0.351 N 
HETATM   23  H   UNL     1     -40.700  56.754 -52.176  1.00  0.00     0.163 HD
HETATM   24  O   UNL     1     -41.384  55.444 -49.344  1.00  0.00    -0.268 OA
BRANCH  22  25
HETATM   25  C   UNL     1     -41.448  57.951 -50.610  1.00  0.00     0.187 C 
BRANCH  25  26
HETATM   26  C   UNL     1     -42.655  58.443 -51.320  1.00  0.00     0.070 A 
HETATM   27  O   UNL     1     -42.821  59.798 -51.402  1.00  0.00    -0.325 OA
HETATM   28  C   UNL     1     -43.980  60.018 -52.072  1.00  0.00     0.142 A 
HETATM   29  C   UNL     1     -44.560  58.826 -52.438  1.00  0.00     0.027 A 
HETATM   30  C   UNL     1     -43.704  57.807 -51.953  1.00  0.00     0.036 A 
ENDBRANCH  25  26
ENDBRANCH  22  25
ENDBRANCH   3  21
TORSDOF 6
ENDMDL
MODEL 2
REMARK VINA RESULT:      -7.6      1.115      1.726
REMARK  6 active torsions:
REMARK  status: ('A' for Active; 'I' for Inactive)
REMARK    1  A    between atoms: C_3  and  N_4 
REMARK       I    between atoms: N_4  and  C_5 
REMARK       I    between atoms: C_5  and  N_6 
REMARK    2  A    between atoms: N_6  and  C_7 
REMARK    3  A    between atoms: C_7  and  C_8 
REMARK    4  A    between atoms: C_10  and  C_11 
REMARK       I    between atoms: C_11  and  N_12 
REMARK    5  A    between atoms: N_12  and  C_13 
REMARK    6  A    between atoms: C_13  and  C_14 
ROOT
HETATM    1  C   UNL     1     -40.413  53.227 -53.438  1.00  0.00    -0.040 A 
HETATM    2  C   UNL     1     -40.780  54.374 -52.716  1.00  0.00     0.026 A 
HETATM    3  C   UNL     1     -40.704  54.397 -51.319  1.00  0.00     0.032 A 
HETATM    4  C   UNL     1     -40.299  53.249 -50.632  1.00  0.00     0.017 A 
HETATM    5  C   UNL     1     -39.933  52.102 -51.340  1.00  0.00     0.002 A 
HETATM    6  C   UNL     1     -39.978  52.095 -52.736  1.00  0.00     0.009 A 
ENDROOT
BRANCH   1   7
HETATM    7  C   UNL     1     -40.457  53.244 -54.945  1.00  0.00     0.162 C 
BRANCH   7   8
HETATM    8  N   UNL     1     -40.772  54.556 -55.474  1.00  0.00    -0.339 N 
HETATM    9  C   UNL     1     -42.067  54.869 -55.853  1.00  0.00     0.321 C 
HETATM   10  N   UNL     1     -42.107  56.138 -56.382  1.00  0.00    -0.307 N 
HETATM   11  O   UNL     1     -43.009  54.109 -55.688  1.00  0.00    -0.247 OA
HETATM   12  H   UNL     1     -41.371  56.725 -56.017  1.00  0.00     0.170 HD
HETATM   13  H   UNL     1     -40.060  54.976 -56.051  1.00  0.00     0.164 HD
BRANCH  10  14
HETATM   14  C   UNL     1     -43.198  56.820 -56.973  1.00  0.00     0.059 A 
HETATM   15  C   UNL     1     -44.207  57.543 -56.321  1.00  0.00    -0.032 A 
HETATM   16  C   UNL     1     -44.349  57.692 -54.834  1.00  0.00     0.050 C 
HETATM   17  C   UNL     1     -45.189  58.175 -57.111  1.00  0.00     0.028 A 
HETATM   18  C   UNL     1     -45.173  58.022 -58.487  1.00  0.00     0.117 A 
HETATM   19  N   UNL     1     -44.254  57.290 -59.139  1.00  0.00    -0.271 NA
HETATM   20  C   UNL     1     -43.301  56.716 -58.369  1.00  0.00     0.146 A 
ENDBRANCH  10  14
ENDBRANCH   7   8
ENDBRANCH   1   7
BRANCH   3  21
HETATM   21  C   UNL     1     -41.060  55.613 -50.539  1.00  0.00     0.252 C 
HETATM   22  N   UNL     1     -40.949  56.813 -51.200  1.00  0.00    -0.351 N 
HETATM   23  H   UNL     1     -40.616  56.860 -52.156  1.00  0.00     0.163 HD
HETATM   24  O   UNL     1     -41.412  55.518 -49.368  1.00  0.00    -0.268 OA
BRANCH  22  25
HETATM   25  C   UNL     1     -41.364  58.050 -50.584  1.00  0.00     0.187 C 
BRANCH  25  26
HETATM   26  C   UNL     1     -41.736  59.026 -51.639  1.00  0.00     0.070 A 
HETATM   27  O   UNL     1     -41.244  58.804 -52.895  1.00  0.00    -0.325 OA
HETATM   28  C   UNL     1     -41.693  59.812 -53.684  1.00  0.00     0.142 A 
HETATM   29  C   UNL     1     -42.482  60.675 -52.960  1.00  0.00     0.027 A 
HETATM   30  C   UNL     1     -42.511  60.168 -51.639  1.00  0.00     0.036 A 
ENDBRANCH  25  26
ENDBRANCH  22  25
ENDBRANCH   3  21
TORSDOF 6
ENDMDL
MODEL 3
REMARK VINA RESULT:      -7.5      3.895      8.516
REMARK  6 active torsions:
REMARK  status: ('A' for Active; 'I' for Inactive)
REMARK    1  A    between atoms: C_3  and  N_4 
REMARK       I    between atoms: N_4  and  C_5 
REMARK       I    between atoms: C_5  and  N_6 
REMARK    2  A    between atoms: N_6  and  C_7 
REMARK    3  A    between atoms: C_7  and  C_8 
REMARK    4  A    between atoms: C_10  and  C_11 
REMARK       I    between atoms: C_11  and  N_12 
REMARK    5  A    between atoms: N_12  and  C_13 
REMARK    6  A    between atoms: C_13  and  C_14 
ROOT
HETATM    1  C   UNL     1     -43.865  56.954 -51.874  1.00  0.00    -0.040 A 
HETATM    2  C   UNL     1     -43.198  56.271 -52.903  1.00  0.00     0.026 A 
HETATM    3  C   UNL     1     -42.928  54.901 -52.796  1.00  0.00     0.032 A 
HETATM    4  C   UNL     1     -43.290  54.216 -51.633  1.00  0.00     0.017 A 
HETATM    5  C   UNL     1     -43.954  54.887 -50.604  1.00  0.00     0.002 A 
HETATM    6  C   UNL     1     -44.251  56.245 -50.729  1.00  0.00     0.009 A 
ENDROOT
BRANCH   1   7
HETATM    7  C   UNL     1     -44.188  58.418 -52.034  1.00  0.00     0.162 C 
BRANCH   7   8
HETATM    8  N   UNL     1     -43.988  59.165 -50.808  1.00  0.00    -0.339 N 
HETATM    9  C   UNL     1     -45.057  59.770 -50.170  1.00  0.00     0.321 C 
HETATM   10  N   UNL     1     -44.614  60.470 -49.072  1.00  0.00    -0.307 N 
HETATM   11  O   UNL     1     -46.212  59.642 -50.545  1.00  0.00    -0.247 OA
HETATM   12  H   UNL     1     -43.758  60.086 -48.696  1.00  0.00     0.170 HD
HETATM   13  H   UNL     1     -43.124  59.683 -50.750  1.00  0.00     0.164 HD
BRANCH  10  14
HETATM   14  C   UNL     1     -45.347  61.304 -48.195  1.00  0.00     0.059 A 
HETATM   15  C   UNL     1     -45.290  62.703 -48.099  1.00  0.00    -0.032 A 
HETATM   16  C   UNL     1     -44.384  63.594 -48.896  1.00  0.00     0.050 C 
HETATM   17  C   UNL     1     -46.137  63.340 -47.168  1.00  0.00     0.028 A 
HETATM   18  C   UNL     1     -46.949  62.584 -46.341  1.00  0.00     0.117 A 
HETATM   19  N   UNL     1     -46.986  61.241 -46.367  1.00  0.00    -0.271 NA
HETATM   20  C   UNL     1     -46.191  60.646 -47.287  1.00  0.00     0.146 A 
ENDBRANCH  10  14
ENDBRANCH   7   8
ENDBRANCH   1   7
BRANCH   3  21
HETATM   21  C   UNL     1     -42.248  54.154 -53.889  1.00  0.00     0.252 C 
HETATM   22  N   UNL     1     -41.032  53.595 -53.578  1.00  0.00    -0.351 N 
HETATM   23  H   UNL     1     -40.616  53.713 -52.662  1.00  0.00     0.163 HD
HETATM   24  O   UNL     1     -42.763  54.076 -54.999  1.00  0.00    -0.268 OA
BRANCH  22  25
HETATM   25  C   UNL     1     -40.327  52.761 -54.521  1.00  0.00     0.187 C 
BRANCH  25  26
HETATM   26  C   UNL     1     -39.993  51.464 -53.880  1.00  0.00     0.070 A 
HETATM   27  O   UNL     1     -39.780  51.473 -52.530  1.00  0.00    -0.325 OA
HETATM   28  C   UNL     1     -39.481  50.201 -52.164  1.00  0.00     0.142 A 
HETATM   29  C   UNL     1     -39.512  49.366 -53.256  1.00  0.00     0.027 A 
HETATM   30  C   UNL     1     -39.844  50.181 -54.366  1.00  0.00     0.036 A 
ENDBRANCH  25  26
ENDBRANCH  22  25
ENDBRANCH   3  21
TORSDOF 6
ENDMDL
MODEL 4
REMARK VINA RESULT:      -7.4      3.372      6.839
REMARK  6 active torsions:
REMARK  status: ('A' for Active; 'I' for Inactive)
REMARK    1  A    between atoms: C_3  and  N_4 
REMARK       I    between atoms: N_4  and  C_5 
REMARK       I    between atoms: C_5  and  N_6 
REMARK    2  A    between atoms: N_6  and  C_7 
REMARK    3  A    between atoms: C_7  and  C_8 
REMARK    4  A    between atoms: C_10  and  C_11 
REMARK       I    between atoms: C_11  and  N_12 
REMARK    5  A    between atoms: N_12  and  C_13 
REMARK    6  A    between atoms: C_13  and  C_14 
ROOT
HETATM    1  C   UNL     1     -41.863  57.684 -52.045  1.00  0.00    -0.040 A 
HETATM    2  C   UNL     1     -42.817  58.627 -51.634  1.00  0.00     0.026 A 
HETATM    3  C   UNL     1     -42.455  59.699 -50.810  1.00  0.00     0.032 A 
HETATM    4  C   UNL     1     -41.137  59.807 -50.357  1.00  0.00     0.017 A 
HETATM    5  C   UNL     1     -40.181  58.873 -50.761  1.00  0.00     0.002 A 
HETATM    6  C   UNL     1     -40.538  57.824 -51.610  1.00  0.00     0.009 A 
ENDROOT
BRANCH   1   7
HETATM    7  C   UNL     1     -42.266  56.565 -52.973  1.00  0.00     0.162 C 
BRANCH   7   8
HETATM    8  N   UNL     1     -41.258  55.528 -53.059  1.00  0.00    -0.339 N 
HETATM    9  C   UNL     1     -41.488  54.276 -52.516  1.00  0.00     0.321 C 
HETATM   10  N   UNL     1     -40.371  53.487 -52.662  1.00  0.00    -0.307 N 
HETATM   11  O   UNL     1     -42.558  53.953 -52.023  1.00  0.00    -0.247 OA
HETATM   12  H   UNL     1     -39.811  53.765 -53.457  1.00  0.00     0.170 HD
HETATM   13  H   UNL     1     -40.303  55.842 -52.983  1.00  0.00     0.164 HD
BRANCH  10  14
HETATM   14  C   UNL     1     -40.136  52.179 -52.176  1.00  0.00     0.059 A 
HETATM   15  C   UNL     1     -39.832  51.032 -52.924  1.00  0.00    -0.032 A 
HETATM   16  C   UNL     1     -39.743  50.966 -54.420  1.00  0.00     0.050 C 
HETATM   17  C   UNL     1     -39.605  49.826 -52.229  1.00  0.00     0.028 A 
HETATM   18  C   UNL     1     -39.743  49.785 -50.852  1.00  0.00     0.117 A 
HETATM   19  N   UNL     1     -40.089  50.851 -50.111  1.00  0.00    -0.271 NA
HETATM   20  C   UNL     1     -40.273  52.007 -50.790  1.00  0.00     0.146 A 
ENDBRANCH  10  14
ENDBRANCH   7   8
ENDBRANCH   1   7
BRANCH   3  21
HETATM   21  C   UNL     1     -43.447  60.726 -50.388  1.00  0.00     0.252 C 
HETATM   22  N   UNL     1     -44.659  60.254 -49.945  1.00  0.00    -0.351 N 
HETATM   23  H   UNL     1     -44.868  59.263 -49.934  1.00  0.00     0.163 HD
HETATM   24  O   UNL     1     -43.174  61.919 -50.462  1.00  0.00    -0.268 OA
BRANCH  22  25
HETATM   25  C   UNL     1     -45.662  61.145 -49.413  1.00  0.00     0.187 C 
BRANCH  25  26
HETATM   26  C   UNL     1     -45.590  61.140 -47.929  1.00  0.00     0.070 A 
HETATM   27  O   UNL     1     -46.112  60.054 -47.284  1.00  0.00    -0.325 OA
HETATM   28  C   UNL     1     -45.952  60.265 -45.953  1.00  0.00     0.142 A 
HETATM   29  C   UNL     1     -45.320  61.466 -45.729  1.00  0.00     0.027 A 
HETATM   30  C   UNL     1     -45.084  62.032 -47.005  1.00  0.00     0.036 A 
ENDBRANCH  25  26
ENDBRANCH  22  25
ENDBRANCH   3  21
TORSDOF 6
ENDMDL
MODEL 5
REMARK VINA RESULT:      -7.4      2.319      5.321
REMARK  6 active torsions:
REMARK  status: ('A' for Active; 'I' for Inactive)
REMARK    1  A    between atoms: C_3  and  N_4 
REMARK       I    between atoms: N_4  and  C_5 
REMARK       I    between atoms: C_5  and  N_6 
REMARK    2  A    between atoms: N_6  and  C_7 
REMARK    3  A    between atoms: C_7  and  C_8 
REMARK    4  A    between atoms: C_10  and  C_11 
REMARK       I    between atoms: C_11  and  N_12 
REMARK    5  A    between atoms: N_12  and  C_13 
REMARK    6  A    between atoms: C_13  and  C_14 
ROOT
HETATM    1  C   UNL     1     -42.488  57.734 -53.069  1.00  0.00    -0.040 A 
HETATM    2  C   UNL     1     -41.567  56.788 -52.591  1.00  0.00     0.026 A 
HETATM    3  C   UNL     1     -41.900  55.934 -51.533  1.00  0.00     0.032 A 
HETATM    4  C   UNL     1     -43.149  56.055 -50.916  1.00  0.00     0.017 A 
HETATM    5  C   UNL     1     -44.071  56.994 -51.384  1.00  0.00     0.002 A 
HETATM    6  C   UNL     1     -43.747  57.820 -52.461  1.00  0.00     0.009 A 
ENDROOT
BRANCH   1   7
HETATM    7  C   UNL     1     -42.123  58.608 -54.242  1.00  0.00     0.162 C 
BRANCH   7   8
HETATM    8  N   UNL     1     -41.894  57.843 -55.451  1.00  0.00    -0.339 N 
HETATM    9  C   UNL     1     -42.906  57.678 -56.381  1.00  0.00     0.321 C 
HETATM   10  N   UNL     1     -42.476  56.866 -57.405  1.00  0.00    -0.307 N 
HETATM   11  O   UNL     1     -43.994  58.225 -56.283  1.00  0.00    -0.247 OA
HETATM   12  H   UNL     1     -41.474  56.907 -57.527  1.00  0.00     0.170 HD
HETATM   13  H   UNL     1     -41.290  57.042 -55.352  1.00  0.00     0.164 HD
BRANCH  10  14
HETATM   14  C   UNL     1     -43.206  56.366 -58.509  1.00  0.00     0.059 A 
HETATM   15  C   UNL     1     -43.591  57.062 -59.664  1.00  0.00    -0.032 A 
HETATM   16  C   UNL     1     -43.336  58.516 -59.931  1.00  0.00     0.050 C 
HETATM   17  C   UNL     1     -44.294  56.356 -60.663  1.00  0.00     0.028 A 
HETATM   18  C   UNL     1     -44.636  55.029 -60.461  1.00  0.00     0.117 A 
HETATM   19  N   UNL     1     -44.332  54.349 -59.343  1.00  0.00    -0.271 NA
HETATM   20  C   UNL     1     -43.631  55.032 -58.408  1.00  0.00     0.146 A 
ENDBRANCH  10  14
ENDBRANCH   7   8
ENDBRANCH   1   7
BRANCH   3  21
HETATM   21  C   UNL     1     -40.948  54.906 -51.033  1.00  0.00     0.252 C 
HETATM   22  N   UNL     1     -40.737  53.823 -51.853  1.00  0.00    -0.351 N 
HETATM   23  H   UNL     1     -41.227  53.725 -52.734  1.00  0.00     0.163 HD
HETATM   24  O   UNL     1     -40.412  55.037 -49.938  1.00  0.00    -0.268 OA
BRANCH  22  25
HETATM   25  C   UNL     1     -39.760  52.813 -51.525  1.00  0.00     0.187 C 
BRANCH  25  26
HETATM   26  C   UNL     1     -39.799  51.739 -52.550  1.00  0.00     0.070 A 
HETATM   27  O   UNL     1     -39.592  50.458 -52.118  1.00  0.00    -0.325 OA
HETATM   28  C   UNL     1     -39.657  49.654 -53.208  1.00  0.00     0.142 A 
HETATM   29  C   UNL     1     -39.917  50.393 -54.338  1.00  0.00     0.027 A 
HETATM   30  C   UNL     1     -40.009  51.741 -53.914  1.00  0.00     0.036 A 
ENDBRANCH  25  26
ENDBRANCH  22  25
ENDBRANCH   3  21
TORSDOF 6
ENDMDL
MODEL 6
REMARK VINA RESULT:      -7.4      2.212      7.152
REMARK  6 active torsions:
REMARK  status: ('A' for Active; 'I' for Inactive)
REMARK    1  A    between atoms: C_3  and  N_4 
REMARK       I    between atoms: N_4  and  C_5 
REMARK       I    between atoms: C_5  and  N_6 
REMARK    2  A    between atoms: N_6  and  C_7 
REMARK    3  A    between atoms: C_7  and  C_8 
REMARK    4  A    between atoms: C_10  and  C_11 
REMARK       I    between atoms: C_11  and  N_12 
REMARK    5  A    between atoms: N_12  and  C_13 
REMARK    6  A    between atoms: C_13  and  C_14 
ROOT
HETATM    1  C   UNL     1     -42.059  57.304 -51.310  1.00  0.00    -0.040 A 
HETATM    2  C   UNL     1     -42.970  57.286 -52.378  1.00  0.00     0.026 A 
HETATM    3  C   UNL     1     -43.046  58.358 -53.274  1.00  0.00     0.032 A 
HETATM    4  C   UNL     1     -42.234  59.479 -53.078  1.00  0.00     0.017 A 
HETATM    5  C   UNL     1     -41.325  59.508 -52.019  1.00  0.00     0.002 A 
HETATM    6  C   UNL     1     -41.229  58.422 -51.147  1.00  0.00     0.009 A 
ENDROOT
BRANCH   1   7
HETATM    7  C   UNL     1     -41.962  56.116 -50.387  1.00  0.00     0.162 C 
BRANCH   7   8
HETATM    8  N   UNL     1     -40.896  55.210 -50.763  1.00  0.00    -0.339 N 
HETATM    9  C   UNL     1     -41.174  54.051 -51.467  1.00  0.00     0.321 C 
HETATM   10  N   UNL     1     -40.020  53.324 -51.651  1.00  0.00    -0.307 N 
HETATM   11  O   UNL     1     -42.291  53.775 -51.877  1.00  0.00    -0.247 OA
HETATM   12  H   UNL     1     -39.198  53.911 -51.653  1.00  0.00     0.170 HD
HETATM   13  H   UNL     1     -40.146  55.118 -50.095  1.00  0.00     0.164 HD
BRANCH  10  14
HETATM   14  C   UNL     1     -39.860  52.044 -52.232  1.00  0.00     0.059 A 
HETATM   15  C   UNL     1     -39.927  51.710 -53.593  1.00  0.00    -0.032 A 
HETATM   16  C   UNL     1     -40.238  52.663 -54.709  1.00  0.00     0.050 C 
HETATM   17  C   UNL     1     -39.704  50.366 -53.959  1.00  0.00     0.028 A 
HETATM   18  C   UNL     1     -39.487  49.410 -52.982  1.00  0.00     0.117 A 
HETATM   19  N   UNL     1     -39.473  49.686 -51.667  1.00  0.00    -0.271 NA
HETATM   20  C   UNL     1     -39.657  50.985 -51.335  1.00  0.00     0.146 A 
ENDBRANCH  10  14
ENDBRANCH   7   8
ENDBRANCH   1   7
BRANCH   3  21
HETATM   21  C   UNL     1     -43.984  58.342 -54.429  1.00  0.00     0.252 C 
HETATM   22  N   UNL     1     -43.496  57.820 -55.603  1.00  0.00    -0.351 N 
HETATM   23  H   UNL     1     -42.540  57.490 -55.677  1.00  0.00     0.163 HD
HETATM   24  O   UNL     1     -45.118  58.795 -54.313  1.00  0.00    -0.268 OA
BRANCH  22  25
HETATM   25  C   UNL     1     -44.341  57.656 -56.760  1.00  0.00     0.187 C 
BRANCH  25  26
HETATM   26  C   UNL     1     -43.504  57.311 -57.937  1.00  0.00     0.070 A 
HETATM   27  O   UNL     1     -43.626  56.045 -58.438  1.00  0.00    -0.325 OA
HETATM   28  C   UNL     1     -42.772  55.947 -59.488  1.00  0.00     0.142 A 
HETATM   29  C   UNL     1     -42.110  57.137 -59.683  1.00  0.00     0.027 A 
HETATM   30  C   UNL     1     -42.583  58.019 -58.682  1.00  0.00     0.036 A 
ENDBRANCH  25  26
ENDBRANCH  22  25
ENDBRANCH   3  21
TORSDOF 6
ENDMDL
MODEL 7
REMARK VINA RESULT:      -7.3     15.803     19.159
REMARK  6 active torsions:
REMARK  status: ('A' for Active; 'I' for Inactive)
REMARK    1  A    between atoms: C_3  and  N_4 
REMARK       I    between atoms: N_4  and  C_5 
REMARK       I    between atoms: C_5  and  N_6 
REMARK    2  A    between atoms: N_6  and  C_7 
REMARK    3  A    between atoms: C_7  and  C_8 
REMARK    4  A    between atoms: C_10  and  C_11 
REMARK       I    between atoms: C_11  and  N_12 
REMARK    5  A    between atoms: N_12  and  C_13 
REMARK    6  A    between atoms: C_13  and  C_14 
ROOT
HETATM    1  C   UNL     1     -37.755  41.337 -56.666  1.00  0.00    -0.040 A 
HETATM    2  C   UNL     1     -38.216  40.190 -57.332  1.00  0.00     0.026 A 
HETATM    3  C   UNL     1     -37.992  40.020 -58.703  1.00  0.00     0.032 A 
HETATM    4  C   UNL     1     -37.340  41.024 -59.426  1.00  0.00     0.017 A 
HETATM    5  C   UNL     1     -36.879  42.168 -58.772  1.00  0.00     0.002 A 
HETATM    6  C   UNL     1     -37.074  42.319 -57.398  1.00  0.00     0.009 A 
ENDROOT
BRANCH   1   7
HETATM    7  C   UNL     1     -37.964  41.474 -55.179  1.00  0.00     0.162 C 
BRANCH   7   8
HETATM    8  N   UNL     1     -36.754  41.865 -54.484  1.00  0.00    -0.339 N 
HETATM    9  C   UNL     1     -35.958  40.914 -53.868  1.00  0.00     0.321 C 
HETATM   10  N   UNL     1     -34.909  41.526 -53.223  1.00  0.00    -0.307 N 
HETATM   11  O   UNL     1     -36.177  39.715 -53.946  1.00  0.00    -0.247 OA
HETATM   12  H   UNL     1     -34.664  42.409 -53.648  1.00  0.00     0.170 HD
HETATM   13  H   UNL     1     -36.797  42.747 -53.997  1.00  0.00     0.164 HD
BRANCH  10  14
HETATM   14  C   UNL     1     -33.914  40.948 -52.399  1.00  0.00     0.059 A 
HETATM   15  C   UNL     1     -32.731  40.312 -52.805  1.00  0.00    -0.032 A 
HETATM   16  C   UNL     1     -32.313  40.079 -54.226  1.00  0.00     0.050 C 
HETATM   17  C   UNL     1     -31.859  39.831 -51.807  1.00  0.00     0.028 A 
HETATM   18  C   UNL     1     -32.208  39.940 -50.472  1.00  0.00     0.117 A 
HETATM   19  N   UNL     1     -33.359  40.491 -50.051  1.00  0.00    -0.271 NA
HETATM   20  C   UNL     1     -34.170  40.976 -51.019  1.00  0.00     0.146 A 
ENDBRANCH  10  14
ENDBRANCH   7   8
ENDBRANCH   1   7
BRANCH   3  21
HETATM   21  C   UNL     1     -38.447  38.798 -59.420  1.00  0.00     0.252 C 
HETATM   22  N   UNL     1     -38.516  38.886 -60.790  1.00  0.00    -0.351 N 
HETATM   23  H   UNL     1     -38.294  39.748 -61.275  1.00  0.00     0.163 HD
HETATM   24  O   UNL     1     -38.754  37.790 -58.793  1.00  0.00    -0.268 OA
BRANCH  22  25
HETATM   25  C   UNL     1     -38.843  37.739 -61.600  1.00  0.00     0.187 C 
BRANCH  25  26
HETATM   26  C   UNL     1     -40.267  37.818 -62.016  1.00  0.00     0.070 A 
HETATM   27  O   UNL     1     -40.524  37.832 -63.359  1.00  0.00    -0.325 OA
HETATM   28  C   UNL     1     -41.870  37.919 -63.507  1.00  0.00     0.142 A 
HETATM   29  C   UNL     1     -42.488  37.948 -62.279  1.00  0.00     0.027 A 
HETATM   30  C   UNL     1     -41.454  37.881 -61.314  1.00  0.00     0.036 A 
ENDBRANCH  25  26
ENDBRANCH  22  25
ENDBRANCH   3  21
TORSDOF 6
ENDMDL
MODEL 8
REMARK VINA RESULT:      -7.3      2.302      7.681
REMARK  6 active torsions:
REMARK  status: ('A' for Active; 'I' for Inactive)
REMARK    1  A    between atoms: C_3  and  N_4 
REMARK       I    between atoms: N_4  and  C_5 
REMARK       I    between atoms: C_5  and  N_6 
REMARK    2  A    between atoms: N_6  and  C_7 
REMARK    3  A    between atoms: C_7  and  C_8 
REMARK    4  A    between atoms: C_10  and  C_11 
REMARK       I    between atoms: C_11  and  N_12 
REMARK    5  A    between atoms: N_12  and  C_13 
REMARK    6  A    between atoms: C_13  and  C_14 
ROOT
HETATM    1  C   UNL     1     -44.182  57.684 -52.746  1.00  0.00    -0.040 A 
HETATM    2  C   UNL     1     -43.671  57.299 -53.996  1.00  0.00     0.026 A 
HETATM    3  C   UNL     1     -43.903  58.077 -55.136  1.00  0.00     0.032 A 
HETATM    4  C   UNL     1     -44.690  59.228 -55.036  1.00  0.00     0.017 A 
HETATM    5  C   UNL     1     -45.204  59.619 -53.798  1.00  0.00     0.002 A 
HETATM    6  C   UNL     1     -44.941  58.858 -52.657  1.00  0.00     0.009 A 
ENDROOT
BRANCH   1   7
HETATM    7  C   UNL     1     -43.876  56.855 -51.524  1.00  0.00     0.162 C 
BRANCH   7   8
HETATM    8  N   UNL     1     -42.573  56.226 -51.594  1.00  0.00    -0.339 N 
HETATM    9  C   UNL     1     -42.455  54.887 -51.923  1.00  0.00     0.321 C 
HETATM   10  N   UNL     1     -41.135  54.503 -51.862  1.00  0.00    -0.307 N 
HETATM   11  O   UNL     1     -43.408  54.196 -52.248  1.00  0.00    -0.247 OA
HETATM   12  H   UNL     1     -40.506  55.276 -52.027  1.00  0.00     0.170 HD
HETATM   13  H   UNL     1     -41.897  56.548 -50.918  1.00  0.00     0.164 HD
BRANCH  10  14
HETATM   14  C   UNL     1     -40.576  53.213 -52.030  1.00  0.00     0.059 A 
HETATM   15  C   UNL     1     -40.237  52.580 -53.234  1.00  0.00    -0.032 A 
HETATM   16  C   UNL     1     -40.453  53.147 -54.607  1.00  0.00     0.050 C 
HETATM   17  C   UNL     1     -39.659  51.295 -53.170  1.00  0.00     0.028 A 
HETATM   18  C   UNL     1     -39.497  50.670 -51.946  1.00  0.00     0.117 A 
HETATM   19  N   UNL     1     -39.863  51.225 -50.778  1.00  0.00    -0.271 NA
HETATM   20  C   UNL     1     -40.387  52.470 -50.854  1.00  0.00     0.146 A 
ENDBRANCH  10  14
ENDBRANCH   7   8
ENDBRANCH   1   7
BRANCH   3  21
HETATM   21  C   UNL     1     -43.344  57.701 -56.462  1.00  0.00     0.252 C 
HETATM   22  N   UNL     1     -44.095  58.047 -57.560  1.00  0.00    -0.351 N 
HETATM   23  H   UNL     1     -44.992  58.509 -57.461  1.00  0.00     0.163 HD
HETATM   24  O   UNL     1     -42.278  57.099 -56.537  1.00  0.00    -0.268 OA
BRANCH  22  25
HETATM   25  C   UNL     1     -43.610  57.829 -58.900  1.00  0.00     0.187 C 
BRANCH  25  26
HETATM   26  C   UNL     1     -44.180  56.565 -59.432  1.00  0.00     0.070 A 
HETATM   27  O   UNL     1     -45.215  56.673 -60.319  1.00  0.00    -0.325 OA
HETATM   28  C   UNL     1     -45.583  55.412 -60.659  1.00  0.00     0.142 A 
HETATM   29  C   UNL     1     -44.791  54.490 -60.016  1.00  0.00     0.027 A 
HETATM   30  C   UNL     1     -43.884  55.233 -59.223  1.00  0.00     0.036 A 
ENDBRANCH  25  26
ENDBRANCH  22  25
ENDBRANCH   3  21
TORSDOF 6
ENDMDL
MODEL 9
REMARK VINA RESULT:      -7.3      4.563      8.389
REMARK  6 active torsions:
REMARK  status: ('A' for Active; 'I' for Inactive)
REMARK    1  A    between atoms: C_3  and  N_4 
REMARK       I    between atoms: N_4  and  C_5 
REMARK       I    between atoms: C_5  and  N_6 
REMARK    2  A    between atoms: N_6  and  C_7 
REMARK    3  A    between atoms: C_7  and  C_8 
REMARK    4  A    between atoms: C_10  and  C_11 
REMARK       I    between atoms: C_11  and  N_12 
REMARK    5  A    between atoms: N_12  and  C_13 
REMARK    6  A    between atoms: C_13  and  C_14 
ROOT
HETATM    1  C   UNL     1     -42.698  56.766 -58.092  1.00  0.00    -0.040 A 
HETATM    2  C   UNL     1     -42.260  58.006 -57.600  1.00  0.00     0.026 A 
HETATM    3  C   UNL     1     -41.970  59.061 -58.472  1.00  0.00     0.032 A 
HETATM    4  C   UNL     1     -42.077  58.864 -59.852  1.00  0.00     0.017 A 
HETATM    5  C   UNL     1     -42.510  57.634 -60.351  1.00  0.00     0.002 A 
HETATM    6  C   UNL     1     -42.831  56.595 -59.476  1.00  0.00     0.009 A 
ENDROOT
BRANCH   1   7
HETATM    7  C   UNL     1     -43.052  55.660 -57.129  1.00  0.00     0.162 C 
BRANCH   7   8
HETATM    8  N   UNL     1     -41.891  55.140 -56.435  1.00  0.00    -0.339 N 
HETATM    9  C   UNL     1     -42.040  54.364 -55.298  1.00  0.00     0.321 C 
HETATM   10  N   UNL     1     -40.806  54.044 -54.782  1.00  0.00    -0.307 N 
HETATM   11  O   UNL     1     -43.130  54.009 -54.876  1.00  0.00    -0.247 OA
HETATM   12  H   UNL     1     -40.088  54.035 -55.492  1.00  0.00     0.170 HD
HETATM   13  H   UNL     1     -41.085  55.747 -56.418  1.00  0.00     0.164 HD
BRANCH  10  14
HETATM   14  C   UNL     1     -40.495  53.351 -53.588  1.00  0.00     0.059 A 
HETATM   15  C   UNL     1     -40.668  53.798 -52.270  1.00  0.00    -0.032 A 
HETATM   16  C   UNL     1     -41.184  55.149 -51.870  1.00  0.00     0.050 C 
HETATM   17  C   UNL     1     -40.317  52.926 -51.220  1.00  0.00     0.028 A 
HETATM   18  C   UNL     1     -39.761  51.690 -51.504  1.00  0.00     0.117 A 
HETATM   19  N   UNL     1     -39.529  51.253 -52.754  1.00  0.00    -0.271 NA
HETATM   20  C   UNL     1     -39.901  52.089 -53.750  1.00  0.00     0.146 A 
ENDBRANCH  10  14
ENDBRANCH   7   8
ENDBRANCH   1   7
BRANCH   3  21
HETATM   21  C   UNL     1     -41.534  60.391 -57.967  1.00  0.00     0.252 C 
HETATM   22  N   UNL     1     -41.149  61.306 -58.917  1.00  0.00    -0.351 N 
HETATM   23  H   UNL     1     -41.140  61.071 -59.904  1.00  0.00     0.163 HD
HETATM   24  O   UNL     1     -41.513  60.620 -56.763  1.00  0.00    -0.268 OA
BRANCH  22  25
HETATM   25  C   UNL     1     -40.806  62.661 -58.559  1.00  0.00     0.187 C 
BRANCH  25  26
HETATM   26  C   UNL     1     -39.870  63.216 -59.570  1.00  0.00     0.070 A 
HETATM   27  O   UNL     1     -38.911  64.081 -59.121  1.00  0.00    -0.325 OA
HETATM   28  C   UNL     1     -38.187  64.469 -60.201  1.00  0.00     0.142 A 
HETATM   29  C   UNL     1     -38.654  63.856 -61.340  1.00  0.00     0.027 A 
HETATM   30  C   UNL     1     -39.741  63.045 -60.933  1.00  0.00     0.036 A 
ENDBRANCH  25  26
ENDBRANCH  22  25
ENDBRANCH   3  21
TORSDOF 6
ENDMDL
MODEL 10
REMARK VINA RESULT:      -7.3      3.851      8.258
REMARK  6 active torsions:
REMARK  status: ('A' for Active; 'I' for Inactive)
REMARK    1  A    between atoms: C_3  and  N_4 
REMARK       I    between atoms: N_4  and  C_5 
REMARK       I    between atoms: C_5  and  N_6 
REMARK    2  A    between atoms: N_6  and  C_7 
REMARK    3  A    between atoms: C_7  and  C_8 
REMARK    4  A    between atoms: C_10  and  C_11 
REMARK       I    between atoms: C_11  and  N_12 
REMARK    5  A    between atoms: N_12  and  C_13 
REMARK    6  A    between atoms: C_13  and  C_14 
ROOT
HETATM    1  C   UNL     1     -42.795  56.238 -57.040  1.00  0.00    -0.040 A 
HETATM    2  C   UNL     1     -42.874  57.523 -57.599  1.00  0.00     0.026 A 
HETATM    3  C   UNL     1     -43.366  57.711 -58.896  1.00  0.00     0.032 A 
HETATM    4  C   UNL     1     -43.742  56.602 -59.658  1.00  0.00     0.017 A 
HETATM    5  C   UNL     1     -43.666  55.319 -59.111  1.00  0.00     0.002 A 
HETATM    6  C   UNL     1     -43.207  55.139 -57.805  1.00  0.00     0.009 A 
ENDROOT
BRANCH   1   7
HETATM    7  C   UNL     1     -42.309  56.065 -55.623  1.00  0.00     0.162 C 
BRANCH   7   8
HETATM    8  N   UNL     1     -41.315  55.017 -55.503  1.00  0.00    -0.339 N 
HETATM    9  C   UNL     1     -41.493  53.978 -54.606  1.00  0.00     0.321 C 
HETATM   10  N   UNL     1     -40.396  53.148 -54.625  1.00  0.00    -0.307 N 
HETATM   11  O   UNL     1     -42.509  53.841 -53.943  1.00  0.00    -0.247 OA
HETATM   12  H   UNL     1     -39.917  53.172 -55.514  1.00  0.00     0.170 HD
HETATM   13  H   UNL     1     -40.356  55.312 -55.611  1.00  0.00     0.164 HD
BRANCH  10  14
HETATM   14  C   UNL     1     -40.117  52.026 -53.809  1.00  0.00     0.059 A 
HETATM   15  C   UNL     1     -39.876  52.013 -52.427  1.00  0.00    -0.032 A 
HETATM   16  C   UNL     1     -39.822  53.223 -51.542  1.00  0.00     0.050 C 
HETATM   17  C   UNL     1     -39.648  50.769 -51.804  1.00  0.00     0.028 A 
HETATM   18  C   UNL     1     -39.606  49.612 -52.563  1.00  0.00     0.117 A 
HETATM   19  N   UNL     1     -39.775  49.596 -53.896  1.00  0.00    -0.271 NA
HETATM   20  C   UNL     1     -40.025  50.793 -54.474  1.00  0.00     0.146 A 
ENDBRANCH  10  14
ENDBRANCH   7   8
ENDBRANCH   1   7
BRANCH   3  21
HETATM   21  C   UNL     1     -43.485  59.069 -59.493  1.00  0.00     0.252 C 
HETATM   22  N   UNL     1     -43.328  60.128 -58.633  1.00  0.00    -0.351 N 
HETATM   23  H   UNL     1     -43.168  59.985 -57.642  1.00  0.00     0.163 HD
HETATM   24  O   UNL     1     -43.728  59.201 -60.688  1.00  0.00    -0.268 OA
BRANCH  22  25
HETATM   25  C   UNL     1     -43.319  61.489 -59.112  1.00  0.00     0.187 C 
BRANCH  25  26
HETATM   26  C   UNL     1     -41.915  61.949 -59.265  1.00  0.00     0.070 A 
HETATM   27  O   UNL     1     -41.566  62.493 -60.469  1.00  0.00    -0.325 OA
HETATM   28  C   UNL     1     -40.253  62.827 -60.391  1.00  0.00     0.142 A 
HETATM   29  C   UNL     1     -39.751  62.519 -59.148  1.00  0.00     0.027 A 
HETATM   30  C   UNL     1     -40.824  61.952 -58.419  1.00  0.00     0.036 A 
ENDBRANCH  25  26
ENDBRANCH  22  25
ENDBRANCH   3  21
TORSDOF 6
ENDMDL
