MODEL 1
REMARK VINA RESULT:      -7.6      0.000      0.000
REMARK  11 active torsions:
REMARK  status: ('A' for Active; 'I' for Inactive)
REMARK    1  A    between atoms: C_2  and  N_3 
REMARK    2  A    between atoms: N_3  and  C_5 
REMARK    3  A    between atoms: N_3  and  C_32 
REMARK    4  A    between atoms: C_5  and  C_6 
REMARK    5  A    between atoms: N_9  and  C_10 
REMARK    6  A    between atoms: C_14  and  N_15 
REMARK    7  A    between atoms: C_16  and  C_17 
REMARK       I    between atoms: C_17  and  N_18 
REMARK    8  A    between atoms: N_18  and  N_19 
REMARK    9  A    between atoms: C_20  and  C_21 
REMARK   10  A    between atoms: C_25  and  O_26 
REMARK   11  A    between atoms: C_27  and  O_28 
ROOT
HETATM    1  C   UNL     1     -42.810  59.042 -57.158  1.00  0.00     0.112 A 
HETATM    2  N   UNL     1     -43.148  59.597 -58.353  1.00  0.00    -0.160 NA
HETATM    3  N   UNL     1     -43.680  58.654 -59.110  1.00  0.00     0.012 NA
HETATM    4  N   UNL     1     -43.694  57.471 -58.424  1.00  0.00    -0.207 N 
HETATM    5  C   UNL     1     -43.177  57.709 -57.159  1.00  0.00     0.153 A 
ENDROOT
BRANCH   5   6
HETATM    6  C   UNL     1     -42.933  56.773 -56.104  1.00  0.00     0.292 C 
HETATM    7  N   UNL     1     -41.775  56.021 -56.253  1.00  0.00    -0.242 N 
HETATM    8  H   UNL     1     -41.271  56.059 -57.134  1.00  0.00     0.192 HD
HETATM    9  O   UNL     1     -43.805  56.560 -55.266  1.00  0.00    -0.264 OA
BRANCH   7  10
HETATM   10  N   UNL     1     -41.563  54.853 -55.561  1.00  0.00    -0.184 NA
HETATM   11  C   UNL     1     -40.755  54.937 -54.548  1.00  0.00     0.150 C 
BRANCH  11  12
HETATM   12  C   UNL     1     -40.460  53.783 -53.675  1.00  0.00    -0.013 A 
HETATM   13  C   UNL     1     -40.186  52.554 -54.281  1.00  0.00     0.035 A 
HETATM   14  C   UNL     1     -39.915  51.446 -53.482  1.00  0.00     0.047 A 
HETATM   15 BR   UNL     1     -39.562  49.782 -54.318  1.00  0.00    -0.048 Br
HETATM   16  C   UNL     1     -39.904  51.566 -52.089  1.00  0.00     0.116 A 
HETATM   17  C   UNL     1     -40.167  52.801 -51.477  1.00  0.00     0.103 A 
HETATM   18  C   UNL     1     -40.450  53.911 -52.279  1.00  0.00     0.052 A 
BRANCH  16  19
HETATM   19  O   UNL     1     -39.639  50.482 -51.291  1.00  0.00    -0.357 OA
HETATM   20  H   UNL     1     -39.989  49.687 -51.731  1.00  0.00     0.218 HD
ENDBRANCH  16  19
BRANCH  17  21
HETATM   21  O   UNL     1     -40.122  52.813 -50.108  1.00  0.00    -0.353 OA
HETATM   22  C   UNL     1     -39.907  54.057 -49.458  1.00  0.00     0.210 C 
ENDBRANCH  17  21
ENDBRANCH  11  12
ENDBRANCH   7  10
ENDBRANCH   5   6
BRANCH   1  23
HETATM   23  C   UNL     1     -42.174  59.814 -56.051  1.00  0.00     0.297 C 
BRANCH  23  24
HETATM   24  N   UNL     1     -42.620  59.552 -54.619  1.00  0.00    -0.066 N 
HETATM   25  H   UNL     1     -42.958  58.582 -54.613  1.00  0.00     0.280 HD
BRANCH  24  26
HETATM   26  C   UNL     1     -43.791  60.393 -54.140  1.00  0.00     0.231 C 
HETATM   27  C   UNL     1     -45.037  59.557 -53.908  1.00  0.00     0.034 C 
ENDBRANCH  24  26
BRANCH  24  28
HETATM   28  C   UNL     1     -41.480  59.607 -53.615  1.00  0.00     0.231 C 
HETATM   29  C   UNL     1     -41.100  58.215 -53.140  1.00  0.00     0.034 C 
ENDBRANCH  24  28
ENDBRANCH  23  24
ENDBRANCH   1  23
BRANCH   4  30
HETATM   30  C   UNL     1     -44.148  56.263 -58.994  1.00  0.00     0.225 A 
HETATM   31  N   UNL     1     -43.654  55.097 -58.574  1.00  0.00    -0.081 NA
HETATM   32  O   UNL     1     -44.332  54.150 -59.345  1.00  0.00    -0.103 OA
HETATM   33  N   UNL     1     -45.220  54.759 -60.223  1.00  0.00    -0.083 NA
HETATM   34  C   UNL     1     -45.105  56.068 -60.005  1.00  0.00     0.201 A 
BRANCH  34  35
HETATM   35  N   UNL     1     -45.799  57.010 -60.666  1.00  0.00    -0.379 N 
HETATM   36  H   UNL     1     -46.815  56.964 -60.679  1.00  0.00     0.158 HD
HETATM   37  H   UNL     1     -45.391  57.612 -61.378  1.00  0.00     0.158 HD
ENDBRANCH  34  35
ENDBRANCH   4  30
TORSDOF 11
ENDMDL
MODEL 2
REMARK VINA RESULT:      -7.5      1.594      1.953
REMARK  11 active torsions:
REMARK  status: ('A' for Active; 'I' for Inactive)
REMARK    1  A    between atoms: C_2  and  N_3 
REMARK    2  A    between atoms: N_3  and  C_5 
REMARK    3  A    between atoms: N_3  and  C_32 
REMARK    4  A    between atoms: C_5  and  C_6 
REMARK    5  A    between atoms: N_9  and  C_10 
REMARK    6  A    between atoms: C_14  and  N_15 
REMARK    7  A    between atoms: C_16  and  C_17 
REMARK       I    between atoms: C_17  and  N_18 
REMARK    8  A    between atoms: N_18  and  N_19 
REMARK    9  A    between atoms: C_20  and  C_21 
REMARK   10  A    between atoms: C_25  and  O_26 
REMARK   11  A    between atoms: C_27  and  O_28 
ROOT
HETATM    1  C   UNL     1     -45.075  58.653 -55.733  1.00  0.00     0.112 A 
HETATM    2  N   UNL     1     -45.808  59.331 -56.657  1.00  0.00    -0.160 NA
HETATM    3  N   UNL     1     -45.520  58.844 -57.850  1.00  0.00     0.012 NA
HETATM    4  N   UNL     1     -44.594  57.845 -57.725  1.00  0.00    -0.207 N 
HETATM    5  C   UNL     1     -44.327  57.682 -56.374  1.00  0.00     0.153 A 
ENDROOT
BRANCH   5   6
HETATM    6  C   UNL     1     -43.385  56.804 -55.750  1.00  0.00     0.292 C 
HETATM    7  N   UNL     1     -43.939  55.653 -55.205  1.00  0.00    -0.242 N 
HETATM    8  H   UNL     1     -44.949  55.573 -55.141  1.00  0.00     0.192 HD
HETATM    9  O   UNL     1     -42.230  57.181 -55.569  1.00  0.00    -0.264 OA
BRANCH   7  10
HETATM   10  N   UNL     1     -43.279  54.890 -54.272  1.00  0.00    -0.184 NA
HETATM   11  C   UNL     1     -42.277  54.195 -54.719  1.00  0.00     0.150 C 
BRANCH  11  12
HETATM   12  C   UNL     1     -41.436  53.362 -53.835  1.00  0.00    -0.013 A 
HETATM   13  C   UNL     1     -40.898  52.185 -54.360  1.00  0.00     0.035 A 
HETATM   14  C   UNL     1     -40.109  51.374 -53.547  1.00  0.00     0.047 A 
HETATM   15 BR   UNL     1     -39.400  49.771 -54.269  1.00  0.00    -0.048 Br
HETATM   16  C   UNL     1     -39.850  51.742 -52.224  1.00  0.00     0.116 A 
HETATM   17  C   UNL     1     -40.379  52.930 -51.696  1.00  0.00     0.103 A 
HETATM   18  C   UNL     1     -41.180  53.738 -52.509  1.00  0.00     0.052 A 
BRANCH  16  19
HETATM   19  O   UNL     1     -39.075  50.952 -51.413  1.00  0.00    -0.357 OA
HETATM   20  H   UNL     1     -38.483  51.530 -50.899  1.00  0.00     0.218 HD
ENDBRANCH  16  19
BRANCH  17  21
HETATM   21  O   UNL     1     -40.057  53.202 -50.393  1.00  0.00    -0.353 OA
HETATM   22  C   UNL     1     -40.116  54.553 -49.960  1.00  0.00     0.210 C 
ENDBRANCH  17  21
ENDBRANCH  11  12
ENDBRANCH   7  10
ENDBRANCH   5   6
BRANCH   1  23
HETATM   23  C   UNL     1     -45.138  58.940 -54.270  1.00  0.00     0.297 C 
BRANCH  23  24
HETATM   24  N   UNL     1     -43.903  58.687 -53.416  1.00  0.00    -0.066 N 
HETATM   25  H   UNL     1     -43.256  58.169 -54.023  1.00  0.00     0.280 HD
BRANCH  24  26
HETATM   26  C   UNL     1     -44.123  57.799 -52.204  1.00  0.00     0.231 C 
HETATM   27  C   UNL     1     -42.815  57.297 -51.619  1.00  0.00     0.034 C 
ENDBRANCH  24  26
BRANCH  24  28
HETATM   28  C   UNL     1     -43.178  59.962 -53.017  1.00  0.00     0.231 C 
HETATM   29  C   UNL     1     -42.141  60.352 -54.055  1.00  0.00     0.034 C 
ENDBRANCH  24  28
ENDBRANCH  23  24
ENDBRANCH   1  23
BRANCH   4  30
HETATM   30  C   UNL     1     -44.043  57.171 -58.836  1.00  0.00     0.225 A 
HETATM   31  N   UNL     1     -42.777  57.390 -59.190  1.00  0.00    -0.081 NA
HETATM   32  O   UNL     1     -42.592  56.562 -60.299  1.00  0.00    -0.103 OA
HETATM   33  N   UNL     1     -43.753  55.860 -60.601  1.00  0.00    -0.083 NA
HETATM   34  C   UNL     1     -44.652  56.239 -59.694  1.00  0.00     0.201 A 
BRANCH  34  35
HETATM   35  N   UNL     1     -45.916  55.788 -59.647  1.00  0.00    -0.379 N 
HETATM   36  H   UNL     1     -46.144  55.001 -59.044  1.00  0.00     0.158 HD
HETATM   37  H   UNL     1     -46.612  55.992 -60.360  1.00  0.00     0.158 HD
ENDBRANCH  34  35
ENDBRANCH   4  30
TORSDOF 11
ENDMDL
MODEL 3
REMARK VINA RESULT:      -7.5      1.712      4.575
REMARK  11 active torsions:
REMARK  status: ('A' for Active; 'I' for Inactive)
REMARK    1  A    between atoms: C_2  and  N_3 
REMARK    2  A    between atoms: N_3  and  C_5 
REMARK    3  A    between atoms: N_3  and  C_32 
REMARK    4  A    between atoms: C_5  and  C_6 
REMARK    5  A    between atoms: N_9  and  C_10 
REMARK    6  A    between atoms: C_14  and  N_15 
REMARK    7  A    between atoms: C_16  and  C_17 
REMARK       I    between atoms: C_17  and  N_18 
REMARK    8  A    between atoms: N_18  and  N_19 
REMARK    9  A    between atoms: C_20  and  C_21 
REMARK   10  A    between atoms: C_25  and  O_26 
REMARK   11  A    between atoms: C_27  and  O_28 
ROOT
HETATM    1  C   UNL     1     -44.645  58.172 -57.760  1.00  0.00     0.112 A 
HETATM    2  N   UNL     1     -44.941  59.492 -57.632  1.00  0.00    -0.160 NA
HETATM    3  N   UNL     1     -44.256  59.972 -56.610  1.00  0.00     0.012 NA
HETATM    4  N   UNL     1     -43.506  58.974 -56.053  1.00  0.00    -0.207 N 
HETATM    5  C   UNL     1     -43.711  57.823 -56.800  1.00  0.00     0.153 A 
ENDROOT
BRANCH   5   6
HETATM    6  C   UNL     1     -43.195  56.508 -56.575  1.00  0.00     0.292 C 
HETATM    7  N   UNL     1     -43.717  55.864 -55.461  1.00  0.00    -0.242 N 
HETATM    8  H   UNL     1     -44.290  56.391 -54.808  1.00  0.00     0.192 HD
HETATM    9  O   UNL     1     -42.233  56.111 -57.228  1.00  0.00    -0.264 OA
BRANCH   7  10
HETATM   10  N   UNL     1     -43.102  54.779 -54.883  1.00  0.00    -0.184 NA
HETATM   11  C   UNL     1     -42.026  55.037 -54.203  1.00  0.00     0.150 C 
BRANCH  11  12
HETATM   12  C   UNL     1     -41.277  53.987 -53.482  1.00  0.00    -0.013 A 
HETATM   13  C   UNL     1     -40.999  52.797 -54.159  1.00  0.00     0.035 A 
HETATM   14  C   UNL     1     -40.302  51.786 -53.501  1.00  0.00     0.047 A 
HETATM   15 BR   UNL     1     -39.948  50.170 -54.427  1.00  0.00    -0.048 Br
HETATM   16  C   UNL     1     -39.875  51.967 -52.183  1.00  0.00     0.116 A 
HETATM   17  C   UNL     1     -40.142  53.166 -51.503  1.00  0.00     0.103 A 
HETATM   18  C   UNL     1     -40.851  54.176 -52.160  1.00  0.00     0.052 A 
BRANCH  16  19
HETATM   19  O   UNL     1     -39.189  50.978 -51.523  1.00  0.00    -0.357 OA
HETATM   20  H   UNL     1     -39.008  51.285 -50.617  1.00  0.00     0.218 HD
ENDBRANCH  16  19
BRANCH  17  21
HETATM   21  O   UNL     1     -39.672  53.244 -50.219  1.00  0.00    -0.353 OA
HETATM   22  C   UNL     1     -39.990  54.402 -49.462  1.00  0.00     0.210 C 
ENDBRANCH  17  21
ENDBRANCH  11  12
ENDBRANCH   7  10
ENDBRANCH   5   6
BRANCH   1  23
HETATM   23  C   UNL     1     -45.243  57.298 -58.812  1.00  0.00     0.297 C 
BRANCH  23  24
HETATM   24  N   UNL     1     -44.530  57.162 -60.150  1.00  0.00    -0.066 N 
HETATM   25  H   UNL     1     -45.268  57.238 -60.860  1.00  0.00     0.280 HD
BRANCH  24  26
HETATM   26  C   UNL     1     -43.866  55.818 -60.397  1.00  0.00     0.231 C 
HETATM   27  C   UNL     1     -44.498  54.710 -59.576  1.00  0.00     0.034 C 
ENDBRANCH  24  26
BRANCH  24  28
HETATM   28  C   UNL     1     -43.557  58.296 -60.429  1.00  0.00     0.231 C 
HETATM   29  C   UNL     1     -42.117  57.822 -60.324  1.00  0.00     0.034 C 
ENDBRANCH  24  28
ENDBRANCH  23  24
ENDBRANCH   1  23
BRANCH   4  30
HETATM   30  C   UNL     1     -42.711  59.166 -54.903  1.00  0.00     0.225 A 
HETATM   31  N   UNL     1     -41.484  59.677 -55.016  1.00  0.00    -0.081 NA
HETATM   32  O   UNL     1     -41.020  59.723 -53.699  1.00  0.00    -0.103 OA
HETATM   33  N   UNL     1     -41.971  59.232 -52.813  1.00  0.00    -0.083 NA
HETATM   34  C   UNL     1     -43.018  58.885 -53.561  1.00  0.00     0.201 A 
BRANCH  34  35
HETATM   35  N   UNL     1     -44.153  58.355 -53.075  1.00  0.00    -0.379 N 
HETATM   36  H   UNL     1     -44.374  57.382 -53.272  1.00  0.00     0.158 HD
HETATM   37  H   UNL     1     -44.940  58.913 -52.754  1.00  0.00     0.158 HD
ENDBRANCH  34  35
ENDBRANCH   4  30
TORSDOF 11
ENDMDL
MODEL 4
REMARK VINA RESULT:      -7.4      3.674      8.169
REMARK  11 active torsions:
REMARK  status: ('A' for Active; 'I' for Inactive)
REMARK    1  A    between atoms: C_2  and  N_3 
REMARK    2  A    between atoms: N_3  and  C_5 
REMARK    3  A    between atoms: N_3  and  C_32 
REMARK    4  A    between atoms: C_5  and  C_6 
REMARK    5  A    between atoms: N_9  and  C_10 
REMARK    6  A    between atoms: C_14  and  N_15 
REMARK    7  A    between atoms: C_16  and  C_17 
REMARK       I    between atoms: C_17  and  N_18 
REMARK    8  A    between atoms: N_18  and  N_19 
REMARK    9  A    between atoms: C_20  and  C_21 
REMARK   10  A    between atoms: C_25  and  O_26 
REMARK   11  A    between atoms: C_27  and  O_28 
ROOT
HETATM    1  C   UNL     1     -40.936  54.630 -51.345  1.00  0.00     0.112 A 
HETATM    2  N   UNL     1     -39.978  54.182 -50.491  1.00  0.00    -0.160 NA
HETATM    3  N   UNL     1     -39.512  53.037 -50.956  1.00  0.00     0.012 NA
HETATM    4  N   UNL     1     -40.161  52.717 -52.116  1.00  0.00    -0.207 N 
HETATM    5  C   UNL     1     -41.048  53.744 -52.402  1.00  0.00     0.153 A 
ENDROOT
BRANCH   5   6
HETATM    6  C   UNL     1     -41.991  53.837 -53.475  1.00  0.00     0.292 C 
HETATM    7  N   UNL     1     -41.425  54.055 -54.725  1.00  0.00    -0.242 N 
HETATM    8  H   UNL     1     -40.438  54.282 -54.788  1.00  0.00     0.192 HD
HETATM    9  O   UNL     1     -43.191  53.908 -53.226  1.00  0.00    -0.264 OA
BRANCH   7  10
HETATM   10  N   UNL     1     -42.155  54.525 -55.790  1.00  0.00    -0.184 NA
HETATM   11  C   UNL     1     -42.176  55.815 -55.934  1.00  0.00     0.150 C 
BRANCH  11  12
HETATM   12  C   UNL     1     -42.876  56.473 -57.056  1.00  0.00    -0.013 A 
HETATM   13  C   UNL     1     -43.384  57.759 -56.850  1.00  0.00     0.035 A 
HETATM   14  C   UNL     1     -44.057  58.400 -57.887  1.00  0.00     0.047 A 
HETATM   15 BR   UNL     1     -44.756  60.136 -57.585  1.00  0.00    -0.048 Br
HETATM   16  C   UNL     1     -44.209  57.769 -59.125  1.00  0.00     0.116 A 
HETATM   17  C   UNL     1     -43.690  56.483 -59.340  1.00  0.00     0.103 A 
HETATM   18  C   UNL     1     -43.024  55.835 -58.295  1.00  0.00     0.052 A 
BRANCH  16  19
HETATM   19  O   UNL     1     -44.871  58.390 -60.154  1.00  0.00    -0.357 OA
HETATM   20  H   UNL     1     -44.800  57.827 -60.946  1.00  0.00     0.218 HD
ENDBRANCH  16  19
BRANCH  17  21
HETATM   21  O   UNL     1     -43.887  55.960 -60.591  1.00  0.00    -0.353 OA
HETATM   22  C   UNL     1     -44.847  54.924 -60.736  1.00  0.00     0.210 C 
ENDBRANCH  17  21
ENDBRANCH  11  12
ENDBRANCH   7  10
ENDBRANCH   5   6
BRANCH   1  23
HETATM   23  C   UNL     1     -41.690  55.900 -51.134  1.00  0.00     0.297 C 
BRANCH  23  24
HETATM   24  N   UNL     1     -41.889  56.843 -52.313  1.00  0.00    -0.066 N 
HETATM   25  H   UNL     1     -41.634  56.296 -53.144  1.00  0.00     0.280 HD
BRANCH  24  26
HETATM   26  C   UNL     1     -40.980  58.060 -52.332  1.00  0.00     0.231 C 
HETATM   27  C   UNL     1     -41.051  58.804 -53.652  1.00  0.00     0.034 C 
ENDBRANCH  24  26
BRANCH  24  28
HETATM   28  C   UNL     1     -43.338  57.258 -52.510  1.00  0.00     0.231 C 
HETATM   29  C   UNL     1     -44.155  57.015 -51.254  1.00  0.00     0.034 C 
ENDBRANCH  24  28
ENDBRANCH  23  24
ENDBRANCH   1  23
BRANCH   4  30
HETATM   30  C   UNL     1     -39.923  51.516 -52.819  1.00  0.00     0.225 A 
HETATM   31  N   UNL     1     -39.936  51.508 -54.152  1.00  0.00    -0.081 NA
HETATM   32  O   UNL     1     -39.661  50.179 -54.480  1.00  0.00    -0.103 OA
HETATM   33  N   UNL     1     -39.494  49.403 -53.339  1.00  0.00    -0.083 NA
HETATM   34  C   UNL     1     -39.659  50.233 -52.310  1.00  0.00     0.201 A 
BRANCH  34  35
HETATM   35  N   UNL     1     -39.581  49.865 -51.020  1.00  0.00    -0.379 N 
HETATM   36  H   UNL     1     -40.406  49.941 -50.429  1.00  0.00     0.158 HD
HETATM   37  H   UNL     1     -38.704  49.769 -50.515  1.00  0.00     0.158 HD
ENDBRANCH  34  35
ENDBRANCH   4  30
TORSDOF 11
ENDMDL
MODEL 5
REMARK VINA RESULT:      -7.3      3.786      8.584
REMARK  11 active torsions:
REMARK  status: ('A' for Active; 'I' for Inactive)
REMARK    1  A    between atoms: C_2  and  N_3 
REMARK    2  A    between atoms: N_3  and  C_5 
REMARK    3  A    between atoms: N_3  and  C_32 
REMARK    4  A    between atoms: C_5  and  C_6 
REMARK    5  A    between atoms: N_9  and  C_10 
REMARK    6  A    between atoms: C_14  and  N_15 
REMARK    7  A    between atoms: C_16  and  C_17 
REMARK       I    between atoms: C_17  and  N_18 
REMARK    8  A    between atoms: N_18  and  N_19 
REMARK    9  A    between atoms: C_20  and  C_21 
REMARK   10  A    between atoms: C_25  and  O_26 
REMARK   11  A    between atoms: C_27  and  O_28 
ROOT
HETATM    1  C   UNL     1     -40.635  54.347 -50.953  1.00  0.00     0.112 A 
HETATM    2  N   UNL     1     -40.607  54.894 -49.708  1.00  0.00    -0.160 NA
HETATM    3  N   UNL     1     -41.587  55.776 -49.622  1.00  0.00     0.012 NA
HETATM    4  N   UNL     1     -42.266  55.821 -50.808  1.00  0.00    -0.207 N 
HETATM    5  C   UNL     1     -41.696  54.885 -51.659  1.00  0.00     0.153 A 
ENDROOT
BRANCH   5   6
HETATM    6  C   UNL     1     -42.020  54.606 -53.025  1.00  0.00     0.292 C 
HETATM    7  N   UNL     1     -41.350  55.395 -53.951  1.00  0.00    -0.242 N 
HETATM    8  H   UNL     1     -40.813  56.193 -53.625  1.00  0.00     0.192 HD
HETATM    9  O   UNL     1     -42.958  53.859 -53.287  1.00  0.00    -0.264 OA
BRANCH   7  10
HETATM   10  N   UNL     1     -41.780  55.529 -55.249  1.00  0.00    -0.184 NA
HETATM   11  C   UNL     1     -42.255  56.694 -55.569  1.00  0.00     0.150 C 
BRANCH  11  12
HETATM   12  C   UNL     1     -42.713  57.013 -56.936  1.00  0.00    -0.013 A 
HETATM   13  C   UNL     1     -42.919  58.356 -57.263  1.00  0.00     0.035 A 
HETATM   14  C   UNL     1     -43.360  58.685 -58.543  1.00  0.00     0.047 A 
HETATM   15 BR   UNL     1     -43.651  60.510 -58.966  1.00  0.00    -0.048 Br
HETATM   16  C   UNL     1     -43.582  57.683 -59.492  1.00  0.00     0.116 A 
HETATM   17  C   UNL     1     -43.365  56.334 -59.171  1.00  0.00     0.103 A 
HETATM   18  C   UNL     1     -42.933  56.003 -57.883  1.00  0.00     0.052 A 
BRANCH  16  19
HETATM   19  O   UNL     1     -44.018  57.995 -60.755  1.00  0.00    -0.357 OA
HETATM   20  H   UNL     1     -43.740  58.906 -60.958  1.00  0.00     0.218 HD
ENDBRANCH  16  19
BRANCH  17  21
HETATM   21  O   UNL     1     -43.604  55.434 -60.175  1.00  0.00    -0.353 OA
HETATM   22  C   UNL     1     -44.673  54.515 -60.007  1.00  0.00     0.210 C 
ENDBRANCH  17  21
ENDBRANCH  11  12
ENDBRANCH   7  10
ENDBRANCH   5   6
BRANCH   1  23
HETATM   23  C   UNL     1     -39.664  53.311 -51.411  1.00  0.00     0.297 C 
BRANCH  23  24
HETATM   24  N   UNL     1     -40.166  51.898 -51.679  1.00  0.00    -0.066 N 
HETATM   25  H   UNL     1     -41.164  52.003 -51.902  1.00  0.00     0.280 HD
BRANCH  24  26
HETATM   26  C   UNL     1     -40.111  50.954 -50.491  1.00  0.00     0.231 C 
HETATM   27  C   UNL     1     -39.632  49.569 -50.885  1.00  0.00     0.034 C 
ENDBRANCH  24  26
BRANCH  24  28
HETATM   28  C   UNL     1     -39.527  51.256 -52.899  1.00  0.00     0.231 C 
HETATM   29  C   UNL     1     -40.239  51.671 -54.175  1.00  0.00     0.034 C 
ENDBRANCH  24  28
ENDBRANCH  23  24
ENDBRANCH   1  23
BRANCH   4  30
HETATM   30  C   UNL     1     -43.332  56.715 -51.045  1.00  0.00     0.225 A 
HETATM   31  N   UNL     1     -44.556  56.429 -50.600  1.00  0.00    -0.081 NA
HETATM   32  O   UNL     1     -45.323  57.523 -51.008  1.00  0.00    -0.103 OA
HETATM   33  N   UNL     1     -44.552  58.449 -51.699  1.00  0.00    -0.083 NA
HETATM   34  C   UNL     1     -43.318  57.946 -51.722  1.00  0.00     0.201 A 
BRANCH  34  35
HETATM   35  N   UNL     1     -42.268  58.545 -52.309  1.00  0.00    -0.379 N 
HETATM   36  H   UNL     1     -42.402  59.434 -52.785  1.00  0.00     0.158 HD
HETATM   37  H   UNL     1     -41.407  58.059 -52.550  1.00  0.00     0.158 HD
ENDBRANCH  34  35
ENDBRANCH   4  30
TORSDOF 11
ENDMDL
MODEL 6
REMARK VINA RESULT:      -7.2      3.578      8.022
REMARK  11 active torsions:
REMARK  status: ('A' for Active; 'I' for Inactive)
REMARK    1  A    between atoms: C_2  and  N_3 
REMARK    2  A    between atoms: N_3  and  C_5 
REMARK    3  A    between atoms: N_3  and  C_32 
REMARK    4  A    between atoms: C_5  and  C_6 
REMARK    5  A    between atoms: N_9  and  C_10 
REMARK    6  A    between atoms: C_14  and  N_15 
REMARK    7  A    between atoms: C_16  and  C_17 
REMARK       I    between atoms: C_17  and  N_18 
REMARK    8  A    between atoms: N_18  and  N_19 
REMARK    9  A    between atoms: C_20  and  C_21 
REMARK   10  A    between atoms: C_25  and  O_26 
REMARK   11  A    between atoms: C_27  and  O_28 
ROOT
HETATM    1  C   UNL     1     -40.838  54.495 -50.960  1.00  0.00     0.112 A 
HETATM    2  N   UNL     1     -39.803  54.028 -50.211  1.00  0.00    -0.160 NA
HETATM    3  N   UNL     1     -39.357  52.918 -50.771  1.00  0.00     0.012 NA
HETATM    4  N   UNL     1     -40.094  52.641 -51.889  1.00  0.00    -0.207 N 
HETATM    5  C   UNL     1     -41.020  53.661 -52.048  1.00  0.00     0.153 A 
ENDROOT
BRANCH   5   6
HETATM    6  C   UNL     1     -42.050  53.787 -53.034  1.00  0.00     0.292 C 
HETATM    7  N   UNL     1     -41.599  54.125 -54.303  1.00  0.00    -0.242 N 
HETATM    8  H   UNL     1     -40.630  54.405 -54.425  1.00  0.00     0.192 HD
HETATM    9  O   UNL     1     -43.229  53.778 -52.687  1.00  0.00    -0.264 OA
BRANCH   7  10
HETATM   10  N   UNL     1     -42.433  54.635 -55.268  1.00  0.00    -0.184 NA
HETATM   11  C   UNL     1     -41.992  55.680 -55.900  1.00  0.00     0.150 C 
BRANCH  11  12
HETATM   12  C   UNL     1     -42.747  56.318 -56.997  1.00  0.00    -0.013 A 
HETATM   13  C   UNL     1     -43.302  55.493 -57.979  1.00  0.00     0.035 A 
HETATM   14  C   UNL     1     -44.011  56.068 -59.031  1.00  0.00     0.047 A 
HETATM   15 BR   UNL     1     -44.742  54.937 -60.365  1.00  0.00    -0.048 Br
HETATM   16  C   UNL     1     -44.178  57.454 -59.094  1.00  0.00     0.116 A 
HETATM   17  C   UNL     1     -43.633  58.286 -58.104  1.00  0.00     0.103 A 
HETATM   18  C   UNL     1     -42.911  57.709 -57.054  1.00  0.00     0.052 A 
BRANCH  16  19
HETATM   19  O   UNL     1     -44.874  58.033 -60.126  1.00  0.00    -0.357 OA
HETATM   20  H   UNL     1     -44.718  58.994 -60.098  1.00  0.00     0.218 HD
ENDBRANCH  16  19
BRANCH  17  21
HETATM   21  O   UNL     1     -43.862  59.628 -58.256  1.00  0.00    -0.353 OA
HETATM   22  C   UNL     1     -43.071  60.529 -57.494  1.00  0.00     0.210 C 
ENDBRANCH  17  21
ENDBRANCH  11  12
ENDBRANCH   7  10
ENDBRANCH   5   6
BRANCH   1  23
HETATM   23  C   UNL     1     -41.594  55.736 -50.622  1.00  0.00     0.297 C 
BRANCH  23  24
HETATM   24  N   UNL     1     -41.974  56.695 -51.742  1.00  0.00    -0.066 N 
HETATM   25  H   UNL     1     -41.858  56.158 -52.610  1.00  0.00     0.280 HD
BRANCH  24  26
HETATM   26  C   UNL     1     -41.073  57.909 -51.891  1.00  0.00     0.231 C 
HETATM   27  C   UNL     1     -40.928  58.675 -50.589  1.00  0.00     0.034 C 
ENDBRANCH  24  26
BRANCH  24  28
HETATM   28  C   UNL     1     -43.433  57.118 -51.701  1.00  0.00     0.231 C 
HETATM   29  C   UNL     1     -44.002  57.267 -53.101  1.00  0.00     0.034 C 
ENDBRANCH  24  28
ENDBRANCH  23  24
ENDBRANCH   1  23
BRANCH   4  30
HETATM   30  C   UNL     1     -39.894  51.483 -52.669  1.00  0.00     0.225 A 
HETATM   31  N   UNL     1     -39.990  51.547 -53.998  1.00  0.00    -0.081 NA
HETATM   32  O   UNL     1     -39.727  50.240 -54.414  1.00  0.00    -0.103 OA
HETATM   33  N   UNL     1     -39.484  49.406 -53.330  1.00  0.00    -0.083 NA
HETATM   34  C   UNL     1     -39.589  50.177 -52.249  1.00  0.00     0.201 A 
BRANCH  34  35
HETATM   35  N   UNL     1     -39.429  49.740 -50.989  1.00  0.00    -0.379 N 
HETATM   36  H   UNL     1     -40.228  49.725 -50.360  1.00  0.00     0.158 HD
HETATM   37  H   UNL     1     -38.525  49.674 -50.528  1.00  0.00     0.158 HD
ENDBRANCH  34  35
ENDBRANCH   4  30
TORSDOF 11
ENDMDL
MODEL 7
REMARK VINA RESULT:      -7.2      3.726      8.634
REMARK  11 active torsions:
REMARK  status: ('A' for Active; 'I' for Inactive)
REMARK    1  A    between atoms: C_2  and  N_3 
REMARK    2  A    between atoms: N_3  and  C_5 
REMARK    3  A    between atoms: N_3  and  C_32 
REMARK    4  A    between atoms: C_5  and  C_6 
REMARK    5  A    between atoms: N_9  and  C_10 
REMARK    6  A    between atoms: C_14  and  N_15 
REMARK    7  A    between atoms: C_16  and  C_17 
REMARK       I    between atoms: C_17  and  N_18 
REMARK    8  A    between atoms: N_18  and  N_19 
REMARK    9  A    between atoms: C_20  and  C_21 
REMARK   10  A    between atoms: C_25  and  O_26 
REMARK   11  A    between atoms: C_27  and  O_28 
ROOT
HETATM    1  C   UNL     1     -41.123  54.674 -51.370  1.00  0.00     0.112 A 
HETATM    2  N   UNL     1     -40.577  55.289 -50.288  1.00  0.00    -0.160 NA
HETATM    3  N   UNL     1     -40.698  56.595 -50.449  1.00  0.00     0.012 NA
HETATM    4  N   UNL     1     -41.322  56.852 -51.639  1.00  0.00    -0.207 N 
HETATM    5  C   UNL     1     -41.637  55.634 -52.224  1.00  0.00     0.153 A 
ENDROOT
BRANCH   5   6
HETATM    6  C   UNL     1     -42.239  55.384 -53.498  1.00  0.00     0.292 C 
HETATM    7  N   UNL     1     -41.474  55.783 -54.587  1.00  0.00    -0.242 N 
HETATM    8  H   UNL     1     -40.643  56.344 -54.429  1.00  0.00     0.192 HD
HETATM    9  O   UNL     1     -43.412  55.027 -53.557  1.00  0.00    -0.264 OA
BRANCH   7  10
HETATM   10  N   UNL     1     -42.014  55.960 -55.838  1.00  0.00    -0.184 NA
HETATM   11  C   UNL     1     -42.416  57.164 -56.114  1.00  0.00     0.150 C 
BRANCH  11  12
HETATM   12  C   UNL     1     -42.975  57.528 -57.431  1.00  0.00    -0.013 A 
HETATM   13  C   UNL     1     -43.333  58.862 -57.647  1.00  0.00     0.035 A 
HETATM   14  C   UNL     1     -43.871  59.232 -58.877  1.00  0.00     0.047 A 
HETATM   15 BR   UNL     1     -44.369  61.041 -59.147  1.00  0.00    -0.048 Br
HETATM   16  C   UNL     1     -44.039  58.282 -59.888  1.00  0.00     0.116 A 
HETATM   17  C   UNL     1     -43.669  56.944 -59.680  1.00  0.00     0.103 A 
HETATM   18  C   UNL     1     -43.139  56.570 -58.442  1.00  0.00     0.052 A 
BRANCH  16  19
HETATM   19  O   UNL     1     -44.569  58.634 -61.104  1.00  0.00    -0.357 OA
HETATM   20  H   UNL     1     -43.837  58.882 -61.696  1.00  0.00     0.218 HD
ENDBRANCH  16  19
BRANCH  17  21
HETATM   21  O   UNL     1     -43.866  56.097 -60.738  1.00  0.00    -0.353 OA
HETATM   22  C   UNL     1     -44.694  54.961 -60.538  1.00  0.00     0.210 C 
ENDBRANCH  17  21
ENDBRANCH  11  12
ENDBRANCH   7  10
ENDBRANCH   5   6
BRANCH   1  23
HETATM   23  C   UNL     1     -41.159  53.191 -51.535  1.00  0.00     0.297 C 
BRANCH  23  24
HETATM   24  N   UNL     1     -40.090  52.519 -52.386  1.00  0.00    -0.066 N 
HETATM   25  H   UNL     1     -39.336  53.211 -52.471  1.00  0.00     0.280 HD
BRANCH  24  26
HETATM   26  C   UNL     1     -40.505  52.193 -53.810  1.00  0.00     0.231 C 
HETATM   27  C   UNL     1     -40.040  50.812 -54.238  1.00  0.00     0.034 C 
ENDBRANCH  24  26
BRANCH  24  28
HETATM   28  C   UNL     1     -39.472  51.301 -51.720  1.00  0.00     0.231 C 
HETATM   29  C   UNL     1     -40.178  50.969 -50.417  1.00  0.00     0.034 C 
ENDBRANCH  24  28
ENDBRANCH  23  24
ENDBRANCH   1  23
BRANCH   4  30
HETATM   30  C   UNL     1     -41.540  58.160 -52.120  1.00  0.00     0.225 A 
HETATM   31  N   UNL     1     -40.774  58.651 -53.095  1.00  0.00    -0.081 NA
HETATM   32  O   UNL     1     -41.282  59.936 -53.303  1.00  0.00    -0.103 OA
HETATM   33  N   UNL     1     -42.342  60.202 -52.445  1.00  0.00    -0.083 NA
HETATM   34  C   UNL     1     -42.500  59.102 -51.711  1.00  0.00     0.201 A 
BRANCH  34  35
HETATM   35  N   UNL     1     -43.429  58.959 -50.751  1.00  0.00    -0.379 N 
HETATM   36  H   UNL     1     -44.398  59.191 -50.955  1.00  0.00     0.158 HD
HETATM   37  H   UNL     1     -43.207  58.895 -49.760  1.00  0.00     0.158 HD
ENDBRANCH  34  35
ENDBRANCH   4  30
TORSDOF 11
ENDMDL
MODEL 8
REMARK VINA RESULT:      -7.1      2.132      5.008
REMARK  11 active torsions:
REMARK  status: ('A' for Active; 'I' for Inactive)
REMARK    1  A    between atoms: C_2  and  N_3 
REMARK    2  A    between atoms: N_3  and  C_5 
REMARK    3  A    between atoms: N_3  and  C_32 
REMARK    4  A    between atoms: C_5  and  C_6 
REMARK    5  A    between atoms: N_9  and  C_10 
REMARK    6  A    between atoms: C_14  and  N_15 
REMARK    7  A    between atoms: C_16  and  C_17 
REMARK       I    between atoms: C_17  and  N_18 
REMARK    8  A    between atoms: N_18  and  N_19 
REMARK    9  A    between atoms: C_20  and  C_21 
REMARK   10  A    between atoms: C_25  and  O_26 
REMARK   11  A    between atoms: C_27  and  O_28 
ROOT
HETATM    1  C   UNL     1     -45.103  58.203 -57.765  1.00  0.00     0.112 A 
HETATM    2  N   UNL     1     -45.664  59.421 -57.540  1.00  0.00    -0.160 NA
HETATM    3  N   UNL     1     -45.046  59.977 -56.513  1.00  0.00     0.012 NA
HETATM    4  N   UNL     1     -44.077  59.130 -56.050  1.00  0.00    -0.207 N 
HETATM    5  C   UNL     1     -44.073  58.007 -56.864  1.00  0.00     0.153 A 
ENDROOT
BRANCH   5   6
HETATM    6  C   UNL     1     -43.281  56.820 -56.744  1.00  0.00     0.292 C 
HETATM    7  N   UNL     1     -43.771  55.887 -55.839  1.00  0.00    -0.242 N 
HETATM    8  H   UNL     1     -44.537  56.147 -55.226  1.00  0.00     0.192 HD
HETATM    9  O   UNL     1     -42.174  56.771 -57.272  1.00  0.00    -0.264 OA
BRANCH   7  10
HETATM   10  N   UNL     1     -42.989  54.880 -55.326  1.00  0.00    -0.184 NA
HETATM   11  C   UNL     1     -42.403  55.140 -54.197  1.00  0.00     0.150 C 
BRANCH  11  12
HETATM   12  C   UNL     1     -41.568  54.147 -53.492  1.00  0.00    -0.013 A 
HETATM   13  C   UNL     1     -41.402  54.289 -52.112  1.00  0.00     0.035 A 
HETATM   14  C   UNL     1     -40.612  53.372 -51.423  1.00  0.00     0.047 A 
HETATM   15 BR   UNL     1     -40.382  53.589 -49.554  1.00  0.00    -0.048 Br
HETATM   16  C   UNL     1     -40.003  52.314 -52.104  1.00  0.00     0.116 A 
HETATM   17  C   UNL     1     -40.177  52.160 -53.488  1.00  0.00     0.103 A 
HETATM   18  C   UNL     1     -40.962  53.087 -54.181  1.00  0.00     0.052 A 
BRANCH  16  19
HETATM   19  O   UNL     1     -39.222  51.404 -51.436  1.00  0.00    -0.357 OA
HETATM   20  H   UNL     1     -39.548  50.511 -51.644  1.00  0.00     0.218 HD
ENDBRANCH  16  19
BRANCH  17  21
HETATM   21  O   UNL     1     -39.546  51.085 -54.056  1.00  0.00    -0.353 OA
HETATM   22  C   UNL     1     -40.339  49.971 -54.438  1.00  0.00     0.210 C 
ENDBRANCH  17  21
ENDBRANCH  11  12
ENDBRANCH   7  10
ENDBRANCH   5   6
BRANCH   1  23
HETATM   23  C   UNL     1     -45.556  57.284 -58.851  1.00  0.00     0.297 C 
BRANCH  23  24
HETATM   24  N   UNL     1     -44.804  57.284 -60.175  1.00  0.00    -0.066 N 
HETATM   25  H   UNL     1     -45.530  57.358 -60.899  1.00  0.00     0.280 HD
BRANCH  24  26
HETATM   26  C   UNL     1     -44.045  56.006 -60.491  1.00  0.00     0.231 C 
HETATM   27  C   UNL     1     -44.508  54.842 -59.634  1.00  0.00     0.034 C 
ENDBRANCH  24  26
BRANCH  24  28
HETATM   28  C   UNL     1     -43.905  58.495 -60.356  1.00  0.00     0.231 C 
HETATM   29  C   UNL     1     -42.446  58.086 -60.459  1.00  0.00     0.034 C 
ENDBRANCH  24  28
ENDBRANCH  23  24
ENDBRANCH   1  23
BRANCH   4  30
HETATM   30  C   UNL     1     -43.286  59.420 -54.918  1.00  0.00     0.225 A 
HETATM   31  N   UNL     1     -43.137  58.510 -53.955  1.00  0.00    -0.081 NA
HETATM   32  O   UNL     1     -42.302  59.138 -53.028  1.00  0.00    -0.103 OA
HETATM   33  N   UNL     1     -41.967  60.421 -53.443  1.00  0.00    -0.083 NA
HETATM   34  C   UNL     1     -42.578  60.595 -54.613  1.00  0.00     0.201 A 
BRANCH  34  35
HETATM   35  N   UNL     1     -42.509  61.720 -55.344  1.00  0.00    -0.379 N 
HETATM   36  H   UNL     1     -41.599  62.128 -55.548  1.00  0.00     0.158 HD
HETATM   37  H   UNL     1     -43.297  62.347 -55.486  1.00  0.00     0.158 HD
ENDBRANCH  34  35
ENDBRANCH   4  30
TORSDOF 11
ENDMDL
MODEL 9
REMARK VINA RESULT:      -7.0      3.503      8.582
REMARK  11 active torsions:
REMARK  status: ('A' for Active; 'I' for Inactive)
REMARK    1  A    between atoms: C_2  and  N_3 
REMARK    2  A    between atoms: N_3  and  C_5 
REMARK    3  A    between atoms: N_3  and  C_32 
REMARK    4  A    between atoms: C_5  and  C_6 
REMARK    5  A    between atoms: N_9  and  C_10 
REMARK    6  A    between atoms: C_14  and  N_15 
REMARK    7  A    between atoms: C_16  and  C_17 
REMARK       I    between atoms: C_17  and  N_18 
REMARK    8  A    between atoms: N_18  and  N_19 
REMARK    9  A    between atoms: C_20  and  C_21 
REMARK   10  A    between atoms: C_25  and  O_26 
REMARK   11  A    between atoms: C_27  and  O_28 
ROOT
HETATM    1  C   UNL     1     -41.148  54.607 -51.279  1.00  0.00     0.112 A 
HETATM    2  N   UNL     1     -40.575  55.205 -50.201  1.00  0.00    -0.160 NA
HETATM    3  N   UNL     1     -40.573  56.510 -50.405  1.00  0.00     0.012 NA
HETATM    4  N   UNL     1     -41.140  56.783 -51.619  1.00  0.00    -0.207 N 
HETATM    5  C   UNL     1     -41.550  55.581 -52.176  1.00  0.00     0.153 A 
ENDROOT
BRANCH   5   6
HETATM    6  C   UNL     1     -42.139  55.345 -53.458  1.00  0.00     0.292 C 
HETATM    7  N   UNL     1     -41.338  55.697 -54.537  1.00  0.00    -0.242 N 
HETATM    8  H   UNL     1     -40.485  56.222 -54.369  1.00  0.00     0.192 HD
HETATM    9  O   UNL     1     -43.326  55.040 -53.536  1.00  0.00    -0.264 OA
BRANCH   7  10
HETATM   10  N   UNL     1     -41.847  55.886 -55.799  1.00  0.00    -0.184 NA
HETATM   11  C   UNL     1     -42.354  57.058 -56.034  1.00  0.00     0.150 C 
BRANCH  11  12
HETATM   12  C   UNL     1     -42.897  57.434 -57.355  1.00  0.00    -0.013 A 
HETATM   13  C   UNL     1     -43.499  56.436 -58.126  1.00  0.00     0.035 A 
HETATM   14  C   UNL     1     -44.011  56.759 -59.380  1.00  0.00     0.047 A 
HETATM   15 BR   UNL     1     -44.809  55.390 -60.421  1.00  0.00    -0.048 Br
HETATM   16  C   UNL     1     -43.936  58.071 -59.855  1.00  0.00     0.116 A 
HETATM   17  C   UNL     1     -43.343  59.080 -59.079  1.00  0.00     0.103 A 
HETATM   18  C   UNL     1     -42.819  58.752 -57.825  1.00  0.00     0.052 A 
BRANCH  16  19
HETATM   19  O   UNL     1     -44.436  58.403 -61.090  1.00  0.00    -0.357 OA
HETATM   20  H   UNL     1     -44.023  57.821 -61.752  1.00  0.00     0.218 HD
ENDBRANCH  16  19
BRANCH  17  21
HETATM   21  O   UNL     1     -43.329  60.332 -59.634  1.00  0.00    -0.353 OA
HETATM   22  C   UNL     1     -42.073  60.885 -59.997  1.00  0.00     0.210 C 
ENDBRANCH  17  21
ENDBRANCH  11  12
ENDBRANCH   7  10
ENDBRANCH   5   6
BRANCH   1  23
HETATM   23  C   UNL     1     -41.315  53.129 -51.400  1.00  0.00     0.297 C 
BRANCH  23  24
HETATM   24  N   UNL     1     -40.085  52.237 -51.290  1.00  0.00    -0.066 N 
HETATM   25  H   UNL     1     -39.329  52.856 -50.972  1.00  0.00     0.280 HD
BRANCH  24  26
HETATM   26  C   UNL     1     -39.597  51.640 -52.599  1.00  0.00     0.231 C 
HETATM   27  C   UNL     1     -40.422  52.110 -53.783  1.00  0.00     0.034 C 
ENDBRANCH  24  26
BRANCH  24  28
HETATM   28  C   UNL     1     -40.220  51.157 -50.230  1.00  0.00     0.231 C 
HETATM   29  C   UNL     1     -39.745  49.813 -50.752  1.00  0.00     0.034 C 
ENDBRANCH  24  28
ENDBRANCH  23  24
ENDBRANCH   1  23
BRANCH   4  30
HETATM   30  C   UNL     1     -41.226  58.090 -52.146  1.00  0.00     0.225 A 
HETATM   31  N   UNL     1     -40.533  58.419 -53.237  1.00  0.00    -0.081 NA
HETATM   32  O   UNL     1     -40.869  59.756 -53.455  1.00  0.00    -0.103 OA
HETATM   33  N   UNL     1     -41.755  60.216 -52.488  1.00  0.00    -0.083 NA
HETATM   34  C   UNL     1     -41.974  59.183 -51.676  1.00  0.00     0.201 A 
BRANCH  34  35
HETATM   35  N   UNL     1     -42.776  59.223 -50.599  1.00  0.00    -0.379 N 
HETATM   36  H   UNL     1     -42.621  58.568 -49.836  1.00  0.00     0.158 HD
HETATM   37  H   UNL     1     -43.689  59.670 -50.596  1.00  0.00     0.158 HD
ENDBRANCH  34  35
ENDBRANCH   4  30
TORSDOF 11
ENDMDL
MODEL 10
REMARK VINA RESULT:      -6.6      2.269      4.745
REMARK  11 active torsions:
REMARK  status: ('A' for Active; 'I' for Inactive)
REMARK    1  A    between atoms: C_2  and  N_3 
REMARK    2  A    between atoms: N_3  and  C_5 
REMARK    3  A    between atoms: N_3  and  C_32 
REMARK    4  A    between atoms: C_5  and  C_6 
REMARK    5  A    between atoms: N_9  and  C_10 
REMARK    6  A    between atoms: C_14  and  N_15 
REMARK    7  A    between atoms: C_16  and  C_17 
REMARK       I    between atoms: C_17  and  N_18 
REMARK    8  A    between atoms: N_18  and  N_19 
REMARK    9  A    between atoms: C_20  and  C_21 
REMARK   10  A    between atoms: C_25  and  O_26 
REMARK   11  A    between atoms: C_27  and  O_28 
ROOT
HETATM    1  C   UNL     1     -43.944  59.395 -56.337  1.00  0.00     0.112 A 
HETATM    2  N   UNL     1     -45.020  60.218 -56.452  1.00  0.00    -0.160 NA
HETATM    3  N   UNL     1     -45.573  60.343 -55.259  1.00  0.00     0.012 NA
HETATM    4  N   UNL     1     -44.871  59.602 -54.350  1.00  0.00    -0.207 N 
HETATM    5  C   UNL     1     -43.802  59.019 -55.013  1.00  0.00     0.153 A 
ENDROOT
BRANCH   5   6
HETATM    6  C   UNL     1     -42.821  58.110 -54.503  1.00  0.00     0.292 C 
HETATM    7  N   UNL     1     -43.274  56.808 -54.333  1.00  0.00    -0.242 N 
HETATM    8  H   UNL     1     -44.266  56.613 -54.424  1.00  0.00     0.192 HD
HETATM    9  O   UNL     1     -41.750  58.541 -54.086  1.00  0.00    -0.264 OA
BRANCH   7  10
HETATM   10  N   UNL     1     -42.618  55.900 -53.536  1.00  0.00    -0.184 NA
HETATM   11  C   UNL     1     -42.118  54.870 -54.148  1.00  0.00     0.150 C 
BRANCH  11  12
HETATM   12  C   UNL     1     -41.343  53.830 -53.440  1.00  0.00    -0.013 A 
HETATM   13  C   UNL     1     -40.995  52.676 -54.147  1.00  0.00     0.035 A 
HETATM   14  C   UNL     1     -40.273  51.674 -53.503  1.00  0.00     0.047 A 
HETATM   15 BR   UNL     1     -39.824  50.107 -54.470  1.00  0.00    -0.048 Br
HETATM   16  C   UNL     1     -39.890  51.829 -52.167  1.00  0.00     0.116 A 
HETATM   17  C   UNL     1     -40.228  52.992 -51.457  1.00  0.00     0.103 A 
HETATM   18  C   UNL     1     -40.962  53.992 -52.101  1.00  0.00     0.052 A 
BRANCH  16  19
HETATM   19  O   UNL     1     -39.180  50.849 -51.521  1.00  0.00    -0.357 OA
HETATM   20  H   UNL     1     -38.567  50.444 -52.160  1.00  0.00     0.218 HD
ENDBRANCH  16  19
BRANCH  17  21
HETATM   21  O   UNL     1     -39.796  53.046 -50.158  1.00  0.00    -0.353 OA
HETATM   22  C   UNL     1     -39.727  54.319 -49.532  1.00  0.00     0.210 C 
ENDBRANCH  17  21
ENDBRANCH  11  12
ENDBRANCH   7  10
ENDBRANCH   5   6
BRANCH   1  23
HETATM   23  C   UNL     1     -43.076  59.019 -57.492  1.00  0.00     0.297 C 
BRANCH  23  24
HETATM   24  N   UNL     1     -43.506  57.869 -58.393  1.00  0.00    -0.066 N 
HETATM   25  H   UNL     1     -43.063  58.055 -59.301  1.00  0.00     0.280 HD
BRANCH  24  26
HETATM   26  C   UNL     1     -44.996  57.789 -58.677  1.00  0.00     0.231 C 
HETATM   27  C   UNL     1     -45.358  58.425 -60.007  1.00  0.00     0.034 C 
ENDBRANCH  24  26
BRANCH  24  28
HETATM   28  C   UNL     1     -42.979  56.519 -57.935  1.00  0.00     0.231 C 
HETATM   29  C   UNL     1     -43.509  55.397 -58.810  1.00  0.00     0.034 C 
ENDBRANCH  24  28
ENDBRANCH  23  24
ENDBRANCH   1  23
BRANCH   4  30
HETATM   30  C   UNL     1     -45.256  59.487 -52.997  1.00  0.00     0.225 A 
HETATM   31  N   UNL     1     -44.664  58.590 -52.207  1.00  0.00    -0.081 NA
HETATM   32  O   UNL     1     -45.288  58.772 -50.971  1.00  0.00    -0.103 OA
HETATM   33  N   UNL     1     -46.252  59.770 -51.036  1.00  0.00    -0.083 NA
HETATM   34  C   UNL     1     -46.233  60.211 -52.292  1.00  0.00     0.201 A 
BRANCH  34  35
HETATM   35  N   UNL     1     -47.031  61.183 -52.766  1.00  0.00    -0.379 N 
HETATM   36  H   UNL     1     -46.620  62.060 -53.075  1.00  0.00     0.158 HD
HETATM   37  H   UNL     1     -48.032  61.220 -52.595  1.00  0.00     0.158 HD
ENDBRANCH  34  35
ENDBRANCH   4  30
TORSDOF 11
ENDMDL
