MODEL 1
REMARK VINA RESULT:      -7.8      0.000      0.000
REMARK  8 active torsions:
REMARK  status: ('A' for Active; 'I' for Inactive)
REMARK    1  A    between atoms: C_7  and  N_8 
REMARK    2  A    between atoms: N_8  and  C_9 
REMARK    3  A    between atoms: C_9  and  C_10 
REMARK    4  A    between atoms: C_18  and  N_19 
REMARK    5  A    between atoms: N_19  and  C_20 
REMARK    6  A    between atoms: C_20  and  C_21 
REMARK    7  A    between atoms: C_21  and  C_22 
REMARK    8  A    between atoms: C_22  and  O_23 
ROOT
HETATM    1  C   UNL     1     -39.364  51.515 -52.271  1.00  0.00     0.001 A 
HETATM    2  C   UNL     1     -39.959  52.731 -51.929  1.00  0.00     0.017 A 
HETATM    3  C   UNL     1     -40.853  53.382 -52.812  1.00  0.00     0.036 A 
HETATM    4  C   UNL     1     -41.139  52.746 -54.038  1.00  0.00     0.048 A 
HETATM    5  N   UNL     1     -42.017  53.313 -54.869  1.00  0.00    -0.330 N 
HETATM    6  H   UNL     1     -42.239  52.916 -55.773  1.00  0.00     0.168 HD
HETATM    7  C   UNL     1     -42.633  54.443 -54.549  1.00  0.00     0.182 A 
HETATM    8  N   UNL     1     -42.389  55.134 -53.431  1.00  0.00    -0.202 NA
HETATM    9  C   UNL     1     -41.497  54.618 -52.564  1.00  0.00     0.139 A 
HETATM   10  C   UNL     1     -40.532  51.529 -54.381  1.00  0.00     0.030 A 
HETATM   11  C   UNL     1     -39.645  50.917 -53.496  1.00  0.00     0.002 A 
ENDROOT
BRANCH   7  12
HETATM   12  N   UNL     1     -43.567  54.939 -55.454  1.00  0.00    -0.258 NA
HETATM   13  H   UNL     1     -43.285  54.535 -56.354  1.00  0.00     0.130 HD
BRANCH  12  14
HETATM   14  C   UNL     1     -43.431  56.394 -55.580  1.00  0.00     0.134 C 
BRANCH  14  15
HETATM   15  C   UNL     1     -43.005  56.738 -56.985  1.00  0.00    -0.045 A 
HETATM   16  C   UNL     1     -43.144  55.809 -58.028  1.00  0.00     0.011 A 
HETATM   17  C   UNL     1     -42.747  56.141 -59.325  1.00  0.00     0.043 A 
HETATM   18  C   UNL     1     -42.204  57.394 -59.579  1.00  0.00     0.116 A 
HETATM   19  F   UNL     1     -41.827  57.710 -60.823  1.00  0.00    -0.206 F 
HETATM   20  C   UNL     1     -42.044  58.323 -58.559  1.00  0.00     0.043 A 
HETATM   21  C   UNL     1     -42.442  57.997 -57.261  1.00  0.00     0.011 A 
ENDBRANCH  14  15
ENDBRANCH  12  14
ENDBRANCH   7  12
BRANCH   9  22
HETATM   22  N   UNL     1     -41.276  55.281 -51.356  1.00  0.00    -0.374 N 
HETATM   23  H   UNL     1     -41.253  56.293 -51.462  1.00  0.00     0.161 HD
BRANCH  22  24
HETATM   24  C   UNL     1     -41.998  54.875 -50.150  1.00  0.00     0.123 C 
BRANCH  24  25
HETATM   25  C   UNL     1     -41.172  55.095 -48.884  1.00  0.00     0.045 C 
BRANCH  25  26
HETATM   26  C   UNL     1     -40.429  53.850 -48.424  1.00  0.00     0.165 C 
BRANCH  26  27
HETATM   27  O   UNL     1     -40.567  53.698 -47.018  1.00  0.00    -0.401 OA
HETATM   28  H   UNL     1     -40.148  52.859 -46.757  1.00  0.00     0.209 HD
ENDBRANCH  26  27
ENDBRANCH  25  26
ENDBRANCH  24  25
ENDBRANCH  22  24
ENDBRANCH   9  22
TORSDOF 8
ENDMDL
MODEL 2
REMARK VINA RESULT:      -7.6      3.701      7.087
REMARK  8 active torsions:
REMARK  status: ('A' for Active; 'I' for Inactive)
REMARK    1  A    between atoms: C_7  and  N_8 
REMARK    2  A    between atoms: N_8  and  C_9 
REMARK    3  A    between atoms: C_9  and  C_10 
REMARK    4  A    between atoms: C_18  and  N_19 
REMARK    5  A    between atoms: N_19  and  C_20 
REMARK    6  A    between atoms: C_20  and  C_21 
REMARK    7  A    between atoms: C_21  and  C_22 
REMARK    8  A    between atoms: C_22  and  O_23 
ROOT
HETATM    1  C   UNL     1     -41.955  59.742 -51.484  1.00  0.00     0.001 A 
HETATM    2  C   UNL     1     -42.668  58.659 -52.004  1.00  0.00     0.017 A 
HETATM    3  C   UNL     1     -42.312  57.328 -51.685  1.00  0.00     0.036 A 
HETATM    4  C   UNL     1     -41.227  57.134 -50.805  1.00  0.00     0.048 A 
HETATM    5  N   UNL     1     -40.901  55.890 -50.447  1.00  0.00    -0.330 N 
HETATM    6  H   UNL     1     -40.115  55.691 -49.841  1.00  0.00     0.168 HD
HETATM    7  C   UNL     1     -41.591  54.846 -50.888  1.00  0.00     0.182 A 
HETATM    8  N   UNL     1     -42.602  54.935 -51.757  1.00  0.00    -0.202 NA
HETATM    9  C   UNL     1     -42.963  56.166 -52.167  1.00  0.00     0.139 A 
HETATM   10  C   UNL     1     -40.508  58.224 -50.292  1.00  0.00     0.030 A 
HETATM   11  C   UNL     1     -40.874  59.525 -50.634  1.00  0.00     0.002 A 
ENDROOT
BRANCH   7  12
HETATM   12  N   UNL     1     -41.209  53.589 -50.428  1.00  0.00    -0.258 NA
HETATM   13  H   UNL     1     -41.186  53.690 -49.408  1.00  0.00     0.130 HD
BRANCH  12  14
HETATM   14  C   UNL     1     -39.840  53.283 -50.857  1.00  0.00     0.134 C 
BRANCH  14  15
HETATM   15  C   UNL     1     -39.878  52.261 -51.964  1.00  0.00    -0.045 A 
HETATM   16  C   UNL     1     -40.260  52.623 -53.266  1.00  0.00     0.011 A 
HETATM   17  C   UNL     1     -40.289  51.666 -54.283  1.00  0.00     0.043 A 
HETATM   18  C   UNL     1     -39.948  50.349 -53.999  1.00  0.00     0.116 A 
HETATM   19  F   UNL     1     -39.974  49.436 -54.976  1.00  0.00    -0.206 F 
HETATM   20  C   UNL     1     -39.582  49.968 -52.715  1.00  0.00     0.043 A 
HETATM   21  C   UNL     1     -39.549  50.920 -51.696  1.00  0.00     0.011 A 
ENDBRANCH  14  15
ENDBRANCH  12  14
ENDBRANCH   7  12
BRANCH   9  22
HETATM   22  N   UNL     1     -44.060  56.295 -53.019  1.00  0.00    -0.374 N 
HETATM   23  H   UNL     1     -44.696  57.037 -52.732  1.00  0.00     0.161 HD
BRANCH  22  24
HETATM   24  C   UNL     1     -43.874  56.269 -54.470  1.00  0.00     0.123 C 
BRANCH  24  25
HETATM   25  C   UNL     1     -43.462  54.888 -54.973  1.00  0.00     0.045 C 
BRANCH  25  26
HETATM   26  C   UNL     1     -42.108  54.876 -55.668  1.00  0.00     0.165 C 
BRANCH  26  27
HETATM   27  O   UNL     1     -41.868  56.136 -56.278  1.00  0.00    -0.401 OA
HETATM   28  H   UNL     1     -40.907  56.291 -56.296  1.00  0.00     0.209 HD
ENDBRANCH  26  27
ENDBRANCH  25  26
ENDBRANCH  24  25
ENDBRANCH  22  24
ENDBRANCH   9  22
TORSDOF 8
ENDMDL
MODEL 3
REMARK VINA RESULT:      -7.5      3.200      5.661
REMARK  8 active torsions:
REMARK  status: ('A' for Active; 'I' for Inactive)
REMARK    1  A    between atoms: C_7  and  N_8 
REMARK    2  A    between atoms: N_8  and  C_9 
REMARK    3  A    between atoms: C_9  and  C_10 
REMARK    4  A    between atoms: C_18  and  N_19 
REMARK    5  A    between atoms: N_19  and  C_20 
REMARK    6  A    between atoms: C_20  and  C_21 
REMARK    7  A    between atoms: C_21  and  C_22 
REMARK    8  A    between atoms: C_22  and  O_23 
ROOT
HETATM    1  C   UNL     1     -39.781  49.826 -54.006  1.00  0.00     0.001 A 
HETATM    2  C   UNL     1     -40.191  51.130 -54.292  1.00  0.00     0.017 A 
HETATM    3  C   UNL     1     -40.298  52.104 -53.271  1.00  0.00     0.036 A 
HETATM    4  C   UNL     1     -39.953  51.716 -51.960  1.00  0.00     0.048 A 
HETATM    5  N   UNL     1     -39.997  52.627 -50.985  1.00  0.00    -0.330 N 
HETATM    6  H   UNL     1     -39.788  52.398 -50.022  1.00  0.00     0.168 HD
HETATM    7  C   UNL     1     -40.336  53.884 -51.236  1.00  0.00     0.182 A 
HETATM    8  N   UNL     1     -40.720  54.327 -52.438  1.00  0.00    -0.202 NA
HETATM    9  C   UNL     1     -40.712  53.445 -53.456  1.00  0.00     0.139 A 
HETATM   10  C   UNL     1     -39.552  50.402 -51.675  1.00  0.00     0.030 A 
HETATM   11  C   UNL     1     -39.467  49.461 -52.701  1.00  0.00     0.002 A 
ENDROOT
BRANCH   7  12
HETATM   12  N   UNL     1     -40.311  54.778 -50.169  1.00  0.00    -0.258 NA
HETATM   13  H   UNL     1     -40.045  54.202 -49.364  1.00  0.00     0.130 HD
BRANCH  12  14
HETATM   14  C   UNL     1     -41.660  55.288 -49.900  1.00  0.00     0.134 C 
BRANCH  14  15
HETATM   15  C   UNL     1     -41.816  56.649 -50.528  1.00  0.00    -0.045 A 
HETATM   16  C   UNL     1     -40.771  57.586 -50.488  1.00  0.00     0.011 A 
HETATM   17  C   UNL     1     -40.929  58.843 -51.076  1.00  0.00     0.043 A 
HETATM   18  C   UNL     1     -42.131  59.168 -51.693  1.00  0.00     0.116 A 
HETATM   19  F   UNL     1     -42.277  60.372 -52.257  1.00  0.00    -0.206 F 
HETATM   20  C   UNL     1     -43.182  58.261 -51.730  1.00  0.00     0.043 A 
HETATM   21  C   UNL     1     -43.029  57.003 -51.147  1.00  0.00     0.011 A 
ENDBRANCH  14  15
ENDBRANCH  12  14
ENDBRANCH   7  12
BRANCH   9  22
HETATM   22  N   UNL     1     -41.039  53.895 -54.735  1.00  0.00    -0.374 N 
HETATM   23  H   UNL     1     -40.486  53.446 -55.463  1.00  0.00     0.161 HD
BRANCH  22  24
HETATM   24  C   UNL     1     -42.441  54.042 -55.129  1.00  0.00     0.123 C 
BRANCH  24  25
HETATM   25  C   UNL     1     -42.972  55.446 -54.851  1.00  0.00     0.045 C 
BRANCH  25  26
HETATM   26  C   UNL     1     -41.995  56.549 -55.230  1.00  0.00     0.165 C 
BRANCH  26  27
HETATM   27  O   UNL     1     -41.112  56.805 -54.147  1.00  0.00    -0.401 OA
HETATM   28  H   UNL     1     -41.441  57.578 -53.657  1.00  0.00     0.209 HD
ENDBRANCH  26  27
ENDBRANCH  25  26
ENDBRANCH  24  25
ENDBRANCH  22  24
ENDBRANCH   9  22
TORSDOF 8
ENDMDL
MODEL 4
REMARK VINA RESULT:      -7.5      2.016      2.509
REMARK  8 active torsions:
REMARK  status: ('A' for Active; 'I' for Inactive)
REMARK    1  A    between atoms: C_7  and  N_8 
REMARK    2  A    between atoms: N_8  and  C_9 
REMARK    3  A    between atoms: C_9  and  C_10 
REMARK    4  A    between atoms: C_18  and  N_19 
REMARK    5  A    between atoms: N_19  and  C_20 
REMARK    6  A    between atoms: C_20  and  C_21 
REMARK    7  A    between atoms: C_21  and  C_22 
REMARK    8  A    between atoms: C_22  and  O_23 
ROOT
HETATM    1  C   UNL     1     -39.760  52.146 -51.391  1.00  0.00     0.001 A 
HETATM    2  C   UNL     1     -40.658  53.214 -51.321  1.00  0.00     0.017 A 
HETATM    3  C   UNL     1     -41.309  53.700 -52.479  1.00  0.00     0.036 A 
HETATM    4  C   UNL     1     -41.035  53.052 -53.702  1.00  0.00     0.048 A 
HETATM    5  N   UNL     1     -41.673  53.457 -54.803  1.00  0.00    -0.330 N 
HETATM    6  H   UNL     1     -41.495  53.048 -55.712  1.00  0.00     0.168 HD
HETATM    7  C   UNL     1     -42.565  54.437 -54.758  1.00  0.00     0.182 A 
HETATM    8  N   UNL     1     -42.852  55.133 -53.653  1.00  0.00    -0.202 NA
HETATM    9  C   UNL     1     -42.224  54.779 -52.516  1.00  0.00     0.139 A 
HETATM   10  C   UNL     1     -40.126  51.986 -53.769  1.00  0.00     0.030 A 
HETATM   11  C   UNL     1     -39.490  51.536 -52.612  1.00  0.00     0.002 A 
ENDROOT
BRANCH   7  12
HETATM   12  N   UNL     1     -43.215  54.764 -55.944  1.00  0.00    -0.258 NA
HETATM   13  H   UNL     1     -42.530  54.547 -56.675  1.00  0.00     0.130 HD
BRANCH  12  14
HETATM   14  C   UNL     1     -43.462  56.209 -56.009  1.00  0.00     0.134 C 
BRANCH  14  15
HETATM   15  C   UNL     1     -42.948  56.747 -57.320  1.00  0.00    -0.045 A 
HETATM   16  C   UNL     1     -42.363  58.021 -57.396  1.00  0.00     0.011 A 
HETATM   17  C   UNL     1     -41.890  58.507 -58.617  1.00  0.00     0.043 A 
HETATM   18  C   UNL     1     -42.011  57.728 -59.761  1.00  0.00     0.116 A 
HETATM   19  F   UNL     1     -41.554  58.196 -60.928  1.00  0.00    -0.206 F 
HETATM   20  C   UNL     1     -42.600  56.472 -59.710  1.00  0.00     0.043 A 
HETATM   21  C   UNL     1     -43.072  55.980 -58.492  1.00  0.00     0.011 A 
ENDBRANCH  14  15
ENDBRANCH  12  14
ENDBRANCH   7  12
BRANCH   9  22
HETATM   22  N   UNL     1     -42.555  55.442 -51.333  1.00  0.00    -0.374 N 
HETATM   23  H   UNL     1     -42.539  54.827 -50.521  1.00  0.00     0.161 HD
BRANCH  22  24
HETATM   24  C   UNL     1     -41.977  56.752 -51.035  1.00  0.00     0.123 C 
BRANCH  24  25
HETATM   25  C   UNL     1     -42.953  57.890 -51.323  1.00  0.00     0.045 C 
BRANCH  25  26
HETATM   26  C   UNL     1     -44.413  57.474 -51.224  1.00  0.00     0.165 C 
BRANCH  26  27
HETATM   27  O   UNL     1     -44.894  57.090 -52.504  1.00  0.00    -0.401 OA
HETATM   28  H   UNL     1     -44.233  57.345 -53.171  1.00  0.00     0.209 HD
ENDBRANCH  26  27
ENDBRANCH  25  26
ENDBRANCH  24  25
ENDBRANCH  22  24
ENDBRANCH   9  22
TORSDOF 8
ENDMDL
MODEL 5
REMARK VINA RESULT:      -7.4      1.888      2.359
REMARK  8 active torsions:
REMARK  status: ('A' for Active; 'I' for Inactive)
REMARK    1  A    between atoms: C_7  and  N_8 
REMARK    2  A    between atoms: N_8  and  C_9 
REMARK    3  A    between atoms: C_9  and  C_10 
REMARK    4  A    between atoms: C_18  and  N_19 
REMARK    5  A    between atoms: N_19  and  C_20 
REMARK    6  A    between atoms: C_20  and  C_21 
REMARK    7  A    between atoms: C_21  and  C_22 
REMARK    8  A    between atoms: C_22  and  O_23 
ROOT
HETATM    1  C   UNL     1     -39.540  49.864 -51.690  1.00  0.00     0.001 A 
HETATM    2  C   UNL     1     -39.796  51.204 -51.392  1.00  0.00     0.017 A 
HETATM    3  C   UNL     1     -40.028  52.151 -52.418  1.00  0.00     0.036 A 
HETATM    4  C   UNL     1     -40.014  51.687 -53.750  1.00  0.00     0.048 A 
HETATM    5  N   UNL     1     -40.279  52.548 -54.735  1.00  0.00    -0.330 N 
HETATM    6  H   UNL     1     -40.255  52.277 -55.710  1.00  0.00     0.168 HD
HETATM    7  C   UNL     1     -40.572  53.816 -54.478  1.00  0.00     0.182 A 
HETATM    8  N   UNL     1     -40.564  54.349 -53.252  1.00  0.00    -0.202 NA
HETATM    9  C   UNL     1     -40.284  53.529 -52.221  1.00  0.00     0.139 A 
HETATM   10  C   UNL     1     -39.747  50.342 -54.045  1.00  0.00     0.030 A 
HETATM   11  C   UNL     1     -39.510  49.434 -53.013  1.00  0.00     0.002 A 
ENDROOT
BRANCH   7  12
HETATM   12  N   UNL     1     -40.879  54.633 -55.563  1.00  0.00    -0.258 NA
HETATM   13  H   UNL     1     -40.036  55.200 -55.697  1.00  0.00     0.130 HD
BRANCH  12  14
HETATM   14  C   UNL     1     -41.963  55.557 -55.214  1.00  0.00     0.134 C 
BRANCH  14  15
HETATM   15  C   UNL     1     -42.490  56.208 -56.468  1.00  0.00    -0.045 A 
HETATM   16  C   UNL     1     -42.483  57.604 -56.612  1.00  0.00     0.011 A 
HETATM   17  C   UNL     1     -42.973  58.194 -57.780  1.00  0.00     0.043 A 
HETATM   18  C   UNL     1     -43.478  57.392 -58.796  1.00  0.00     0.116 A 
HETATM   19  F   UNL     1     -43.943  57.960 -59.914  1.00  0.00    -0.206 F 
HETATM   20  C   UNL     1     -43.507  56.010 -58.667  1.00  0.00     0.043 A 
HETATM   21  C   UNL     1     -43.017  55.415 -57.503  1.00  0.00     0.011 A 
ENDBRANCH  14  15
ENDBRANCH  12  14
ENDBRANCH   7  12
BRANCH   9  22
HETATM   22  N   UNL     1     -40.338  54.041 -50.924  1.00  0.00    -0.374 N 
HETATM   23  H   UNL     1     -39.416  54.147 -50.505  1.00  0.00     0.161 HD
BRANCH  22  24
HETATM   24  C   UNL     1     -41.211  55.175 -50.615  1.00  0.00     0.123 C 
BRANCH  24  25
HETATM   25  C   UNL     1     -42.481  54.741 -49.887  1.00  0.00     0.045 C 
BRANCH  25  26
HETATM   26  C   UNL     1     -43.737  54.872 -50.735  1.00  0.00     0.165 C 
BRANCH  26  27
HETATM   27  O   UNL     1     -43.510  54.319 -52.024  1.00  0.00    -0.401 OA
HETATM   28  H   UNL     1     -43.751  54.986 -52.691  1.00  0.00     0.209 HD
ENDBRANCH  26  27
ENDBRANCH  25  26
ENDBRANCH  24  25
ENDBRANCH  22  24
ENDBRANCH   9  22
TORSDOF 8
ENDMDL
MODEL 6
REMARK VINA RESULT:      -7.4      4.113      8.208
REMARK  8 active torsions:
REMARK  status: ('A' for Active; 'I' for Inactive)
REMARK    1  A    between atoms: C_7  and  N_8 
REMARK    2  A    between atoms: N_8  and  C_9 
REMARK    3  A    between atoms: C_9  and  C_10 
REMARK    4  A    between atoms: C_18  and  N_19 
REMARK    5  A    between atoms: N_19  and  C_20 
REMARK    6  A    between atoms: C_20  and  C_21 
REMARK    7  A    between atoms: C_21  and  C_22 
REMARK    8  A    between atoms: C_22  and  O_23 
ROOT
HETATM    1  C   UNL     1     -44.730  59.749 -55.369  1.00  0.00     0.001 A 
HETATM    2  C   UNL     1     -44.023  58.784 -56.089  1.00  0.00     0.017 A 
HETATM    3  C   UNL     1     -43.510  57.627 -55.456  1.00  0.00     0.036 A 
HETATM    4  C   UNL     1     -43.759  57.474 -54.075  1.00  0.00     0.048 A 
HETATM    5  N   UNL     1     -43.331  56.368 -53.462  1.00  0.00    -0.330 N 
HETATM    6  H   UNL     1     -43.456  56.219 -52.469  1.00  0.00     0.168 HD
HETATM    7  C   UNL     1     -42.699  55.414 -54.131  1.00  0.00     0.182 A 
HETATM    8  N   UNL     1     -42.382  55.496 -55.427  1.00  0.00    -0.202 NA
HETATM    9  C   UNL     1     -42.774  56.599 -56.093  1.00  0.00     0.139 A 
HETATM   10  C   UNL     1     -44.461  58.450 -53.354  1.00  0.00     0.030 A 
HETATM   11  C   UNL     1     -44.945  59.586 -54.004  1.00  0.00     0.002 A 
ENDROOT
BRANCH   7  12
HETATM   12  N   UNL     1     -42.326  54.276 -53.421  1.00  0.00    -0.258 NA
HETATM   13  H   UNL     1     -42.739  54.412 -52.492  1.00  0.00     0.130 HD
BRANCH  12  14
HETATM   14  C   UNL     1     -40.871  54.241 -53.239  1.00  0.00     0.134 C 
BRANCH  14  15
HETATM   15  C   UNL     1     -40.414  52.810 -53.118  1.00  0.00    -0.045 A 
HETATM   16  C   UNL     1     -39.953  52.301 -51.893  1.00  0.00     0.011 A 
HETATM   17  C   UNL     1     -39.535  50.972 -51.795  1.00  0.00     0.043 A 
HETATM   18  C   UNL     1     -39.566  50.156 -52.919  1.00  0.00     0.116 A 
HETATM   19  F   UNL     1     -39.167  48.883 -52.821  1.00  0.00    -0.206 F 
HETATM   20  C   UNL     1     -40.004  50.644 -54.143  1.00  0.00     0.043 A 
HETATM   21  C   UNL     1     -40.426  51.970 -54.246  1.00  0.00     0.011 A 
ENDBRANCH  14  15
ENDBRANCH  12  14
ENDBRANCH   7  12
BRANCH   9  22
HETATM   22  N   UNL     1     -42.520  56.681 -57.462  1.00  0.00    -0.374 N 
HETATM   23  H   UNL     1     -41.531  56.800 -57.672  1.00  0.00     0.161 HD
BRANCH  22  24
HETATM   24  C   UNL     1     -43.165  55.750 -58.388  1.00  0.00     0.123 C 
BRANCH  24  25
HETATM   25  C   UNL     1     -43.528  56.415 -59.714  1.00  0.00     0.045 C 
BRANCH  25  26
HETATM   26  C   UNL     1     -42.413  57.278 -60.283  1.00  0.00     0.165 C 
BRANCH  26  27
HETATM   27  O   UNL     1     -41.193  56.550 -60.287  1.00  0.00    -0.401 OA
HETATM   28  H   UNL     1     -40.606  56.927 -59.608  1.00  0.00     0.209 HD
ENDBRANCH  26  27
ENDBRANCH  25  26
ENDBRANCH  24  25
ENDBRANCH  22  24
ENDBRANCH   9  22
TORSDOF 8
ENDMDL
MODEL 7
REMARK VINA RESULT:      -7.3      1.561      3.344
REMARK  8 active torsions:
REMARK  status: ('A' for Active; 'I' for Inactive)
REMARK    1  A    between atoms: C_7  and  N_8 
REMARK    2  A    between atoms: N_8  and  C_9 
REMARK    3  A    between atoms: C_9  and  C_10 
REMARK    4  A    between atoms: C_18  and  N_19 
REMARK    5  A    between atoms: N_19  and  C_20 
REMARK    6  A    between atoms: C_20  and  C_21 
REMARK    7  A    between atoms: C_21  and  C_22 
REMARK    8  A    between atoms: C_22  and  O_23 
ROOT
HETATM    1  C   UNL     1     -41.029  54.012 -49.924  1.00  0.00     0.001 A 
HETATM    2  C   UNL     1     -40.613  53.366 -51.091  1.00  0.00     0.017 A 
HETATM    3  C   UNL     1     -41.277  53.581 -52.322  1.00  0.00     0.036 A 
HETATM    4  C   UNL     1     -42.357  54.488 -52.332  1.00  0.00     0.048 A 
HETATM    5  N   UNL     1     -42.969  54.748 -53.490  1.00  0.00    -0.330 N 
HETATM    6  H   UNL     1     -43.767  55.368 -53.552  1.00  0.00     0.168 HD
HETATM    7  C   UNL     1     -42.566  54.186 -54.621  1.00  0.00     0.182 A 
HETATM    8  N   UNL     1     -41.583  53.283 -54.695  1.00  0.00    -0.202 NA
HETATM    9  C   UNL     1     -40.941  52.969 -53.554  1.00  0.00     0.139 A 
HETATM   10  C   UNL     1     -42.777  55.127 -51.157  1.00  0.00     0.030 A 
HETATM   11  C   UNL     1     -42.110  54.887 -49.955  1.00  0.00     0.002 A 
ENDROOT
BRANCH   7  12
HETATM   12  N   UNL     1     -43.233  54.548 -55.788  1.00  0.00    -0.258 NA
HETATM   13  H   UNL     1     -42.576  54.309 -56.538  1.00  0.00     0.130 HD
BRANCH  12  14
HETATM   14  C   UNL     1     -43.424  56.001 -55.836  1.00  0.00     0.134 C 
BRANCH  14  15
HETATM   15  C   UNL     1     -42.981  56.521 -57.180  1.00  0.00    -0.045 A 
HETATM   16  C   UNL     1     -43.172  55.761 -58.345  1.00  0.00     0.011 A 
HETATM   17  C   UNL     1     -42.758  56.255 -59.584  1.00  0.00     0.043 A 
HETATM   18  C   UNL     1     -42.146  57.501 -59.658  1.00  0.00     0.116 A 
HETATM   19  F   UNL     1     -41.754  57.972 -60.847  1.00  0.00    -0.206 F 
HETATM   20  C   UNL     1     -41.935  58.262 -58.516  1.00  0.00     0.043 A 
HETATM   21  C   UNL     1     -42.349  57.773 -57.276  1.00  0.00     0.011 A 
ENDBRANCH  14  15
ENDBRANCH  12  14
ENDBRANCH   7  12
BRANCH   9  22
HETATM   22  N   UNL     1     -39.864  52.083 -53.612  1.00  0.00    -0.374 N 
HETATM   23  H   UNL     1     -39.299  52.096 -52.764  1.00  0.00     0.161 HD
BRANCH  22  24
HETATM   24  C   UNL     1     -40.054  50.724 -54.119  1.00  0.00     0.123 C 
BRANCH  24  25
HETATM   25  C   UNL     1     -39.610  49.667 -53.111  1.00  0.00     0.045 C 
BRANCH  25  26
HETATM   26  C   UNL     1     -39.570  50.177 -51.678  1.00  0.00     0.165 C 
BRANCH  26  27
HETATM   27  O   UNL     1     -38.917  49.228 -50.846  1.00  0.00    -0.401 OA
HETATM   28  H   UNL     1     -39.069  49.476 -49.917  1.00  0.00     0.209 HD
ENDBRANCH  26  27
ENDBRANCH  25  26
ENDBRANCH  24  25
ENDBRANCH  22  24
ENDBRANCH   9  22
TORSDOF 8
ENDMDL
MODEL 8
REMARK VINA RESULT:      -7.3      3.361      6.814
REMARK  8 active torsions:
REMARK  status: ('A' for Active; 'I' for Inactive)
REMARK    1  A    between atoms: C_7  and  N_8 
REMARK    2  A    between atoms: N_8  and  C_9 
REMARK    3  A    between atoms: C_9  and  C_10 
REMARK    4  A    between atoms: C_18  and  N_19 
REMARK    5  A    between atoms: N_19  and  C_20 
REMARK    6  A    between atoms: C_20  and  C_21 
REMARK    7  A    between atoms: C_21  and  C_22 
REMARK    8  A    between atoms: C_22  and  O_23 
ROOT
HETATM    1  C   UNL     1     -42.031  58.427 -59.696  1.00  0.00     0.001 A 
HETATM    2  C   UNL     1     -41.985  58.596 -58.310  1.00  0.00     0.017 A 
HETATM    3  C   UNL     1     -42.427  57.578 -57.434  1.00  0.00     0.036 A 
HETATM    4  C   UNL     1     -42.893  56.377 -58.009  1.00  0.00     0.048 A 
HETATM    5  N   UNL     1     -43.270  55.380 -57.205  1.00  0.00    -0.330 N 
HETATM    6  H   UNL     1     -43.639  54.508 -57.562  1.00  0.00     0.168 HD
HETATM    7  C   UNL     1     -43.192  55.496 -55.886  1.00  0.00     0.182 A 
HETATM    8  N   UNL     1     -42.806  56.610 -55.257  1.00  0.00    -0.202 NA
HETATM    9  C   UNL     1     -42.432  57.656 -56.020  1.00  0.00     0.139 A 
HETATM   10  C   UNL     1     -42.946  56.215 -59.401  1.00  0.00     0.030 A 
HETATM   11  C   UNL     1     -42.515  57.242 -60.241  1.00  0.00     0.002 A 
ENDROOT
BRANCH   7  12
HETATM   12  N   UNL     1     -43.563  54.391 -55.125  1.00  0.00    -0.258 NA
HETATM   13  H   UNL     1     -44.583  54.348 -55.225  1.00  0.00     0.130 HD
BRANCH  12  14
HETATM   14  C   UNL     1     -43.284  54.632 -53.706  1.00  0.00     0.134 C 
BRANCH  14  15
HETATM   15  C   UNL     1     -42.113  53.788 -53.274  1.00  0.00    -0.045 A 
HETATM   16  C   UNL     1     -41.650  53.819 -51.949  1.00  0.00     0.011 A 
HETATM   17  C   UNL     1     -40.565  53.030 -51.562  1.00  0.00     0.043 A 
HETATM   18  C   UNL     1     -39.935  52.220 -52.499  1.00  0.00     0.116 A 
HETATM   19  F   UNL     1     -38.897  51.463 -52.124  1.00  0.00    -0.206 F 
HETATM   20  C   UNL     1     -40.367  52.185 -53.818  1.00  0.00     0.043 A 
HETATM   21  C   UNL     1     -41.453  52.969 -54.209  1.00  0.00     0.011 A 
ENDBRANCH  14  15
ENDBRANCH  12  14
ENDBRANCH   7  12
BRANCH   9  22
HETATM   22  N   UNL     1     -41.956  58.807 -55.392  1.00  0.00    -0.374 N 
HETATM   23  H   UNL     1     -41.726  59.548 -56.052  1.00  0.00     0.161 HD
BRANCH  22  24
HETATM   24  C   UNL     1     -42.628  59.329 -54.202  1.00  0.00     0.123 C 
BRANCH  24  25
HETATM   25  C   UNL     1     -41.743  59.248 -52.960  1.00  0.00     0.045 C 
BRANCH  25  26
HETATM   26  C   UNL     1     -40.472  58.442 -53.175  1.00  0.00     0.165 C 
BRANCH  26  27
HETATM   27  O   UNL     1     -39.335  59.251 -52.910  1.00  0.00    -0.401 OA
HETATM   28  H   UNL     1     -38.566  58.859 -53.360  1.00  0.00     0.209 HD
ENDBRANCH  26  27
ENDBRANCH  25  26
ENDBRANCH  24  25
ENDBRANCH  22  24
ENDBRANCH   9  22
TORSDOF 8
ENDMDL
MODEL 9
REMARK VINA RESULT:      -7.3     14.279     15.652
REMARK  8 active torsions:
REMARK  status: ('A' for Active; 'I' for Inactive)
REMARK    1  A    between atoms: C_7  and  N_8 
REMARK    2  A    between atoms: N_8  and  C_9 
REMARK    3  A    between atoms: C_9  and  C_10 
REMARK    4  A    between atoms: C_18  and  N_19 
REMARK    5  A    between atoms: N_19  and  C_20 
REMARK    6  A    between atoms: C_20  and  C_21 
REMARK    7  A    between atoms: C_21  and  C_22 
REMARK    8  A    between atoms: C_22  and  O_23 
ROOT
HETATM    1  C   UNL     1     -32.314  39.353 -49.849  1.00  0.00     0.001 A 
HETATM    2  C   UNL     1     -33.701  39.448 -49.712  1.00  0.00     0.017 A 
HETATM    3  C   UNL     1     -34.472  40.227 -50.606  1.00  0.00     0.036 A 
HETATM    4  C   UNL     1     -33.793  40.885 -51.653  1.00  0.00     0.048 A 
HETATM    5  N   UNL     1     -34.502  41.587 -52.540  1.00  0.00    -0.330 N 
HETATM    6  H   UNL     1     -34.065  42.102 -53.294  1.00  0.00     0.168 HD
HETATM    7  C   UNL     1     -35.824  41.655 -52.463  1.00  0.00     0.182 A 
HETATM    8  N   UNL     1     -36.543  41.100 -51.482  1.00  0.00    -0.202 NA
HETATM    9  C   UNL     1     -35.877  40.395 -50.547  1.00  0.00     0.139 A 
HETATM   10  C   UNL     1     -32.399  40.796 -51.780  1.00  0.00     0.030 A 
HETATM   11  C   UNL     1     -31.663  40.029 -50.876  1.00  0.00     0.002 A 
ENDROOT
BRANCH   7  12
HETATM   12  N   UNL     1     -36.486  42.371 -53.456  1.00  0.00    -0.258 NA
HETATM   13  H   UNL     1     -37.282  41.776 -53.708  1.00  0.00     0.130 HD
BRANCH  12  14
HETATM   14  C   UNL     1     -35.644  42.482 -54.652  1.00  0.00     0.134 C 
BRANCH  14  15
HETATM   15  C   UNL     1     -36.398  41.958 -55.847  1.00  0.00    -0.045 A 
HETATM   16  C   UNL     1     -37.640  41.321 -55.693  1.00  0.00     0.011 A 
HETATM   17  C   UNL     1     -38.329  40.841 -56.809  1.00  0.00     0.043 A 
HETATM   18  C   UNL     1     -37.775  40.988 -58.075  1.00  0.00     0.116 A 
HETATM   19  F   UNL     1     -38.439  40.530 -59.142  1.00  0.00    -0.206 F 
HETATM   20  C   UNL     1     -36.541  41.602 -58.248  1.00  0.00     0.043 A 
HETATM   21  C   UNL     1     -35.850  42.085 -57.136  1.00  0.00     0.011 A 
ENDBRANCH  14  15
ENDBRANCH  12  14
ENDBRANCH   7  12
BRANCH   9  22
HETATM   22  N   UNL     1     -36.607  39.746 -49.551  1.00  0.00    -0.374 N 
HETATM   23  H   UNL     1     -37.325  40.339 -49.140  1.00  0.00     0.161 HD
BRANCH  22  24
HETATM   24  C   UNL     1     -37.085  38.378 -49.760  1.00  0.00     0.123 C 
BRANCH  24  25
HETATM   25  C   UNL     1     -38.555  38.219 -49.380  1.00  0.00     0.045 C 
BRANCH  25  26
HETATM   26  C   UNL     1     -39.498  38.284 -50.571  1.00  0.00     0.165 C 
BRANCH  26  27
HETATM   27  O   UNL     1     -39.130  39.362 -51.420  1.00  0.00    -0.401 OA
HETATM   28  H   UNL     1     -39.633  39.286 -52.251  1.00  0.00     0.209 HD
ENDBRANCH  26  27
ENDBRANCH  25  26
ENDBRANCH  24  25
ENDBRANCH  22  24
ENDBRANCH   9  22
TORSDOF 8
ENDMDL
MODEL 10
REMARK VINA RESULT:      -7.3      3.485      6.787
REMARK  8 active torsions:
REMARK  status: ('A' for Active; 'I' for Inactive)
REMARK    1  A    between atoms: C_7  and  N_8 
REMARK    2  A    between atoms: N_8  and  C_9 
REMARK    3  A    between atoms: C_9  and  C_10 
REMARK    4  A    between atoms: C_18  and  N_19 
REMARK    5  A    between atoms: N_19  and  C_20 
REMARK    6  A    between atoms: C_20  and  C_21 
REMARK    7  A    between atoms: C_21  and  C_22 
REMARK    8  A    between atoms: C_22  and  O_23 
ROOT
HETATM    1  C   UNL     1     -44.215  58.529 -56.961  1.00  0.00     0.001 A 
HETATM    2  C   UNL     1     -43.664  58.439 -55.681  1.00  0.00     0.017 A 
HETATM    3  C   UNL     1     -42.784  57.386 -55.336  1.00  0.00     0.036 A 
HETATM    4  C   UNL     1     -42.468  56.444 -56.337  1.00  0.00     0.048 A 
HETATM    5  N   UNL     1     -41.602  55.468 -56.053  1.00  0.00    -0.330 N 
HETATM    6  H   UNL     1     -41.360  54.749 -56.723  1.00  0.00     0.168 HD
HETATM    7  C   UNL     1     -41.026  55.387 -54.861  1.00  0.00     0.182 A 
HETATM    8  N   UNL     1     -41.301  56.208 -53.843  1.00  0.00    -0.202 NA
HETATM    9  C   UNL     1     -42.182  57.201 -54.067  1.00  0.00     0.139 A 
HETATM   10  C   UNL     1     -43.032  56.532 -57.618  1.00  0.00     0.030 A 
HETATM   11  C   UNL     1     -43.905  57.575 -57.926  1.00  0.00     0.002 A 
ENDROOT
BRANCH   7  12
HETATM   12  N   UNL     1     -40.102  54.364 -54.667  1.00  0.00    -0.258 NA
HETATM   13  H   UNL     1     -39.440  54.472 -55.443  1.00  0.00     0.130 HD
BRANCH  12  14
HETATM   14  C   UNL     1     -40.745  53.057 -54.834  1.00  0.00     0.134 C 
BRANCH  14  15
HETATM   15  C   UNL     1     -40.303  52.135 -53.726  1.00  0.00    -0.045 A 
HETATM   16  C   UNL     1     -40.014  50.785 -53.984  1.00  0.00     0.011 A 
HETATM   17  C   UNL     1     -39.604  49.943 -52.949  1.00  0.00     0.043 A 
HETATM   18  C   UNL     1     -39.493  50.443 -51.657  1.00  0.00     0.116 A 
HETATM   19  F   UNL     1     -39.097  49.634 -50.668  1.00  0.00    -0.206 F 
HETATM   20  C   UNL     1     -39.789  51.771 -51.378  1.00  0.00     0.043 A 
HETATM   21  C   UNL     1     -40.197  52.618 -52.410  1.00  0.00     0.011 A 
ENDBRANCH  14  15
ENDBRANCH  12  14
ENDBRANCH   7  12
BRANCH   9  22
HETATM   22  N   UNL     1     -42.435  58.117 -53.045  1.00  0.00    -0.374 N 
HETATM   23  H   UNL     1     -43.203  58.749 -53.265  1.00  0.00     0.161 HD
BRANCH  22  24
HETATM   24  C   UNL     1     -42.478  57.672 -51.652  1.00  0.00     0.123 C 
BRANCH  24  25
HETATM   25  C   UNL     1     -43.786  56.958 -51.316  1.00  0.00     0.045 C 
BRANCH  25  26
HETATM   26  C   UNL     1     -43.604  55.483 -50.996  1.00  0.00     0.165 C 
BRANCH  26  27
HETATM   27  O   UNL     1     -43.627  54.722 -52.196  1.00  0.00    -0.401 OA
HETATM   28  H   UNL     1     -44.522  54.772 -52.575  1.00  0.00     0.209 HD
ENDBRANCH  26  27
ENDBRANCH  25  26
ENDBRANCH  24  25
ENDBRANCH  22  24
ENDBRANCH   9  22
TORSDOF 8
ENDMDL
