MODEL 1
REMARK VINA RESULT:      -8.5      0.000      0.000
REMARK  4 active torsions:
REMARK  status: ('A' for Active; 'I' for Inactive)
REMARK    1  A    between atoms: C_6  and  C_7 
REMARK    2  A    between atoms: C_7  and  C_8 
REMARK    3  A    between atoms: N_10  and  C_11 
REMARK    4  A    between atoms: C_19  and  C_20 
ROOT
HETATM    1  C   UNL     1     -42.371  55.577 -55.758  1.00  0.00     0.149 C 
HETATM    2  N   UNL     1     -41.704  54.457 -55.491  1.00  0.00    -0.150 NA
HETATM    3  N   UNL     1     -41.355  54.605 -54.184  1.00  0.00    -0.218 N 
HETATM    4  C   UNL     1     -41.690  55.902 -53.782  1.00  0.00     0.136 C 
HETATM    5  N   UNL     1     -42.381  56.485 -54.745  1.00  0.00    -0.216 NA
ENDROOT
BRANCH   1   6
HETATM    6  C   UNL     1     -42.981  55.839 -57.090  1.00  0.00     0.087 C 
BRANCH   6   7
HETATM    7  C   UNL     1     -42.720  57.263 -57.637  1.00  0.00    -0.004 C 
HETATM    8  C   UNL     1     -43.811  58.290 -57.281  1.00  0.00     0.032 C 
HETATM    9  C   UNL     1     -45.127  58.034 -58.001  1.00  0.00     0.234 C 
HETATM   10  N   UNL     1     -44.881  58.029 -59.492  1.00  0.00    -0.075 N 
HETATM   11  C   UNL     1     -46.169  57.880 -60.263  1.00  0.00     0.269 C 
HETATM   12  H   UNL     1     -44.510  58.956 -59.742  1.00  0.00     0.279 HD
HETATM   13  C   UNL     1     -43.858  57.008 -59.919  1.00  0.00     0.234 C 
HETATM   14  C   UNL     1     -42.549  57.239 -59.168  1.00  0.00     0.032 C 
ENDBRANCH   6   7
ENDBRANCH   1   6
BRANCH   3  15
HETATM   15  C   UNL     1     -40.746  53.515 -53.498  1.00  0.00     0.062 A 
HETATM   16  C   UNL     1     -40.353  52.343 -54.153  1.00  0.00     0.058 A 
HETATM   17  C   UNL     1     -39.760  51.300 -53.430  1.00  0.00     0.074 A 
HETATM   18 CL   UNL     1     -39.305  49.867 -54.268  1.00  0.00    -0.081 Cl
HETATM   19  C   UNL     1     -39.544  51.425 -52.062  1.00  0.00     0.138 A 
HETATM   20  F   UNL     1     -38.981  50.433 -51.361  1.00  0.00    -0.204 F 
HETATM   21  C   UNL     1     -39.904  52.594 -51.402  1.00  0.00     0.046 A 
HETATM   22  C   UNL     1     -40.497  53.639 -52.117  1.00  0.00     0.035 A 
ENDBRANCH   3  15
BRANCH   4  23
HETATM   23  C   UNL     1     -41.249  56.614 -52.544  1.00  0.00     0.084 C 
HETATM   24  C   UNL     1     -42.401  56.812 -51.548  1.00  0.00     0.244 C 
HETATM   25  N   UNL     1     -41.984  57.995 -50.713  1.00  0.00    -0.074 N 
HETATM   26  H   UNL     1     -42.782  58.635 -50.583  1.00  0.00     0.277 HD
HETATM   27  H   UNL     1     -41.702  57.703 -49.766  1.00  0.00     0.277 HD
HETATM   28  C   UNL     1     -40.853  58.687 -51.409  1.00  0.00     0.233 C 
HETATM   29  C   UNL     1     -40.818  58.057 -52.792  1.00  0.00     0.041 C 
ENDBRANCH   4  23
TORSDOF 4
ENDMDL
MODEL 2
REMARK VINA RESULT:      -7.7      3.310      4.992
REMARK  4 active torsions:
REMARK  status: ('A' for Active; 'I' for Inactive)
REMARK    1  A    between atoms: C_6  and  C_7 
REMARK    2  A    between atoms: C_7  and  C_8 
REMARK    3  A    between atoms: N_10  and  C_11 
REMARK    4  A    between atoms: C_19  and  C_20 
ROOT
HETATM    1  C   UNL     1     -42.671  55.602 -56.301  1.00  0.00     0.149 C 
HETATM    2  N   UNL     1     -42.899  56.643 -55.505  1.00  0.00    -0.150 NA
HETATM    3  N   UNL     1     -42.017  56.457 -54.485  1.00  0.00    -0.218 N 
HETATM    4  C   UNL     1     -41.419  55.202 -54.644  1.00  0.00     0.136 C 
HETATM    5  N   UNL     1     -41.780  54.698 -55.811  1.00  0.00    -0.216 NA
ENDROOT
BRANCH   1   6
HETATM    6  C   UNL     1     -43.401  55.409 -57.584  1.00  0.00     0.087 C 
BRANCH   6   7
HETATM    7  C   UNL     1     -43.179  56.541 -58.615  1.00  0.00    -0.004 C 
HETATM    8  C   UNL     1     -44.222  57.672 -58.553  1.00  0.00     0.032 C 
HETATM    9  C   UNL     1     -45.602  57.234 -59.026  1.00  0.00     0.234 C 
HETATM   10  N   UNL     1     -45.494  56.700 -60.434  1.00  0.00    -0.075 N 
HETATM   11  C   UNL     1     -46.849  56.344 -60.995  1.00  0.00     0.269 C 
HETATM   12  H   UNL     1     -45.139  57.466 -61.025  1.00  0.00     0.279 HD
HETATM   13  C   UNL     1     -44.524  55.553 -60.560  1.00  0.00     0.234 C 
HETATM   14  C   UNL     1     -43.150  55.978 -60.049  1.00  0.00     0.032 C 
ENDBRANCH   6   7
ENDBRANCH   1   6
BRANCH   3  15
HETATM   15  C   UNL     1     -41.865  57.473 -53.500  1.00  0.00     0.062 A 
HETATM   16  C   UNL     1     -42.942  57.945 -52.739  1.00  0.00     0.058 A 
HETATM   17  C   UNL     1     -42.738  58.948 -51.783  1.00  0.00     0.074 A 
HETATM   18 CL   UNL     1     -44.089  59.516 -50.879  1.00  0.00    -0.081 Cl
HETATM   19  C   UNL     1     -41.467  59.472 -51.570  1.00  0.00     0.138 A 
HETATM   20  F   UNL     1     -41.263  60.433 -50.661  1.00  0.00    -0.204 F 
HETATM   21  C   UNL     1     -40.385  58.994 -52.298  1.00  0.00     0.046 A 
HETATM   22  C   UNL     1     -40.580  57.993 -53.255  1.00  0.00     0.035 A 
ENDBRANCH   3  15
BRANCH   4  23
HETATM   23  C   UNL     1     -40.612  54.445 -53.640  1.00  0.00     0.084 C 
HETATM   24  C   UNL     1     -40.255  53.034 -54.127  1.00  0.00     0.244 C 
HETATM   25  N   UNL     1     -40.011  52.244 -52.867  1.00  0.00    -0.074 N 
HETATM   26  H   UNL     1     -40.465  51.320 -52.935  1.00  0.00     0.277 HD
HETATM   27  H   UNL     1     -39.007  52.054 -52.734  1.00  0.00     0.277 HD
HETATM   28  C   UNL     1     -40.559  53.023 -51.712  1.00  0.00     0.233 C 
HETATM   29  C   UNL     1     -41.375  54.132 -52.355  1.00  0.00     0.041 C 
ENDBRANCH   4  23
TORSDOF 4
ENDMDL
MODEL 3
REMARK VINA RESULT:      -7.7      1.707      2.293
REMARK  4 active torsions:
REMARK  status: ('A' for Active; 'I' for Inactive)
REMARK    1  A    between atoms: C_6  and  C_7 
REMARK    2  A    between atoms: C_7  and  C_8 
REMARK    3  A    between atoms: N_10  and  C_11 
REMARK    4  A    between atoms: C_19  and  C_20 
ROOT
HETATM    1  C   UNL     1     -44.099  57.046 -54.359  1.00  0.00     0.149 C 
HETATM    2  N   UNL     1     -43.431  55.928 -54.629  1.00  0.00    -0.150 NA
HETATM    3  N   UNL     1     -42.477  55.892 -53.659  1.00  0.00    -0.218 N 
HETATM    4  C   UNL     1     -42.521  57.098 -52.952  1.00  0.00     0.136 C 
HETATM    5  N   UNL     1     -43.574  57.790 -53.348  1.00  0.00    -0.216 NA
ENDROOT
BRANCH   1   6
HETATM    6  C   UNL     1     -45.276  57.480 -55.160  1.00  0.00     0.087 C 
BRANCH   6   7
HETATM    7  C   UNL     1     -44.975  58.620 -56.161  1.00  0.00    -0.004 C 
HETATM    8  C   UNL     1     -46.175  59.037 -57.031  1.00  0.00     0.032 C 
HETATM    9  C   UNL     1     -46.571  57.974 -58.046  1.00  0.00     0.234 C 
HETATM   10  N   UNL     1     -45.380  57.657 -58.919  1.00  0.00    -0.075 N 
HETATM   11  C   UNL     1     -45.741  56.682 -60.012  1.00  0.00     0.269 C 
HETATM   12  H   UNL     1     -45.113  58.529 -59.398  1.00  0.00     0.279 HD
HETATM   13  C   UNL     1     -44.180  57.192 -58.135  1.00  0.00     0.234 C 
HETATM   14  C   UNL     1     -43.805  58.239 -57.090  1.00  0.00     0.032 C 
ENDBRANCH   6   7
ENDBRANCH   1   6
BRANCH   3  15
HETATM   15  C   UNL     1     -41.651  54.738 -53.536  1.00  0.00     0.062 A 
HETATM   16  C   UNL     1     -41.418  54.112 -52.306  1.00  0.00     0.058 A 
HETATM   17  C   UNL     1     -40.595  52.980 -52.240  1.00  0.00     0.074 A 
HETATM   18 CL   UNL     1     -40.318  52.247 -50.707  1.00  0.00    -0.081 Cl
HETATM   19  C   UNL     1     -40.016  52.461 -53.394  1.00  0.00     0.138 A 
HETATM   20  F   UNL     1     -39.226  51.382 -53.341  1.00  0.00    -0.204 F 
HETATM   21  C   UNL     1     -40.260  53.056 -54.625  1.00  0.00     0.046 A 
HETATM   22  C   UNL     1     -41.080  54.186 -54.700  1.00  0.00     0.035 A 
ENDBRANCH   3  15
BRANCH   4  23
HETATM   23  C   UNL     1     -41.500  57.633 -52.000  1.00  0.00     0.084 C 
HETATM   24  C   UNL     1     -42.086  58.693 -51.057  1.00  0.00     0.244 C 
HETATM   25  N   UNL     1     -40.902  59.519 -50.627  1.00  0.00    -0.074 N 
HETATM   26  H   UNL     1     -41.140  60.522 -50.657  1.00  0.00     0.277 HD
HETATM   27  H   UNL     1     -40.644  59.322 -49.649  1.00  0.00     0.277 HD
HETATM   28  C   UNL     1     -39.759  59.215 -51.546  1.00  0.00     0.233 C 
HETATM   29  C   UNL     1     -40.386  58.423 -52.681  1.00  0.00     0.041 C 
ENDBRANCH   4  23
TORSDOF 4
ENDMDL
MODEL 4
REMARK VINA RESULT:      -7.6      4.026      7.580
REMARK  4 active torsions:
REMARK  status: ('A' for Active; 'I' for Inactive)
REMARK    1  A    between atoms: C_6  and  C_7 
REMARK    2  A    between atoms: C_7  and  C_8 
REMARK    3  A    between atoms: N_10  and  C_11 
REMARK    4  A    between atoms: C_19  and  C_20 
ROOT
HETATM    1  C   UNL     1     -41.136  55.795 -54.770  1.00  0.00     0.149 C 
HETATM    2  N   UNL     1     -41.783  55.791 -55.933  1.00  0.00    -0.150 NA
HETATM    3  N   UNL     1     -42.309  57.044 -56.002  1.00  0.00    -0.218 N 
HETATM    4  C   UNL     1     -42.086  57.684 -54.779  1.00  0.00     0.136 C 
HETATM    5  N   UNL     1     -41.299  56.928 -54.035  1.00  0.00    -0.216 NA
ENDROOT
BRANCH   1   6
HETATM    6  C   UNL     1     -40.367  54.615 -54.286  1.00  0.00     0.087 C 
BRANCH   6   7
HETATM    7  C   UNL     1     -41.250  53.429 -53.830  1.00  0.00    -0.004 C 
HETATM    8  C   UNL     1     -42.337  53.802 -52.805  1.00  0.00     0.032 C 
HETATM    9  C   UNL     1     -41.768  54.169 -51.442  1.00  0.00     0.234 C 
HETATM   10  N   UNL     1     -40.939  53.017 -50.926  1.00  0.00    -0.075 N 
HETATM   11  C   UNL     1     -40.432  53.282 -49.531  1.00  0.00     0.269 C 
HETATM   12  H   UNL     1     -41.566  52.203 -50.846  1.00  0.00     0.279 HD
HETATM   13  C   UNL     1     -39.820  52.630 -51.858  1.00  0.00     0.234 C 
HETATM   14  C   UNL     1     -40.385  52.299 -53.238  1.00  0.00     0.032 C 
ENDBRANCH   6   7
ENDBRANCH   1   6
BRANCH   3  15
HETATM   15  C   UNL     1     -42.954  57.464 -57.200  1.00  0.00     0.062 A 
HETATM   16  C   UNL     1     -44.338  57.356 -57.382  1.00  0.00     0.058 A 
HETATM   17  C   UNL     1     -44.923  57.782 -58.581  1.00  0.00     0.074 A 
HETATM   18 CL   UNL     1     -46.626  57.617 -58.775  1.00  0.00    -0.081 Cl
HETATM   19  C   UNL     1     -44.140  58.329 -59.592  1.00  0.00     0.138 A 
HETATM   20  F   UNL     1     -44.689  58.737 -60.743  1.00  0.00    -0.204 F 
HETATM   21  C   UNL     1     -42.769  58.469 -59.415  1.00  0.00     0.046 A 
HETATM   22  C   UNL     1     -42.177  58.045 -58.221  1.00  0.00     0.035 A 
ENDBRANCH   3  15
BRANCH   4  23
HETATM   23  C   UNL     1     -42.717  58.945 -54.283  1.00  0.00     0.084 C 
HETATM   24  C   UNL     1     -42.173  60.188 -55.003  1.00  0.00     0.244 C 
HETATM   25  N   UNL     1     -42.414  61.323 -54.041  1.00  0.00    -0.074 N 
HETATM   26  H   UNL     1     -41.583  61.931 -53.996  1.00  0.00     0.277 HD
HETATM   27  H   UNL     1     -43.185  61.926 -54.362  1.00  0.00     0.277 HD
HETATM   28  C   UNL     1     -42.723  60.741 -52.696  1.00  0.00     0.233 C 
HETATM   29  C   UNL     1     -42.373  59.269 -52.831  1.00  0.00     0.041 C 
ENDBRANCH   4  23
TORSDOF 4
ENDMDL
MODEL 5
REMARK VINA RESULT:      -7.5      3.817      7.458
REMARK  4 active torsions:
REMARK  status: ('A' for Active; 'I' for Inactive)
REMARK    1  A    between atoms: C_6  and  C_7 
REMARK    2  A    between atoms: C_7  and  C_8 
REMARK    3  A    between atoms: N_10  and  C_11 
REMARK    4  A    between atoms: C_19  and  C_20 
ROOT
HETATM    1  C   UNL     1     -42.850  55.121 -53.021  1.00  0.00     0.149 C 
HETATM    2  N   UNL     1     -43.208  55.287 -54.291  1.00  0.00    -0.150 NA
HETATM    3  N   UNL     1     -43.774  56.525 -54.296  1.00  0.00    -0.218 N 
HETATM    4  C   UNL     1     -43.878  56.968 -52.974  1.00  0.00     0.136 C 
HETATM    5  N   UNL     1     -43.243  56.119 -52.185  1.00  0.00    -0.216 NA
ENDROOT
BRANCH   1   6
HETATM    6  C   UNL     1     -42.148  53.895 -52.549  1.00  0.00     0.087 C 
BRANCH   6   7
HETATM    7  C   UNL     1     -40.618  53.913 -52.782  1.00  0.00    -0.004 C 
HETATM    8  C   UNL     1     -40.170  53.275 -54.110  1.00  0.00     0.032 C 
HETATM    9  C   UNL     1     -40.364  51.765 -54.140  1.00  0.00     0.234 C 
HETATM   10  N   UNL     1     -39.611  51.148 -52.985  1.00  0.00    -0.075 N 
HETATM   11  C   UNL     1     -39.682  49.642 -53.022  1.00  0.00     0.269 C 
HETATM   12  H   UNL     1     -38.616  51.385 -53.109  1.00  0.00     0.279 HD
HETATM   13  C   UNL     1     -40.036  51.691 -51.645  1.00  0.00     0.234 C 
HETATM   14  C   UNL     1     -39.880  53.209 -51.627  1.00  0.00     0.032 C 
ENDBRANCH   6   7
ENDBRANCH   1   6
BRANCH   3  15
HETATM   15  C   UNL     1     -44.148  57.116 -55.537  1.00  0.00     0.062 A 
HETATM   16  C   UNL     1     -43.388  56.956 -56.701  1.00  0.00     0.058 A 
HETATM   17  C   UNL     1     -43.799  57.560 -57.896  1.00  0.00     0.074 A 
HETATM   18 CL   UNL     1     -42.829  57.355 -59.304  1.00  0.00    -0.081 Cl
HETATM   19  C   UNL     1     -44.971  58.309 -57.940  1.00  0.00     0.138 A 
HETATM   20  F   UNL     1     -45.371  58.893 -59.077  1.00  0.00    -0.204 F 
HETATM   21  C   UNL     1     -45.750  58.454 -56.800  1.00  0.00     0.046 A 
HETATM   22  C   UNL     1     -45.346  57.854 -55.603  1.00  0.00     0.035 A 
ENDBRANCH   3  15
BRANCH   4  23
HETATM   23  C   UNL     1     -44.677  58.122 -52.460  1.00  0.00     0.084 C 
HETATM   24  C   UNL     1     -43.845  59.408 -52.367  1.00  0.00     0.244 C 
HETATM   25  N   UNL     1     -44.548  60.245 -51.330  1.00  0.00    -0.074 N 
HETATM   26  H   UNL     1     -43.859  60.666 -50.688  1.00  0.00     0.277 HD
HETATM   27  H   UNL     1     -45.048  61.035 -51.763  1.00  0.00     0.277 HD
HETATM   28  C   UNL     1     -45.501  59.364 -50.583  1.00  0.00     0.233 C 
HETATM   29  C   UNL     1     -45.128  57.954 -51.011  1.00  0.00     0.041 C 
ENDBRANCH   4  23
TORSDOF 4
ENDMDL
MODEL 6
REMARK VINA RESULT:      -7.5      2.310      5.094
REMARK  4 active torsions:
REMARK  status: ('A' for Active; 'I' for Inactive)
REMARK    1  A    between atoms: C_6  and  C_7 
REMARK    2  A    between atoms: C_7  and  C_8 
REMARK    3  A    between atoms: N_10  and  C_11 
REMARK    4  A    between atoms: C_19  and  C_20 
ROOT
HETATM    1  C   UNL     1     -41.334  57.672 -52.431  1.00  0.00     0.149 C 
HETATM    2  N   UNL     1     -41.118  56.626 -51.637  1.00  0.00    -0.150 NA
HETATM    3  N   UNL     1     -41.102  55.575 -52.502  1.00  0.00    -0.218 N 
HETATM    4  C   UNL     1     -41.486  56.038 -53.765  1.00  0.00     0.136 C 
HETATM    5  N   UNL     1     -41.567  57.356 -53.733  1.00  0.00    -0.216 NA
ENDROOT
BRANCH   1   6
HETATM    6  C   UNL     1     -41.396  59.065 -51.908  1.00  0.00     0.087 C 
BRANCH   6   7
HETATM    7  C   UNL     1     -42.565  59.321 -50.927  1.00  0.00    -0.004 C 
HETATM    8  C   UNL     1     -43.940  58.860 -51.443  1.00  0.00     0.032 C 
HETATM    9  C   UNL     1     -44.456  59.705 -52.599  1.00  0.00     0.234 C 
HETATM   10  N   UNL     1     -44.519  61.150 -52.165  1.00  0.00    -0.075 N 
HETATM   11  C   UNL     1     -45.121  62.024 -53.237  1.00  0.00     0.269 C 
HETATM   12  H   UNL     1     -45.169  61.200 -51.367  1.00  0.00     0.279 HD
HETATM   13  C   UNL     1     -43.191  61.685 -51.694  1.00  0.00     0.234 C 
HETATM   14  C   UNL     1     -42.654  60.815 -50.560  1.00  0.00     0.032 C 
ENDBRANCH   6   7
ENDBRANCH   1   6
BRANCH   3  15
HETATM   15  C   UNL     1     -40.741  54.284 -52.023  1.00  0.00     0.062 A 
HETATM   16  C   UNL     1     -40.301  53.265 -52.876  1.00  0.00     0.058 A 
HETATM   17  C   UNL     1     -39.959  52.011 -52.354  1.00  0.00     0.074 A 
HETATM   18 CL   UNL     1     -39.438  50.778 -53.436  1.00  0.00    -0.081 Cl
HETATM   19  C   UNL     1     -40.039  51.772 -50.986  1.00  0.00     0.138 A 
HETATM   20  F   UNL     1     -39.718  50.576 -50.477  1.00  0.00    -0.204 F 
HETATM   21  C   UNL     1     -40.448  52.781 -50.124  1.00  0.00     0.046 A 
HETATM   22  C   UNL     1     -40.791  54.036 -50.637  1.00  0.00     0.035 A 
ENDBRANCH   3  15
BRANCH   4  23
HETATM   23  C   UNL     1     -41.886  55.221 -54.951  1.00  0.00     0.084 C 
HETATM   24  C   UNL     1     -42.341  56.093 -56.129  1.00  0.00     0.244 C 
HETATM   25  N   UNL     1     -43.234  55.196 -56.946  1.00  0.00    -0.074 N 
HETATM   26  H   UNL     1     -44.080  55.708 -57.237  1.00  0.00     0.277 HD
HETATM   27  H   UNL     1     -42.770  54.903 -57.819  1.00  0.00     0.277 HD
HETATM   28  C   UNL     1     -43.592  54.004 -56.113  1.00  0.00     0.233 C 
HETATM   29  C   UNL     1     -43.130  54.370 -54.712  1.00  0.00     0.041 C 
ENDBRANCH   4  23
TORSDOF 4
ENDMDL
MODEL 7
REMARK VINA RESULT:      -7.5      2.788      5.681
REMARK  4 active torsions:
REMARK  status: ('A' for Active; 'I' for Inactive)
REMARK    1  A    between atoms: C_6  and  C_7 
REMARK    2  A    between atoms: C_7  and  C_8 
REMARK    3  A    between atoms: N_10  and  C_11 
REMARK    4  A    between atoms: C_19  and  C_20 
ROOT
HETATM    1  C   UNL     1     -43.198  57.436 -52.136  1.00  0.00     0.149 C 
HETATM    2  N   UNL     1     -42.731  56.303 -51.616  1.00  0.00    -0.150 NA
HETATM    3  N   UNL     1     -42.078  55.726 -52.662  1.00  0.00    -0.218 N 
HETATM    4  C   UNL     1     -42.339  56.475 -53.813  1.00  0.00     0.136 C 
HETATM    5  N   UNL     1     -42.984  57.577 -53.472  1.00  0.00    -0.216 NA
ENDROOT
BRANCH   1   6
HETATM    6  C   UNL     1     -43.964  58.423 -51.327  1.00  0.00     0.087 C 
BRANCH   6   7
HETATM    7  C   UNL     1     -43.852  59.881 -51.836  1.00  0.00    -0.004 C 
HETATM    8  C   UNL     1     -43.162  60.846 -50.854  1.00  0.00     0.032 C 
HETATM    9  C   UNL     1     -43.996  61.127 -49.612  1.00  0.00     0.234 C 
HETATM   10  N   UNL     1     -45.337  61.681 -50.032  1.00  0.00    -0.075 N 
HETATM   11  C   UNL     1     -46.170  62.075 -48.838  1.00  0.00     0.269 C 
HETATM   12  H   UNL     1     -45.158  62.554 -50.548  1.00  0.00     0.279 HD
HETATM   13  C   UNL     1     -46.093  60.761 -50.956  1.00  0.00     0.234 C 
HETATM   14  C   UNL     1     -45.243  60.447 -52.184  1.00  0.00     0.032 C 
ENDBRANCH   6   7
ENDBRANCH   1   6
BRANCH   3  15
HETATM   15  C   UNL     1     -41.311  54.547 -52.439  1.00  0.00     0.062 A 
HETATM   16  C   UNL     1     -41.124  53.577 -53.430  1.00  0.00     0.058 A 
HETATM   17  C   UNL     1     -40.361  52.434 -53.158  1.00  0.00     0.074 A 
HETATM   18 CL   UNL     1     -40.168  51.254 -54.396  1.00  0.00    -0.081 Cl
HETATM   19  C   UNL     1     -39.770  52.261 -51.910  1.00  0.00     0.138 A 
HETATM   20  F   UNL     1     -39.042  51.172 -51.640  1.00  0.00    -0.204 F 
HETATM   21  C   UNL     1     -39.924  53.229 -50.926  1.00  0.00     0.046 A 
HETATM   22  C   UNL     1     -40.685  54.372 -51.189  1.00  0.00     0.035 A 
ENDBRANCH   3  15
BRANCH   4  23
HETATM   23  C   UNL     1     -42.082  56.084 -55.232  1.00  0.00     0.084 C 
HETATM   24  C   UNL     1     -42.124  57.288 -56.183  1.00  0.00     0.244 C 
HETATM   25  N   UNL     1     -42.451  56.700 -57.532  1.00  0.00    -0.074 N 
HETATM   26  H   UNL     1     -43.162  57.275 -58.006  1.00  0.00     0.277 HD
HETATM   27  H   UNL     1     -41.627  56.705 -58.151  1.00  0.00     0.277 HD
HETATM   28  C   UNL     1     -42.947  55.302 -57.326  1.00  0.00     0.233 C 
HETATM   29  C   UNL     1     -43.173  55.197 -55.827  1.00  0.00     0.041 C 
ENDBRANCH   4  23
TORSDOF 4
ENDMDL
MODEL 8
REMARK VINA RESULT:      -7.4     15.563     18.528
REMARK  4 active torsions:
REMARK  status: ('A' for Active; 'I' for Inactive)
REMARK    1  A    between atoms: C_6  and  C_7 
REMARK    2  A    between atoms: C_7  and  C_8 
REMARK    3  A    between atoms: N_10  and  C_11 
REMARK    4  A    between atoms: C_19  and  C_20 
ROOT
HETATM    1  C   UNL     1     -35.343  39.394 -54.034  1.00  0.00     0.149 C 
HETATM    2  N   UNL     1     -36.134  40.022 -54.901  1.00  0.00    -0.150 NA
HETATM    3  N   UNL     1     -35.379  40.073 -56.032  1.00  0.00    -0.218 N 
HETATM    4  C   UNL     1     -34.093  39.617 -55.725  1.00  0.00     0.136 C 
HETATM    5  N   UNL     1     -34.090  39.134 -54.496  1.00  0.00    -0.216 NA
ENDROOT
BRANCH   1   6
HETATM    6  C   UNL     1     -35.779  39.082 -52.646  1.00  0.00     0.087 C 
BRANCH   6   7
HETATM    7  C   UNL     1     -35.799  40.305 -51.698  1.00  0.00    -0.004 C 
HETATM    8  C   UNL     1     -34.622  41.279 -51.893  1.00  0.00     0.032 C 
HETATM    9  C   UNL     1     -33.288  40.697 -51.447  1.00  0.00     0.234 C 
HETATM   10  N   UNL     1     -33.390  40.285 -49.997  1.00  0.00    -0.075 N 
HETATM   11  C   UNL     1     -32.065  39.794 -49.469  1.00  0.00     0.269 C 
HETATM   12  H   UNL     1     -33.610  41.132 -49.455  1.00  0.00     0.279 HD
HETATM   13  C   UNL     1     -34.492  39.289 -49.741  1.00  0.00     0.234 C 
HETATM   14  C   UNL     1     -35.825  39.856 -50.224  1.00  0.00     0.032 C 
ENDBRANCH   6   7
ENDBRANCH   1   6
BRANCH   3  15
HETATM   15  C   UNL     1     -35.963  40.551 -57.240  1.00  0.00     0.062 A 
HETATM   16  C   UNL     1     -36.129  39.736 -58.365  1.00  0.00     0.058 A 
HETATM   17  C   UNL     1     -36.708  40.257 -59.529  1.00  0.00     0.074 A 
HETATM   18 CL   UNL     1     -36.881  39.229 -60.899  1.00  0.00    -0.081 Cl
HETATM   19  C   UNL     1     -37.137  41.580 -59.572  1.00  0.00     0.138 A 
HETATM   20  F   UNL     1     -37.689  42.087 -60.681  1.00  0.00    -0.204 F 
HETATM   21  C   UNL     1     -37.004  42.393 -58.454  1.00  0.00     0.046 A 
HETATM   22  C   UNL     1     -36.426  41.881 -57.288  1.00  0.00     0.035 A 
ENDBRANCH   3  15
BRANCH   4  23
HETATM   23  C   UNL     1     -32.856  39.753 -56.554  1.00  0.00     0.084 C 
HETATM   24  C   UNL     1     -32.578  38.498 -57.392  1.00  0.00     0.244 C 
HETATM   25  N   UNL     1     -31.096  38.537 -57.660  1.00  0.00    -0.074 N 
HETATM   26  H   UNL     1     -30.686  37.601 -57.523  1.00  0.00     0.277 HD
HETATM   27  H   UNL     1     -30.899  38.788 -58.640  1.00  0.00     0.277 HD
HETATM   28  C   UNL     1     -30.476  39.531 -56.727  1.00  0.00     0.233 C 
HETATM   29  C   UNL     1     -31.576  39.849 -55.727  1.00  0.00     0.041 C 
ENDBRANCH   4  23
TORSDOF 4
ENDMDL
MODEL 9
REMARK VINA RESULT:      -7.4      3.192      5.012
REMARK  4 active torsions:
REMARK  status: ('A' for Active; 'I' for Inactive)
REMARK    1  A    between atoms: C_6  and  C_7 
REMARK    2  A    between atoms: C_7  and  C_8 
REMARK    3  A    between atoms: N_10  and  C_11 
REMARK    4  A    between atoms: C_19  and  C_20 
ROOT
HETATM    1  C   UNL     1     -42.865  56.484 -56.475  1.00  0.00     0.149 C 
HETATM    2  N   UNL     1     -43.092  57.328 -55.472  1.00  0.00    -0.150 NA
HETATM    3  N   UNL     1     -42.191  56.941 -54.528  1.00  0.00    -0.218 N 
HETATM    4  C   UNL     1     -41.580  55.759 -54.960  1.00  0.00     0.136 C 
HETATM    5  N   UNL     1     -41.955  55.511 -56.202  1.00  0.00    -0.216 NA
ENDROOT
BRANCH   1   6
HETATM    6  C   UNL     1     -43.613  56.559 -57.760  1.00  0.00     0.087 C 
BRANCH   6   7
HETATM    7  C   UNL     1     -42.737  56.919 -58.983  1.00  0.00    -0.004 C 
HETATM    8  C   UNL     1     -41.904  58.202 -58.813  1.00  0.00     0.032 C 
HETATM    9  C   UNL     1     -42.754  59.465 -58.794  1.00  0.00     0.234 C 
HETATM   10  N   UNL     1     -43.565  59.534 -60.066  1.00  0.00    -0.075 N 
HETATM   11  C   UNL     1     -44.353  60.817 -60.151  1.00  0.00     0.269 C 
HETATM   12  H   UNL     1     -42.898  59.563 -60.851  1.00  0.00     0.279 HD
HETATM   13  C   UNL     1     -44.446  58.328 -60.273  1.00  0.00     0.234 C 
HETATM   14  C   UNL     1     -43.599  57.058 -60.253  1.00  0.00     0.032 C 
ENDBRANCH   6   7
ENDBRANCH   1   6
BRANCH   3  15
HETATM   15  C   UNL     1     -42.035  57.726 -53.350  1.00  0.00     0.062 A 
HETATM   16  C   UNL     1     -40.779  58.107 -52.865  1.00  0.00     0.058 A 
HETATM   17  C   UNL     1     -40.681  58.878 -51.700  1.00  0.00     0.074 A 
HETATM   18 CL   UNL     1     -39.118  59.312 -51.124  1.00  0.00    -0.081 Cl
HETATM   19  C   UNL     1     -41.828  59.284 -51.025  1.00  0.00     0.138 A 
HETATM   20  F   UNL     1     -41.745  60.019 -49.909  1.00  0.00    -0.204 F 
HETATM   21  C   UNL     1     -43.082  58.937 -51.510  1.00  0.00     0.046 A 
HETATM   22  C   UNL     1     -43.188  58.167 -52.672  1.00  0.00     0.035 A 
ENDBRANCH   3  15
BRANCH   4  23
HETATM   23  C   UNL     1     -40.747  54.818 -54.151  1.00  0.00     0.084 C 
HETATM   24  C   UNL     1     -40.211  53.650 -54.992  1.00  0.00     0.244 C 
HETATM   25  N   UNL     1     -39.947  52.551 -53.996  1.00  0.00    -0.074 N 
HETATM   26  H   UNL     1     -40.291  51.651 -54.362  1.00  0.00     0.277 HD
HETATM   27  H   UNL     1     -38.937  52.423 -53.840  1.00  0.00     0.277 HD
HETATM   28  C   UNL     1     -40.637  52.903 -52.714  1.00  0.00     0.233 C 
HETATM   29  C   UNL     1     -41.537  54.073 -53.077  1.00  0.00     0.041 C 
ENDBRANCH   4  23
TORSDOF 4
ENDMDL
MODEL 10
REMARK VINA RESULT:      -7.4      4.450      8.603
REMARK  4 active torsions:
REMARK  status: ('A' for Active; 'I' for Inactive)
REMARK    1  A    between atoms: C_6  and  C_7 
REMARK    2  A    between atoms: C_7  and  C_8 
REMARK    3  A    between atoms: N_10  and  C_11 
REMARK    4  A    between atoms: C_19  and  C_20 
ROOT
HETATM    1  C   UNL     1     -42.758  56.350 -55.899  1.00  0.00     0.149 C 
HETATM    2  N   UNL     1     -42.147  57.495 -56.191  1.00  0.00    -0.150 NA
HETATM    3  N   UNL     1     -42.553  57.750 -57.465  1.00  0.00    -0.218 N 
HETATM    4  C   UNL     1     -43.260  56.638 -57.933  1.00  0.00     0.136 C 
HETATM    5  N   UNL     1     -43.442  55.792 -56.934  1.00  0.00    -0.216 NA
ENDROOT
BRANCH   1   6
HETATM    6  C   UNL     1     -42.627  55.698 -54.567  1.00  0.00     0.087 C 
BRANCH   6   7
HETATM    7  C   UNL     1     -41.188  55.705 -53.998  1.00  0.00    -0.004 C 
HETATM    8  C   UNL     1     -40.131  55.088 -54.933  1.00  0.00     0.032 C 
HETATM    9  C   UNL     1     -40.282  53.581 -55.087  1.00  0.00     0.234 C 
HETATM   10  N   UNL     1     -40.212  52.935 -53.724  1.00  0.00    -0.075 N 
HETATM   11  C   UNL     1     -40.253  51.431 -53.822  1.00  0.00     0.269 C 
HETATM   12  H   UNL     1     -39.291  53.164 -53.325  1.00  0.00     0.279 HD
HETATM   13  C   UNL     1     -41.255  53.457 -52.769  1.00  0.00     0.234 C 
HETATM   14  C   UNL     1     -41.131  54.973 -52.643  1.00  0.00     0.032 C 
ENDBRANCH   6   7
ENDBRANCH   1   6
BRANCH   3  15
HETATM   15  C   UNL     1     -42.213  58.994 -58.069  1.00  0.00     0.062 A 
HETATM   16  C   UNL     1     -42.195  59.172 -59.457  1.00  0.00     0.058 A 
HETATM   17  C   UNL     1     -41.851  60.416 -60.000  1.00  0.00     0.074 A 
HETATM   18 CL   UNL     1     -41.823  60.592 -61.713  1.00  0.00    -0.081 Cl
HETATM   19  C   UNL     1     -41.542  61.488 -59.169  1.00  0.00     0.138 A 
HETATM   20  F   UNL     1     -41.210  62.680 -59.678  1.00  0.00    -0.204 F 
HETATM   21  C   UNL     1     -41.583  61.334 -57.789  1.00  0.00     0.046 A 
HETATM   22  C   UNL     1     -41.924  60.094 -57.238  1.00  0.00     0.035 A 
ENDBRANCH   3  15
BRANCH   4  23
HETATM   23  C   UNL     1     -43.649  56.335 -59.344  1.00  0.00     0.084 C 
HETATM   24  C   UNL     1     -44.906  57.101 -59.777  1.00  0.00     0.244 C 
HETATM   25  N   UNL     1     -45.486  56.282 -60.901  1.00  0.00    -0.074 N 
HETATM   26  H   UNL     1     -46.508  56.201 -60.790  1.00  0.00     0.277 HD
HETATM   27  H   UNL     1     -45.339  56.741 -61.812  1.00  0.00     0.277 HD
HETATM   28  C   UNL     1     -44.839  54.932 -60.880  1.00  0.00     0.233 C 
HETATM   29  C   UNL     1     -44.093  54.890 -59.556  1.00  0.00     0.041 C 
ENDBRANCH   4  23
TORSDOF 4
ENDMDL
