MODEL 1
REMARK VINA RESULT:      -7.9      0.000      0.000
REMARK  6 active torsions:
REMARK  status: ('A' for Active; 'I' for Inactive)
REMARK    1  A    between atoms: C_2  and  N_3 
REMARK    2  A    between atoms: C_2  and  C_24 
REMARK       I    between atoms: N_3  and  C_4 
REMARK    3  A    between atoms: C_4  and  C_5 
REMARK    4  A    between atoms: C_5  and  N_6 
REMARK    5  A    between atoms: C_10  and  N_11 
REMARK       I    between atoms: N_11  and  C_12 
REMARK       I    between atoms: C_12  and  N_13 
REMARK    6  A    between atoms: N_13  and  C_14 
ROOT
HETATM    1  N   UNL     1     -43.351  59.009 -55.131  1.00  0.00    -0.063 N 
HETATM    2  H   UNL     1     -44.107  59.512 -55.620  1.00  0.00     0.280 HD
HETATM    3  C   UNL     1     -42.232  58.844 -56.131  1.00  0.00     0.237 C 
HETATM    4  C   UNL     1     -42.528  57.746 -57.133  1.00  0.00     0.053 C 
HETATM    5  C   UNL     1     -42.903  56.417 -56.488  1.00  0.00     0.089 C 
HETATM    6  C   UNL     1     -44.054  56.601 -55.503  1.00  0.00     0.053 C 
HETATM    7  C   UNL     1     -43.903  57.748 -54.519  1.00  0.00     0.237 C 
ENDROOT
BRANCH   1   8
HETATM    8  C   UNL     1     -42.907  59.955 -53.997  1.00  0.00     0.337 C 
BRANCH   8   9
HETATM    9  C   UNL     1     -41.734  59.394 -53.196  1.00  0.00     0.244 C 
HETATM   10  N   UNL     1     -42.081  58.694 -52.071  1.00  0.00    -0.351 N 
HETATM   11  H   UNL     1     -43.038  58.684 -51.733  1.00  0.00     0.163 HD
HETATM   12  O   UNL     1     -40.583  59.524 -53.607  1.00  0.00    -0.272 OA
BRANCH  10  13
HETATM   13  C   UNL     1     -41.098  58.073 -51.193  1.00  0.00     0.120 C 
HETATM   14  C   UNL     1     -40.738  58.984 -50.023  1.00  0.00     0.038 C 
BRANCH  13  15
HETATM   15  C   UNL     1     -41.652  56.747 -50.732  1.00  0.00     0.005 A 
HETATM   16  S   UNL     1     -43.170  56.161 -51.293  1.00  0.00    -0.104 SA
HETATM   17  C   UNL     1     -43.044  54.734 -50.364  1.00  0.00     0.050 A 
HETATM   18  C   UNL     1     -41.876  54.694 -49.637  1.00  0.00     0.008 A 
HETATM   19  C   UNL     1     -41.074  55.853 -49.848  1.00  0.00     0.017 A 
ENDBRANCH  13  15
ENDBRANCH  10  13
ENDBRANCH   8   9
ENDBRANCH   1   8
BRANCH   5  20
HETATM   20  N   UNL     1     -41.745  55.664 -56.004  1.00  0.00    -0.338 N 
HETATM   21  C   UNL     1     -41.763  54.488 -55.292  1.00  0.00     0.321 C 
HETATM   22  N   UNL     1     -40.547  54.219 -54.716  1.00  0.00    -0.309 N 
HETATM   23  O   UNL     1     -42.790  53.839 -55.140  1.00  0.00    -0.247 OA
HETATM   24  H   UNL     1     -39.885  54.982 -54.689  1.00  0.00     0.170 HD
HETATM   25  H   UNL     1     -40.835  55.958 -56.340  1.00  0.00     0.164 HD
BRANCH  22  26
HETATM   26  C   UNL     1     -40.254  53.125 -53.872  1.00  0.00     0.036 A 
HETATM   27  C   UNL     1     -40.165  53.226 -52.481  1.00  0.00     0.029 A 
HETATM   28  C   UNL     1     -39.840  52.109 -51.707  1.00  0.00     0.002 A 
HETATM   29  C   UNL     1     -39.603  50.881 -52.318  1.00  0.00     0.000 A 
HETATM   30  C   UNL     1     -39.708  50.765 -53.702  1.00  0.00     0.002 A 
HETATM   31  C   UNL     1     -40.043  51.879 -54.475  1.00  0.00     0.029 A 
ENDBRANCH  22  26
ENDBRANCH   5  20
TORSDOF 6
ENDMDL
MODEL 2
REMARK VINA RESULT:      -7.7      1.118      1.549
REMARK  6 active torsions:
REMARK  status: ('A' for Active; 'I' for Inactive)
REMARK    1  A    between atoms: C_2  and  N_3 
REMARK    2  A    between atoms: C_2  and  C_24 
REMARK       I    between atoms: N_3  and  C_4 
REMARK    3  A    between atoms: C_4  and  C_5 
REMARK    4  A    between atoms: C_5  and  N_6 
REMARK    5  A    between atoms: C_10  and  N_11 
REMARK       I    between atoms: N_11  and  C_12 
REMARK       I    between atoms: C_12  and  N_13 
REMARK    6  A    between atoms: N_13  and  C_14 
ROOT
HETATM    1  N   UNL     1     -43.138  59.320 -56.024  1.00  0.00    -0.063 N 
HETATM    2  H   UNL     1     -43.923  59.743 -56.543  1.00  0.00     0.280 HD
HETATM    3  C   UNL     1     -42.163  58.818 -57.063  1.00  0.00     0.237 C 
HETATM    4  C   UNL     1     -42.638  57.532 -57.708  1.00  0.00     0.053 C 
HETATM    5  C   UNL     1     -42.996  56.442 -56.704  1.00  0.00     0.089 C 
HETATM    6  C   UNL     1     -44.004  56.961 -55.682  1.00  0.00     0.053 C 
HETATM    7  C   UNL     1     -43.672  58.302 -55.051  1.00  0.00     0.237 C 
ENDROOT
BRANCH   1   8
HETATM    8  C   UNL     1     -42.507  60.481 -55.230  1.00  0.00     0.337 C 
BRANCH   8   9
HETATM    9  C   UNL     1     -41.876  60.014 -53.919  1.00  0.00     0.244 C 
HETATM   10  N   UNL     1     -42.648  60.202 -52.803  1.00  0.00    -0.351 N 
HETATM   11  H   UNL     1     -43.506  60.743 -52.843  1.00  0.00     0.163 HD
HETATM   12  O   UNL     1     -40.783  59.451 -53.922  1.00  0.00    -0.272 OA
BRANCH  10  13
HETATM   13  C   UNL     1     -42.218  59.804 -51.470  1.00  0.00     0.120 C 
HETATM   14  C   UNL     1     -42.769  60.744 -50.400  1.00  0.00     0.038 C 
BRANCH  13  15
HETATM   15  C   UNL     1     -42.646  58.375 -51.246  1.00  0.00     0.005 A 
HETATM   16  S   UNL     1     -44.301  57.909 -51.311  1.00  0.00    -0.104 SA
HETATM   17  C   UNL     1     -43.929  56.276 -50.979  1.00  0.00     0.050 A 
HETATM   18  C   UNL     1     -42.577  56.077 -50.819  1.00  0.00     0.008 A 
HETATM   19  C   UNL     1     -41.837  57.286 -50.973  1.00  0.00     0.017 A 
ENDBRANCH  13  15
ENDBRANCH  10  13
ENDBRANCH   8   9
ENDBRANCH   1   8
BRANCH   5  20
HETATM   20  N   UNL     1     -41.827  55.743 -56.170  1.00  0.00    -0.338 N 
HETATM   21  C   UNL     1     -41.826  54.615 -55.385  1.00  0.00     0.321 C 
HETATM   22  N   UNL     1     -40.607  54.406 -54.790  1.00  0.00    -0.309 N 
HETATM   23  O   UNL     1     -42.841  53.958 -55.193  1.00  0.00    -0.247 OA
HETATM   24  H   UNL     1     -39.960  55.181 -54.810  1.00  0.00     0.170 HD
HETATM   25  H   UNL     1     -40.922  56.032 -56.522  1.00  0.00     0.164 HD
BRANCH  22  26
HETATM   26  C   UNL     1     -40.298  53.374 -53.876  1.00  0.00     0.036 A 
HETATM   27  C   UNL     1     -39.909  52.089 -54.266  1.00  0.00     0.029 A 
HETATM   28  C   UNL     1     -39.649  51.104 -53.309  1.00  0.00     0.002 A 
HETATM   29  C   UNL     1     -39.775  51.397 -51.954  1.00  0.00     0.000 A 
HETATM   30  C   UNL     1     -40.143  52.679 -51.554  1.00  0.00     0.002 A 
HETATM   31  C   UNL     1     -40.393  53.666 -52.510  1.00  0.00     0.029 A 
ENDBRANCH  22  26
ENDBRANCH   5  20
TORSDOF 6
ENDMDL
MODEL 3
REMARK VINA RESULT:      -7.7      3.021      5.747
REMARK  6 active torsions:
REMARK  status: ('A' for Active; 'I' for Inactive)
REMARK    1  A    between atoms: C_2  and  N_3 
REMARK    2  A    between atoms: C_2  and  C_24 
REMARK       I    between atoms: N_3  and  C_4 
REMARK    3  A    between atoms: C_4  and  C_5 
REMARK    4  A    between atoms: C_5  and  N_6 
REMARK    5  A    between atoms: C_10  and  N_11 
REMARK       I    between atoms: N_11  and  C_12 
REMARK       I    between atoms: C_12  and  N_13 
REMARK    6  A    between atoms: N_13  and  C_14 
ROOT
HETATM    1  N   UNL     1     -42.656  58.774 -54.899  1.00  0.00    -0.063 N 
HETATM    2  H   UNL     1     -43.422  59.385 -54.580  1.00  0.00     0.280 HD
HETATM    3  C   UNL     1     -43.258  57.403 -55.097  1.00  0.00     0.237 C 
HETATM    4  C   UNL     1     -43.489  56.693 -53.779  1.00  0.00     0.053 C 
HETATM    5  C   UNL     1     -42.251  56.637 -52.891  1.00  0.00     0.089 C 
HETATM    6  C   UNL     1     -41.675  58.035 -52.680  1.00  0.00     0.053 C 
HETATM    7  C   UNL     1     -41.502  58.873 -53.935  1.00  0.00     0.237 C 
ENDROOT
BRANCH   1   8
HETATM    8  C   UNL     1     -42.215  59.355 -56.258  1.00  0.00     0.337 C 
BRANCH   8   9
HETATM    9  C   UNL     1     -43.360  59.405 -57.269  1.00  0.00     0.244 C 
HETATM   10  N   UNL     1     -43.206  58.594 -58.362  1.00  0.00    -0.351 N 
HETATM   11  H   UNL     1     -42.329  58.115 -58.541  1.00  0.00     0.163 HD
HETATM   12  O   UNL     1     -44.359  60.084 -57.041  1.00  0.00    -0.272 OA
BRANCH  10  13
HETATM   13  C   UNL     1     -44.202  58.499 -59.420  1.00  0.00     0.120 C 
HETATM   14  C   UNL     1     -43.758  59.245 -60.675  1.00  0.00     0.038 C 
BRANCH  13  15
HETATM   15  C   UNL     1     -44.461  57.037 -59.690  1.00  0.00     0.005 A 
HETATM   16  S   UNL     1     -46.002  56.477 -60.212  1.00  0.00    -0.104 SA
HETATM   17  C   UNL     1     -45.472  54.855 -60.274  1.00  0.00     0.050 A 
HETATM   18  C   UNL     1     -44.152  54.730 -59.905  1.00  0.00     0.008 A 
HETATM   19  C   UNL     1     -43.569  55.986 -59.568  1.00  0.00     0.017 A 
ENDBRANCH  13  15
ENDBRANCH  10  13
ENDBRANCH   8   9
ENDBRANCH   1   8
BRANCH   5  20
HETATM   20  N   UNL     1     -41.303  55.594 -53.287  1.00  0.00    -0.338 N 
HETATM   21  C   UNL     1     -41.424  54.242 -53.071  1.00  0.00     0.321 C 
HETATM   22  N   UNL     1     -40.235  53.585 -53.266  1.00  0.00    -0.309 N 
HETATM   23  O   UNL     1     -42.464  53.742 -52.664  1.00  0.00    -0.247 OA
HETATM   24  H   UNL     1     -39.407  54.160 -53.316  1.00  0.00     0.170 HD
HETATM   25  H   UNL     1     -40.548  55.874 -53.903  1.00  0.00     0.164 HD
BRANCH  22  26
HETATM   26  C   UNL     1     -40.010  52.205 -53.063  1.00  0.00     0.036 A 
HETATM   27  C   UNL     1     -40.061  51.256 -54.087  1.00  0.00     0.029 A 
HETATM   28  C   UNL     1     -39.860  49.901 -53.812  1.00  0.00     0.002 A 
HETATM   29  C   UNL     1     -39.605  49.484 -52.508  1.00  0.00     0.000 A 
HETATM   30  C   UNL     1     -39.534  50.423 -51.483  1.00  0.00     0.002 A 
HETATM   31  C   UNL     1     -39.724  51.779 -51.760  1.00  0.00     0.029 A 
ENDBRANCH  22  26
ENDBRANCH   5  20
TORSDOF 6
ENDMDL
MODEL 4
REMARK VINA RESULT:      -7.5      2.320      5.071
REMARK  6 active torsions:
REMARK  status: ('A' for Active; 'I' for Inactive)
REMARK    1  A    between atoms: C_2  and  N_3 
REMARK    2  A    between atoms: C_2  and  C_24 
REMARK       I    between atoms: N_3  and  C_4 
REMARK    3  A    between atoms: C_4  and  C_5 
REMARK    4  A    between atoms: C_5  and  N_6 
REMARK    5  A    between atoms: C_10  and  N_11 
REMARK       I    between atoms: N_11  and  C_12 
REMARK       I    between atoms: C_12  and  N_13 
REMARK    6  A    between atoms: N_13  and  C_14 
ROOT
HETATM    1  N   UNL     1     -43.423  58.712 -52.527  1.00  0.00    -0.063 N 
HETATM    2  H   UNL     1     -44.028  59.228 -51.871  1.00  0.00     0.280 HD
HETATM    3  C   UNL     1     -43.972  57.307 -52.598  1.00  0.00     0.237 C 
HETATM    4  C   UNL     1     -43.605  56.495 -51.373  1.00  0.00     0.053 C 
HETATM    5  C   UNL     1     -42.113  56.497 -51.064  1.00  0.00     0.089 C 
HETATM    6  C   UNL     1     -41.584  57.926 -50.967  1.00  0.00     0.053 C 
HETATM    7  C   UNL     1     -41.985  58.855 -52.099  1.00  0.00     0.237 C 
ENDROOT
BRANCH   1   8
HETATM    8  C   UNL     1     -43.607  59.418 -53.885  1.00  0.00     0.337 C 
BRANCH   8   9
HETATM    9  C   UNL     1     -42.708  58.831 -54.973  1.00  0.00     0.244 C 
HETATM   10  N   UNL     1     -43.121  57.628 -55.481  1.00  0.00    -0.351 N 
HETATM   11  H   UNL     1     -43.885  57.112 -55.055  1.00  0.00     0.163 HD
HETATM   12  O   UNL     1     -41.734  59.461 -55.380  1.00  0.00    -0.272 OA
BRANCH  10  13
HETATM   13  C   UNL     1     -42.400  56.927 -56.534  1.00  0.00     0.120 C 
HETATM   14  C   UNL     1     -41.806  55.615 -56.028  1.00  0.00     0.038 C 
BRANCH  13  15
HETATM   15  C   UNL     1     -43.347  56.714 -57.689  1.00  0.00     0.005 A 
HETATM   16  S   UNL     1     -44.530  57.890 -58.112  1.00  0.00    -0.104 SA
HETATM   17  C   UNL     1     -45.115  56.941 -59.406  1.00  0.00     0.050 A 
HETATM   18  C   UNL     1     -44.432  55.753 -59.523  1.00  0.00     0.008 A 
HETATM   19  C   UNL     1     -43.414  55.621 -58.534  1.00  0.00     0.017 A 
ENDBRANCH  13  15
ENDBRANCH  10  13
ENDBRANCH   8   9
ENDBRANCH   1   8
BRANCH   5  20
HETATM   20  N   UNL     1     -41.348  55.574 -51.904  1.00  0.00    -0.338 N 
HETATM   21  C   UNL     1     -41.406  54.201 -51.889  1.00  0.00     0.321 C 
HETATM   22  N   UNL     1     -40.346  53.637 -52.552  1.00  0.00    -0.309 N 
HETATM   23  O   UNL     1     -42.268  53.596 -51.265  1.00  0.00    -0.247 OA
HETATM   24  H   UNL     1     -39.571  54.249 -52.763  1.00  0.00     0.170 HD
HETATM   25  H   UNL     1     -40.824  55.982 -52.670  1.00  0.00     0.164 HD
BRANCH  22  26
HETATM   26  C   UNL     1     -40.080  52.253 -52.662  1.00  0.00     0.036 A 
HETATM   27  C   UNL     1     -40.152  51.547 -53.866  1.00  0.00     0.029 A 
HETATM   28  C   UNL     1     -39.908  50.172 -53.898  1.00  0.00     0.002 A 
HETATM   29  C   UNL     1     -39.589  49.491 -52.726  1.00  0.00     0.000 A 
HETATM   30  C   UNL     1     -39.496  50.189 -51.524  1.00  0.00     0.002 A 
HETATM   31  C   UNL     1     -39.730  51.566 -51.494  1.00  0.00     0.029 A 
ENDBRANCH  22  26
ENDBRANCH   5  20
TORSDOF 6
ENDMDL
MODEL 5
REMARK VINA RESULT:      -7.1     15.503     17.812
REMARK  6 active torsions:
REMARK  status: ('A' for Active; 'I' for Inactive)
REMARK    1  A    between atoms: C_2  and  N_3 
REMARK    2  A    between atoms: C_2  and  C_24 
REMARK       I    between atoms: N_3  and  C_4 
REMARK    3  A    between atoms: C_4  and  C_5 
REMARK    4  A    between atoms: C_5  and  N_6 
REMARK    5  A    between atoms: C_10  and  N_11 
REMARK       I    between atoms: N_11  and  C_12 
REMARK       I    between atoms: C_12  and  N_13 
REMARK    6  A    between atoms: N_13  and  C_14 
ROOT
HETATM    1  N   UNL     1     -36.544  41.411 -55.523  1.00  0.00    -0.063 N 
HETATM    2  H   UNL     1     -35.856  42.133 -55.261  1.00  0.00     0.280 HD
HETATM    3  C   UNL     1     -35.750  40.188 -55.916  1.00  0.00     0.237 C 
HETATM    4  C   UNL     1     -35.138  40.332 -57.295  1.00  0.00     0.053 C 
HETATM    5  C   UNL     1     -36.147  40.714 -58.372  1.00  0.00     0.089 C 
HETATM    6  C   UNL     1     -36.918  41.967 -57.968  1.00  0.00     0.053 C 
HETATM    7  C   UNL     1     -37.485  41.968 -56.559  1.00  0.00     0.237 C 
ENDROOT
BRANCH   1   8
HETATM    8  C   UNL     1     -37.341  41.127 -54.234  1.00  0.00     0.337 C 
BRANCH   8   9
HETATM    9  C   UNL     1     -36.561  41.497 -52.973  1.00  0.00     0.244 C 
HETATM   10  N   UNL     1     -36.356  40.467 -52.093  1.00  0.00    -0.351 N 
HETATM   11  H   UNL     1     -36.818  39.572 -52.216  1.00  0.00     0.163 HD
HETATM   12  O   UNL     1     -36.109  42.632 -52.834  1.00  0.00    -0.272 OA
BRANCH  10  13
HETATM   13  C   UNL     1     -35.620  40.629 -50.847  1.00  0.00     0.120 C 
HETATM   14  C   UNL     1     -36.274  39.854 -49.707  1.00  0.00     0.038 C 
BRANCH  13  15
HETATM   15  C   UNL     1     -34.194  40.197 -51.085  1.00  0.00     0.005 A 
HETATM   16  S   UNL     1     -33.761  39.228 -52.439  1.00  0.00    -0.104 SA
HETATM   17  C   UNL     1     -32.114  39.205 -51.987  1.00  0.00     0.050 A 
HETATM   18  C   UNL     1     -31.887  39.916 -50.831  1.00  0.00     0.008 A 
HETATM   19  C   UNL     1     -33.085  40.488 -50.311  1.00  0.00     0.017 A 
ENDBRANCH  13  15
ENDBRANCH  10  13
ENDBRANCH   8   9
ENDBRANCH   1   8
BRANCH   5  20
HETATM   20  N   UNL     1     -36.945  39.581 -58.843  1.00  0.00    -0.338 N 
HETATM   21  C   UNL     1     -37.660  39.504 -60.015  1.00  0.00     0.321 C 
HETATM   22  N   UNL     1     -38.547  38.457 -60.005  1.00  0.00    -0.309 N 
HETATM   23  O   UNL     1     -37.551  40.346 -60.896  1.00  0.00    -0.247 OA
HETATM   24  H   UNL     1     -38.728  38.031 -59.108  1.00  0.00     0.170 HD
HETATM   25  H   UNL     1     -36.855  38.713 -58.327  1.00  0.00     0.164 HD
BRANCH  22  26
HETATM   26  C   UNL     1     -39.471  38.146 -61.028  1.00  0.00     0.036 A 
HETATM   27  C   UNL     1     -39.095  37.798 -62.327  1.00  0.00     0.029 A 
HETATM   28  C   UNL     1     -40.062  37.533 -63.301  1.00  0.00     0.002 A 
HETATM   29  C   UNL     1     -41.415  37.613 -62.980  1.00  0.00     0.000 A 
HETATM   30  C   UNL     1     -41.800  37.941 -61.684  1.00  0.00     0.002 A 
HETATM   31  C   UNL     1     -40.833  38.195 -60.708  1.00  0.00     0.029 A 
ENDBRANCH  22  26
ENDBRANCH   5  20
TORSDOF 6
ENDMDL
MODEL 6
REMARK VINA RESULT:      -6.9      5.906      8.850
REMARK  6 active torsions:
REMARK  status: ('A' for Active; 'I' for Inactive)
REMARK    1  A    between atoms: C_2  and  N_3 
REMARK    2  A    between atoms: C_2  and  C_24 
REMARK       I    between atoms: N_3  and  C_4 
REMARK    3  A    between atoms: C_4  and  C_5 
REMARK    4  A    between atoms: C_5  and  N_6 
REMARK    5  A    between atoms: C_10  and  N_11 
REMARK       I    between atoms: N_11  and  C_12 
REMARK       I    between atoms: C_12  and  N_13 
REMARK    6  A    between atoms: N_13  and  C_14 
ROOT
HETATM    1  N   UNL     1     -45.658  56.638 -60.116  1.00  0.00    -0.063 N 
HETATM    2  H   UNL     1     -45.468  57.369 -60.818  1.00  0.00     0.280 HD
HETATM    3  C   UNL     1     -45.563  57.309 -58.766  1.00  0.00     0.237 C 
HETATM    4  C   UNL     1     -44.125  57.552 -58.357  1.00  0.00     0.053 C 
HETATM    5  C   UNL     1     -43.253  56.304 -58.424  1.00  0.00     0.089 C 
HETATM    6  C   UNL     1     -43.340  55.658 -59.804  1.00  0.00     0.053 C 
HETATM    7  C   UNL     1     -44.743  55.466 -60.354  1.00  0.00     0.237 C 
ENDROOT
BRANCH   1   8
HETATM    8  C   UNL     1     -47.111  56.193 -60.380  1.00  0.00     0.337 C 
BRANCH   8   9
HETATM    9  C   UNL     1     -47.711  56.865 -61.614  1.00  0.00     0.244 C 
HETATM   10  N   UNL     1     -47.761  58.233 -61.563  1.00  0.00    -0.351 N 
HETATM   11  H   UNL     1     -47.546  58.735 -60.708  1.00  0.00     0.163 HD
HETATM   12  O   UNL     1     -48.046  56.192 -62.587  1.00  0.00    -0.272 OA
BRANCH  10  13
HETATM   13  C   UNL     1     -48.285  59.045 -62.654  1.00  0.00     0.120 C 
HETATM   14  C   UNL     1     -49.793  59.241 -62.530  1.00  0.00     0.038 C 
BRANCH  13  15
HETATM   15  C   UNL     1     -47.539  60.357 -62.662  1.00  0.00     0.005 A 
HETATM   16  S   UNL     1     -48.183  61.753 -63.433  1.00  0.00    -0.104 SA
HETATM   17  C   UNL     1     -46.828  62.702 -63.006  1.00  0.00     0.050 A 
HETATM   18  C   UNL     1     -45.899  61.981 -62.293  1.00  0.00     0.008 A 
HETATM   19  C   UNL     1     -46.307  60.629 -62.095  1.00  0.00     0.017 A 
ENDBRANCH  13  15
ENDBRANCH  10  13
ENDBRANCH   8   9
ENDBRANCH   1   8
BRANCH   5  20
HETATM   20  N   UNL     1     -43.430  55.414 -57.275  1.00  0.00    -0.338 N 
HETATM   21  C   UNL     1     -42.659  55.368 -56.139  1.00  0.00     0.321 C 
HETATM   22  N   UNL     1     -42.881  54.224 -55.414  1.00  0.00    -0.309 N 
HETATM   23  O   UNL     1     -41.818  56.223 -55.891  1.00  0.00    -0.247 OA
HETATM   24  H   UNL     1     -43.383  53.485 -55.886  1.00  0.00     0.170 HD
HETATM   25  H   UNL     1     -44.284  54.870 -57.246  1.00  0.00     0.164 HD
BRANCH  22  26
HETATM   26  C   UNL     1     -42.203  53.846 -54.234  1.00  0.00     0.036 A 
HETATM   27  C   UNL     1     -42.621  54.215 -52.952  1.00  0.00     0.029 A 
HETATM   28  C   UNL     1     -41.884  53.835 -51.828  1.00  0.00     0.002 A 
HETATM   29  C   UNL     1     -40.724  53.079 -51.976  1.00  0.00     0.000 A 
HETATM   30  C   UNL     1     -40.310  52.690 -53.246  1.00  0.00     0.002 A 
HETATM   31  C   UNL     1     -41.052  53.062 -54.370  1.00  0.00     0.029 A 
ENDBRANCH  22  26
ENDBRANCH   5  20
TORSDOF 6
ENDMDL
MODEL 7
REMARK VINA RESULT:      -6.9      3.186      5.797
REMARK  6 active torsions:
REMARK  status: ('A' for Active; 'I' for Inactive)
REMARK    1  A    between atoms: C_2  and  N_3 
REMARK    2  A    between atoms: C_2  and  C_24 
REMARK       I    between atoms: N_3  and  C_4 
REMARK    3  A    between atoms: C_4  and  C_5 
REMARK    4  A    between atoms: C_5  and  N_6 
REMARK    5  A    between atoms: C_10  and  N_11 
REMARK       I    between atoms: N_11  and  C_12 
REMARK       I    between atoms: C_12  and  N_13 
REMARK    6  A    between atoms: N_13  and  C_14 
ROOT
HETATM    1  N   UNL     1     -44.680  59.662 -55.653  1.00  0.00    -0.063 N 
HETATM    2  H   UNL     1     -45.668  59.954 -55.620  1.00  0.00     0.280 HD
HETATM    3  C   UNL     1     -44.675  58.231 -56.135  1.00  0.00     0.237 C 
HETATM    4  C   UNL     1     -45.089  57.266 -55.043  1.00  0.00     0.053 C 
HETATM    5  C   UNL     1     -44.290  57.425 -53.754  1.00  0.00     0.089 C 
HETATM    6  C   UNL     1     -44.332  58.871 -53.269  1.00  0.00     0.053 C 
HETATM    7  C   UNL     1     -44.034  59.928 -54.318  1.00  0.00     0.237 C 
ENDROOT
BRANCH   1   8
HETATM    8  C   UNL     1     -44.025  60.574 -56.710  1.00  0.00     0.337 C 
BRANCH   8   9
HETATM    9  C   UNL     1     -44.302  60.104 -58.137  1.00  0.00     0.244 C 
HETATM   10  N   UNL     1     -43.304  59.360 -58.708  1.00  0.00    -0.351 N 
HETATM   11  H   UNL     1     -42.399  59.262 -58.257  1.00  0.00     0.163 HD
HETATM   12  O   UNL     1     -45.385  60.340 -58.669  1.00  0.00    -0.272 OA
BRANCH  10  13
HETATM   13  C   UNL     1     -43.398  58.813 -60.054  1.00  0.00     0.120 C 
HETATM   14  C   UNL     1     -42.067  58.914 -60.794  1.00  0.00     0.038 C 
BRANCH  13  15
HETATM   15  C   UNL     1     -43.885  57.389 -59.949  1.00  0.00     0.005 A 
HETATM   16  S   UNL     1     -45.537  56.980 -60.206  1.00  0.00    -0.104 SA
HETATM   17  C   UNL     1     -45.245  55.322 -59.921  1.00  0.00     0.050 A 
HETATM   18  C   UNL     1     -43.922  55.073 -59.634  1.00  0.00     0.008 A 
HETATM   19  C   UNL     1     -43.138  56.263 -59.650  1.00  0.00     0.017 A 
ENDBRANCH  13  15
ENDBRANCH  10  13
ENDBRANCH   8   9
ENDBRANCH   1   8
BRANCH   5  20
HETATM   20  N   UNL     1     -42.970  56.794 -53.812  1.00  0.00    -0.338 N 
HETATM   21  C   UNL     1     -42.683  55.461 -53.642  1.00  0.00     0.321 C 
HETATM   22  N   UNL     1     -41.344  55.248 -53.432  1.00  0.00    -0.309 N 
HETATM   23  O   UNL     1     -43.562  54.610 -53.597  1.00  0.00    -0.247 OA
HETATM   24  H   UNL     1     -40.790  56.063 -53.210  1.00  0.00     0.170 HD
HETATM   25  H   UNL     1     -42.204  57.368 -54.146  1.00  0.00     0.164 HD
BRANCH  22  26
HETATM   26  C   UNL     1     -40.737  54.002 -53.160  1.00  0.00     0.036 A 
HETATM   27  C   UNL     1     -40.393  53.078 -54.151  1.00  0.00     0.029 A 
HETATM   28  C   UNL     1     -39.824  51.849 -53.810  1.00  0.00     0.002 A 
HETATM   29  C   UNL     1     -39.592  51.534 -52.473  1.00  0.00     0.000 A 
HETATM   30  C   UNL     1     -39.912  52.455 -51.480  1.00  0.00     0.002 A 
HETATM   31  C   UNL     1     -40.471  53.688 -51.822  1.00  0.00     0.029 A 
ENDBRANCH  22  26
ENDBRANCH   5  20
TORSDOF 6
ENDMDL
MODEL 8
REMARK VINA RESULT:      -6.9      1.989      2.772
REMARK  6 active torsions:
REMARK  status: ('A' for Active; 'I' for Inactive)
REMARK    1  A    between atoms: C_2  and  N_3 
REMARK    2  A    between atoms: C_2  and  C_24 
REMARK       I    between atoms: N_3  and  C_4 
REMARK    3  A    between atoms: C_4  and  C_5 
REMARK    4  A    between atoms: C_5  and  N_6 
REMARK    5  A    between atoms: C_10  and  N_11 
REMARK       I    between atoms: N_11  and  C_12 
REMARK       I    between atoms: C_12  and  N_13 
REMARK    6  A    between atoms: N_13  and  C_14 
ROOT
HETATM    1  N   UNL     1     -43.145  59.541 -57.277  1.00  0.00    -0.063 N 
HETATM    2  H   UNL     1     -43.905  59.933 -57.852  1.00  0.00     0.280 HD
HETATM    3  C   UNL     1     -42.199  58.853 -58.233  1.00  0.00     0.237 C 
HETATM    4  C   UNL     1     -42.744  57.520 -58.705  1.00  0.00     0.053 C 
HETATM    5  C   UNL     1     -43.161  56.595 -57.569  1.00  0.00     0.089 C 
HETATM    6  C   UNL     1     -44.138  57.299 -56.631  1.00  0.00     0.053 C 
HETATM    7  C   UNL     1     -43.734  58.692 -56.181  1.00  0.00     0.237 C 
ENDROOT
BRANCH   1   8
HETATM    8  C   UNL     1     -42.451  60.761 -56.639  1.00  0.00     0.337 C 
BRANCH   8   9
HETATM    9  C   UNL     1     -43.062  61.138 -55.290  1.00  0.00     0.244 C 
HETATM   10  N   UNL     1     -42.509  60.509 -54.206  1.00  0.00    -0.351 N 
HETATM   11  H   UNL     1     -41.848  59.748 -54.322  1.00  0.00     0.163 HD
HETATM   12  O   UNL     1     -43.934  62.001 -55.224  1.00  0.00    -0.272 OA
BRANCH  10  13
HETATM   13  C   UNL     1     -42.951  60.755 -52.841  1.00  0.00     0.120 C 
HETATM   14  C   UNL     1     -44.378  60.262 -52.617  1.00  0.00     0.038 C 
BRANCH  13  15
HETATM   15  C   UNL     1     -41.968  60.098 -51.903  1.00  0.00     0.005 A 
HETATM   16  S   UNL     1     -40.825  58.940 -52.464  1.00  0.00    -0.104 SA
HETATM   17  C   UNL     1     -40.169  58.726 -50.902  1.00  0.00     0.050 A 
HETATM   18  C   UNL     1     -40.799  59.512 -49.966  1.00  0.00     0.008 A 
HETATM   19  C   UNL     1     -41.836  60.303 -50.541  1.00  0.00     0.017 A 
ENDBRANCH  13  15
ENDBRANCH  10  13
ENDBRANCH   8   9
ENDBRANCH   1   8
BRANCH   5  20
HETATM   20  N   UNL     1     -42.032  55.910 -56.938  1.00  0.00    -0.338 N 
HETATM   21  C   UNL     1     -42.089  54.979 -55.929  1.00  0.00     0.321 C 
HETATM   22  N   UNL     1     -40.862  54.779 -55.347  1.00  0.00    -0.309 N 
HETATM   23  O   UNL     1     -43.147  54.483 -55.564  1.00  0.00    -0.247 OA
HETATM   24  H   UNL     1     -40.149  55.463 -55.557  1.00  0.00     0.170 HD
HETATM   25  H   UNL     1     -41.125  56.026 -57.376  1.00  0.00     0.164 HD
BRANCH  22  26
HETATM   26  C   UNL     1     -40.597  53.937 -54.244  1.00  0.00     0.036 A 
HETATM   27  C   UNL     1     -40.780  54.326 -52.914  1.00  0.00     0.029 A 
HETATM   28  C   UNL     1     -40.467  53.453 -51.869  1.00  0.00     0.002 A 
HETATM   29  C   UNL     1     -39.969  52.183 -52.145  1.00  0.00     0.000 A 
HETATM   30  C   UNL     1     -39.801  51.778 -53.467  1.00  0.00     0.002 A 
HETATM   31  C   UNL     1     -40.124  52.647 -54.512  1.00  0.00     0.029 A 
ENDBRANCH  22  26
ENDBRANCH   5  20
TORSDOF 6
ENDMDL
MODEL 9
REMARK VINA RESULT:      -6.9      3.151      6.058
REMARK  6 active torsions:
REMARK  status: ('A' for Active; 'I' for Inactive)
REMARK    1  A    between atoms: C_2  and  N_3 
REMARK    2  A    between atoms: C_2  and  C_24 
REMARK       I    between atoms: N_3  and  C_4 
REMARK    3  A    between atoms: C_4  and  C_5 
REMARK    4  A    between atoms: C_5  and  N_6 
REMARK    5  A    between atoms: C_10  and  N_11 
REMARK       I    between atoms: N_11  and  C_12 
REMARK       I    between atoms: C_12  and  N_13 
REMARK    6  A    between atoms: N_13  and  C_14 
ROOT
HETATM    1  N   UNL     1     -43.214  56.920 -53.175  1.00  0.00    -0.063 N 
HETATM    2  H   UNL     1     -43.829  57.733 -53.023  1.00  0.00     0.280 HD
HETATM    3  C   UNL     1     -43.594  55.897 -52.132  1.00  0.00     0.237 C 
HETATM    4  C   UNL     1     -43.047  56.255 -50.765  1.00  0.00     0.053 C 
HETATM    5  C   UNL     1     -41.548  56.527 -50.761  1.00  0.00     0.089 C 
HETATM    6  C   UNL     1     -41.189  57.584 -51.801  1.00  0.00     0.053 C 
HETATM    7  C   UNL     1     -41.778  57.374 -53.186  1.00  0.00     0.237 C 
ENDROOT
BRANCH   1   8
HETATM    8  C   UNL     1     -43.578  56.398 -54.580  1.00  0.00     0.337 C 
BRANCH   8   9
HETATM    9  C   UNL     1     -44.252  57.465 -55.442  1.00  0.00     0.244 C 
HETATM   10  N   UNL     1     -44.298  57.184 -56.782  1.00  0.00    -0.351 N 
HETATM   11  H   UNL     1     -43.791  56.396 -57.171  1.00  0.00     0.163 HD
HETATM   12  O   UNL     1     -44.763  58.452 -54.919  1.00  0.00    -0.272 OA
BRANCH  10  13
HETATM   13  C   UNL     1     -44.916  58.076 -57.753  1.00  0.00     0.120 C 
HETATM   14  C   UNL     1     -43.930  59.129 -58.252  1.00  0.00     0.038 C 
BRANCH  13  15
HETATM   15  C   UNL     1     -45.467  57.235 -58.878  1.00  0.00     0.005 A 
HETATM   16  S   UNL     1     -44.466  56.161 -59.774  1.00  0.00    -0.104 SA
HETATM   17  C   UNL     1     -45.767  55.654 -60.758  1.00  0.00     0.050 A 
HETATM   18  C   UNL     1     -46.943  56.282 -60.421  1.00  0.00     0.008 A 
HETATM   19  C   UNL     1     -46.772  57.194 -59.338  1.00  0.00     0.017 A 
ENDBRANCH  13  15
ENDBRANCH  10  13
ENDBRANCH   8   9
ENDBRANCH   1   8
BRANCH   5  20
HETATM   20  N   UNL     1     -40.739  55.307 -50.765  1.00  0.00    -0.338 N 
HETATM   21  C   UNL     1     -40.660  54.372 -51.769  1.00  0.00     0.321 C 
HETATM   22  N   UNL     1     -40.083  53.204 -51.338  1.00  0.00    -0.309 N 
HETATM   23  O   UNL     1     -41.145  54.567 -52.876  1.00  0.00    -0.247 OA
HETATM   24  H   UNL     1     -39.999  53.089 -50.338  1.00  0.00     0.170 HD
HETATM   25  H   UNL     1     -40.064  55.204 -50.017  1.00  0.00     0.164 HD
BRANCH  22  26
HETATM   26  C   UNL     1     -39.915  52.030 -52.106  1.00  0.00     0.036 A 
HETATM   27  C   UNL     1     -39.960  52.009 -53.502  1.00  0.00     0.029 A 
HETATM   28  C   UNL     1     -39.819  50.806 -54.200  1.00  0.00     0.002 A 
HETATM   29  C   UNL     1     -39.628  49.615 -53.505  1.00  0.00     0.000 A 
HETATM   30  C   UNL     1     -39.562  49.628 -52.114  1.00  0.00     0.002 A 
HETATM   31  C   UNL     1     -39.694  50.831 -51.418  1.00  0.00     0.029 A 
ENDBRANCH  22  26
ENDBRANCH   5  20
TORSDOF 6
ENDMDL
MODEL 10
REMARK VINA RESULT:      -6.8     15.944     18.575
REMARK  6 active torsions:
REMARK  status: ('A' for Active; 'I' for Inactive)
REMARK    1  A    between atoms: C_2  and  N_3 
REMARK    2  A    between atoms: C_2  and  C_24 
REMARK       I    between atoms: N_3  and  C_4 
REMARK    3  A    between atoms: C_4  and  C_5 
REMARK    4  A    between atoms: C_5  and  N_6 
REMARK    5  A    between atoms: C_10  and  N_11 
REMARK       I    between atoms: N_11  and  C_12 
REMARK       I    between atoms: C_12  and  N_13 
REMARK    6  A    between atoms: N_13  and  C_14 
ROOT
HETATM    1  N   UNL     1     -36.756  40.833 -57.861  1.00  0.00    -0.063 N 
HETATM    2  H   UNL     1     -37.235  41.553 -58.422  1.00  0.00     0.280 HD
HETATM    3  C   UNL     1     -37.766  40.337 -56.854  1.00  0.00     0.237 C 
HETATM    4  C   UNL     1     -37.960  41.320 -55.718  1.00  0.00     0.053 C 
HETATM    5  C   UNL     1     -36.659  41.738 -55.044  1.00  0.00     0.089 C 
HETATM    6  C   UNL     1     -35.663  42.263 -56.075  1.00  0.00     0.053 C 
HETATM    7  C   UNL     1     -35.474  41.399 -57.309  1.00  0.00     0.237 C 
ENDROOT
BRANCH   1   8
HETATM    8  C   UNL     1     -36.412  39.708 -58.858  1.00  0.00     0.337 C 
BRANCH   8   9
HETATM    9  C   UNL     1     -37.225  39.804 -60.148  1.00  0.00     0.244 C 
HETATM   10  N   UNL     1     -37.790  38.629 -60.566  1.00  0.00    -0.351 N 
HETATM   11  H   UNL     1     -37.557  37.746 -60.123  1.00  0.00     0.163 HD
HETATM   12  O   UNL     1     -37.391  40.891 -60.698  1.00  0.00    -0.272 OA
BRANCH  10  13
HETATM   13  C   UNL     1     -38.612  38.531 -61.765  1.00  0.00     0.120 C 
HETATM   14  C   UNL     1     -37.913  37.729 -62.859  1.00  0.00     0.038 C 
BRANCH  13  15
HETATM   15  C   UNL     1     -39.939  37.927 -61.376  1.00  0.00     0.005 A 
HETATM   16  S   UNL     1     -41.266  37.889 -62.471  1.00  0.00    -0.104 SA
HETATM   17  C   UNL     1     -42.274  37.108 -61.334  1.00  0.00     0.050 A 
HETATM   18  C   UNL     1     -41.625  36.878 -60.143  1.00  0.00     0.008 A 
HETATM   19  C   UNL     1     -40.280  37.349 -60.166  1.00  0.00     0.017 A 
ENDBRANCH  13  15
ENDBRANCH  10  13
ENDBRANCH   8   9
ENDBRANCH   1   8
BRANCH   5  20
HETATM   20  N   UNL     1     -36.153  40.742 -54.097  1.00  0.00    -0.338 N 
HETATM   21  C   UNL     1     -35.377  40.977 -52.988  1.00  0.00     0.321 C 
HETATM   22  N   UNL     1     -34.808  39.824 -52.508  1.00  0.00    -0.309 N 
HETATM   23  O   UNL     1     -35.170  42.109 -52.569  1.00  0.00    -0.247 OA
HETATM   24  H   UNL     1     -34.834  39.022 -53.121  1.00  0.00     0.170 HD
HETATM   25  H   UNL     1     -36.521  39.802 -54.184  1.00  0.00     0.164 HD
BRANCH  22  26
HETATM   26  C   UNL     1     -33.908  39.735 -51.422  1.00  0.00     0.036 A 
HETATM   27  C   UNL     1     -32.574  40.144 -51.490  1.00  0.00     0.029 A 
HETATM   28  C   UNL     1     -31.729  39.997 -50.386  1.00  0.00     0.002 A 
HETATM   29  C   UNL     1     -32.213  39.441 -49.205  1.00  0.00     0.000 A 
HETATM   30  C   UNL     1     -33.546  39.047 -49.121  1.00  0.00     0.002 A 
HETATM   31  C   UNL     1     -34.393  39.204 -50.221  1.00  0.00     0.029 A 
ENDBRANCH  22  26
ENDBRANCH   5  20
TORSDOF 6
ENDMDL
