MODEL 1
REMARK VINA RESULT:      -9.2      0.000      0.000
REMARK  8 active torsions:
REMARK  status: ('A' for Active; 'I' for Inactive)
REMARK    1  A    between atoms: C_4  and  O_5 
REMARK    2  A    between atoms: O_5  and  C_6 
REMARK    3  A    between atoms: C_6  and  C_7 
REMARK       I    between atoms: C_7  and  N_8 
REMARK    4  A    between atoms: N_8  and  C_9 
REMARK    5  A    between atoms: C_9  and  N_10 
REMARK    6  A    between atoms: N_10  and  C_11 
REMARK    7  A    between atoms: C_14  and  N_15 
REMARK    8  A    between atoms: N_18  and  C_19 
ROOT
HETATM    1  C   UNL     1     -43.955  60.545 -51.220  1.00  0.00     0.034 A 
HETATM    2  C   UNL     1     -44.781  59.480 -51.590  1.00  0.00     0.031 A 
HETATM    3  C   UNL     1     -44.304  58.160 -51.605  1.00  0.00     0.026 A 
HETATM    4  C   UNL     1     -42.982  57.854 -51.263  1.00  0.00     0.010 A 
HETATM    5  C   UNL     1     -42.148  58.947 -50.977  1.00  0.00     0.026 A 
HETATM    6  C   UNL     1     -42.624  60.270 -50.943  1.00  0.00     0.031 A 
ENDROOT
BRANCH   4   7
HETATM    7  N   UNL     1     -42.467  56.544 -51.232  1.00  0.00    -0.280 NA
HETATM    8  C   UNL     1     -41.006  56.387 -51.022  1.00  0.00     0.115 C 
HETATM    9  C   UNL     1     -40.609  54.902 -50.836  1.00  0.00     0.138 C 
HETATM   10  N   UNL     1     -41.086  54.082 -51.975  1.00  0.00    -0.374 N 
HETATM   11  C   UNL     1     -42.556  54.213 -52.155  1.00  0.00     0.138 C 
HETATM   12  C   UNL     1     -42.961  55.692 -52.350  1.00  0.00     0.115 C 
BRANCH  10  13
HETATM   13  C   UNL     1     -40.584  52.777 -52.143  1.00  0.00     0.115 A 
HETATM   14  C   UNL     1     -40.221  51.923 -51.081  1.00  0.00     0.187 A 
HETATM   15  F   UNL     1     -40.389  52.306 -49.805  1.00  0.00    -0.200 F 
HETATM   16  C   UNL     1     -39.702  50.646 -51.304  1.00  0.00     0.199 A 
HETATM   17  F   UNL     1     -39.382  49.868 -50.260  1.00  0.00    -0.199 F 
HETATM   18  C   UNL     1     -39.519  50.180 -52.593  1.00  0.00     0.199 A 
HETATM   19  F   UNL     1     -39.022  48.953 -52.802  1.00  0.00    -0.199 F 
HETATM   20  C   UNL     1     -39.849  50.988 -53.665  1.00  0.00     0.199 A 
HETATM   21  F   UNL     1     -39.664  50.549 -54.918  1.00  0.00    -0.199 F 
HETATM   22  C   UNL     1     -40.365  52.265 -53.443  1.00  0.00     0.187 A 
HETATM   23  F   UNL     1     -40.626  53.028 -54.518  1.00  0.00    -0.200 F 
ENDBRANCH  10  13
ENDBRANCH   4   7
BRANCH   1  24
HETATM   24  N   UNL     1     -44.559  61.818 -51.182  1.00  0.00    -0.333 N 
HETATM   25  H   UNL     1     -44.003  62.549 -51.628  1.00  0.00     0.168 HD
BRANCH  24  26
HETATM   26  C   UNL     1     -45.796  62.260 -50.772  1.00  0.00     0.178 C 
HETATM   27  S   UNL     1     -47.188  62.518 -51.659  1.00  0.00    -0.040 SA
BRANCH  26  28
HETATM   28  N   UNL     1     -45.871  62.585 -49.425  1.00  0.00    -0.302 N 
HETATM   29  C   UNL     1     -45.867  61.745 -48.319  1.00  0.00     0.248 C 
HETATM   30  O   UNL     1     -45.926  60.518 -48.393  1.00  0.00    -0.271 OA
HETATM   31  H   UNL     1     -45.803  63.581 -49.238  1.00  0.00     0.171 HD
BRANCH  29  32
HETATM   32  C   UNL     1     -45.815  62.481 -46.986  1.00  0.00     0.278 C 
BRANCH  32  33
HETATM   33  O   UNL     1     -45.235  61.709 -45.942  1.00  0.00    -0.342 OA
BRANCH  33  34
HETATM   34  C   UNL     1     -44.688  62.407 -44.898  1.00  0.00     0.069 A 
HETATM   35  C   UNL     1     -43.943  61.857 -43.853  1.00  0.00     0.037 A 
HETATM   36  C   UNL     1     -43.417  62.683 -42.854  1.00  0.00     0.003 A 
HETATM   37  C   UNL     1     -43.632  64.059 -42.896  1.00  0.00     0.000 A 
HETATM   38  C   UNL     1     -44.366  64.612 -43.943  1.00  0.00     0.003 A 
HETATM   39  C   UNL     1     -44.883  63.789 -44.944  1.00  0.00     0.037 A 
ENDBRANCH  33  34
ENDBRANCH  32  33
ENDBRANCH  29  32
ENDBRANCH  26  28
ENDBRANCH  24  26
ENDBRANCH   1  24
TORSDOF 8
ENDMDL
MODEL 2
REMARK VINA RESULT:      -8.9      0.496      2.123
REMARK  8 active torsions:
REMARK  status: ('A' for Active; 'I' for Inactive)
REMARK    1  A    between atoms: C_4  and  O_5 
REMARK    2  A    between atoms: O_5  and  C_6 
REMARK    3  A    between atoms: C_6  and  C_7 
REMARK       I    between atoms: C_7  and  N_8 
REMARK    4  A    between atoms: N_8  and  C_9 
REMARK    5  A    between atoms: C_9  and  N_10 
REMARK    6  A    between atoms: N_10  and  C_11 
REMARK    7  A    between atoms: C_14  and  N_15 
REMARK    8  A    between atoms: N_18  and  C_19 
ROOT
HETATM    1  C   UNL     1     -44.087  60.346 -51.315  1.00  0.00     0.034 A 
HETATM    2  C   UNL     1     -42.714  60.151 -51.140  1.00  0.00     0.031 A 
HETATM    3  C   UNL     1     -42.159  58.862 -51.116  1.00  0.00     0.026 A 
HETATM    4  C   UNL     1     -42.954  57.719 -51.255  1.00  0.00     0.010 A 
HETATM    5  C   UNL     1     -44.338  57.935 -51.345  1.00  0.00     0.026 A 
HETATM    6  C   UNL     1     -44.899  59.223 -51.386  1.00  0.00     0.031 A 
ENDROOT
BRANCH   4   7
HETATM    7  N   UNL     1     -42.440  56.408 -51.271  1.00  0.00    -0.280 NA
HETATM    8  C   UNL     1     -40.998  56.232 -50.964  1.00  0.00     0.115 C 
HETATM    9  C   UNL     1     -40.614  54.738 -50.847  1.00  0.00     0.138 C 
HETATM   10  N   UNL     1     -41.004  53.995 -52.069  1.00  0.00    -0.374 N 
HETATM   11  C   UNL     1     -42.457  54.142 -52.349  1.00  0.00     0.138 C 
HETATM   12  C   UNL     1     -42.848  55.632 -52.476  1.00  0.00     0.115 C 
BRANCH  10  13
HETATM   13  C   UNL     1     -40.489  52.702 -52.284  1.00  0.00     0.115 A 
HETATM   14  C   UNL     1     -40.283  52.132 -53.558  1.00  0.00     0.187 A 
HETATM   15  F   UNL     1     -40.532  52.836 -54.673  1.00  0.00    -0.200 F 
HETATM   16  C   UNL     1     -39.793  50.833 -53.715  1.00  0.00     0.199 A 
HETATM   17  F   UNL     1     -39.605  50.339 -54.947  1.00  0.00    -0.199 F 
HETATM   18  C   UNL     1     -39.499  50.057 -52.609  1.00  0.00     0.199 A 
HETATM   19  F   UNL     1     -39.028  48.812 -52.765  1.00  0.00    -0.199 F 
HETATM   20  C   UNL     1     -39.698  50.572 -51.341  1.00  0.00     0.199 A 
HETATM   21  F   UNL     1     -39.427  49.821 -50.264  1.00  0.00    -0.199 F 
HETATM   22  C   UNL     1     -40.189  51.867 -51.183  1.00  0.00     0.187 A 
HETATM   23  F   UNL     1     -40.408  52.303 -49.931  1.00  0.00    -0.200 F 
ENDBRANCH  10  13
ENDBRANCH   4   7
BRANCH   1  24
HETATM   24  N   UNL     1     -44.523  61.684 -51.384  1.00  0.00    -0.333 N 
HETATM   25  H   UNL     1     -43.871  62.304 -51.865  1.00  0.00     0.168 HD
BRANCH  24  26
HETATM   26  C   UNL     1     -45.703  62.307 -51.042  1.00  0.00     0.178 C 
HETATM   27  S   UNL     1     -47.132  62.434 -51.896  1.00  0.00    -0.040 SA
BRANCH  26  28
HETATM   28  N   UNL     1     -45.667  62.970 -49.824  1.00  0.00    -0.302 N 
HETATM   29  C   UNL     1     -45.930  62.481 -48.552  1.00  0.00     0.248 C 
HETATM   30  O   UNL     1     -46.378  61.356 -48.331  1.00  0.00    -0.271 OA
HETATM   31  H   UNL     1     -45.284  63.909 -49.877  1.00  0.00     0.171 HD
BRANCH  29  32
HETATM   32  C   UNL     1     -45.643  63.478 -47.436  1.00  0.00     0.278 C 
BRANCH  32  33
HETATM   33  O   UNL     1     -46.160  63.072 -46.175  1.00  0.00    -0.342 OA
BRANCH  33  34
HETATM   34  C   UNL     1     -45.267  63.015 -45.137  1.00  0.00     0.069 A 
HETATM   35  C   UNL     1     -44.927  64.078 -44.298  1.00  0.00     0.037 A 
HETATM   36  C   UNL     1     -44.015  63.886 -43.256  1.00  0.00     0.003 A 
HETATM   37  C   UNL     1     -43.440  62.634 -43.048  1.00  0.00     0.000 A 
HETATM   38  C   UNL     1     -43.784  61.569 -43.877  1.00  0.00     0.003 A 
HETATM   39  C   UNL     1     -44.701  61.758 -44.912  1.00  0.00     0.037 A 
ENDBRANCH  33  34
ENDBRANCH  32  33
ENDBRANCH  29  32
ENDBRANCH  26  28
ENDBRANCH  24  26
ENDBRANCH   1  24
TORSDOF 8
ENDMDL
MODEL 3
REMARK VINA RESULT:      -8.7      6.589      8.751
REMARK  8 active torsions:
REMARK  status: ('A' for Active; 'I' for Inactive)
REMARK    1  A    between atoms: C_4  and  O_5 
REMARK    2  A    between atoms: O_5  and  C_6 
REMARK    3  A    between atoms: C_6  and  C_7 
REMARK       I    between atoms: C_7  and  N_8 
REMARK    4  A    between atoms: N_8  and  C_9 
REMARK    5  A    between atoms: C_9  and  N_10 
REMARK    6  A    between atoms: N_10  and  C_11 
REMARK    7  A    between atoms: C_14  and  N_15 
REMARK    8  A    between atoms: N_18  and  C_19 
ROOT
HETATM    1  C   UNL     1     -44.869  60.116 -56.400  1.00  0.00     0.034 A 
HETATM    2  C   UNL     1     -43.608  60.329 -55.835  1.00  0.00     0.031 A 
HETATM    3  C   UNL     1     -42.980  59.339 -55.063  1.00  0.00     0.026 A 
HETATM    4  C   UNL     1     -43.591  58.105 -54.815  1.00  0.00     0.010 A 
HETATM    5  C   UNL     1     -44.891  57.946 -55.321  1.00  0.00     0.026 A 
HETATM    6  C   UNL     1     -45.519  58.926 -56.109  1.00  0.00     0.031 A 
ENDROOT
BRANCH   4   7
HETATM    7  N   UNL     1     -42.988  57.070 -54.075  1.00  0.00    -0.280 NA
HETATM    8  C   UNL     1     -41.511  57.101 -53.931  1.00  0.00     0.115 C 
HETATM    9  C   UNL     1     -41.006  56.009 -52.956  1.00  0.00     0.138 C 
HETATM   10  N   UNL     1     -41.485  54.669 -53.371  1.00  0.00    -0.374 N 
HETATM   11  C   UNL     1     -42.967  54.633 -53.475  1.00  0.00     0.138 C 
HETATM   12  C   UNL     1     -43.479  55.715 -54.454  1.00  0.00     0.115 C 
BRANCH  10  13
HETATM   13  C   UNL     1     -40.905  53.521 -52.795  1.00  0.00     0.115 A 
HETATM   14  C   UNL     1     -40.901  53.242 -51.413  1.00  0.00     0.187 A 
HETATM   15  F   UNL     1     -41.516  54.063 -50.546  1.00  0.00    -0.200 F 
HETATM   16  C   UNL     1     -40.288  52.101 -50.892  1.00  0.00     0.199 A 
HETATM   17  F   UNL     1     -40.320  51.875 -49.570  1.00  0.00    -0.199 F 
HETATM   18  C   UNL     1     -39.650  51.204 -51.729  1.00  0.00     0.199 A 
HETATM   19  F   UNL     1     -39.064  50.109 -51.224  1.00  0.00    -0.199 F 
HETATM   20  C   UNL     1     -39.619  51.444 -53.090  1.00  0.00     0.199 A 
HETATM   21  F   UNL     1     -38.993  50.586 -53.908  1.00  0.00    -0.199 F 
HETATM   22  C   UNL     1     -40.229  52.584 -53.612  1.00  0.00     0.187 A 
HETATM   23  F   UNL     1     -40.129  52.796 -54.935  1.00  0.00    -0.200 F 
ENDBRANCH  10  13
ENDBRANCH   4   7
BRANCH   1  24
HETATM   24  N   UNL     1     -45.374  61.156 -57.206  1.00  0.00    -0.333 N 
HETATM   25  H   UNL     1     -45.071  62.086 -56.915  1.00  0.00     0.168 HD
BRANCH  24  26
HETATM   26  C   UNL     1     -46.097  61.170 -58.378  1.00  0.00     0.178 C 
HETATM   27  S   UNL     1     -47.638  61.738 -58.678  1.00  0.00    -0.040 SA
BRANCH  26  28
HETATM   28  N   UNL     1     -45.455  60.570 -59.452  1.00  0.00    -0.302 N 
HETATM   29  C   UNL     1     -44.215  60.860 -60.006  1.00  0.00     0.248 C 
HETATM   30  O   UNL     1     -43.530  61.828 -59.678  1.00  0.00    -0.271 OA
HETATM   31  H   UNL     1     -45.919  59.733 -59.794  1.00  0.00     0.171 HD
BRANCH  29  32
HETATM   32  C   UNL     1     -43.781  59.884 -61.091  1.00  0.00     0.278 C 
BRANCH  32  33
HETATM   33  O   UNL     1     -42.665  59.086 -60.714  1.00  0.00    -0.342 OA
BRANCH  33  34
HETATM   34  C   UNL     1     -42.937  57.969 -59.969  1.00  0.00     0.069 A 
HETATM   35  C   UNL     1     -43.739  56.898 -60.372  1.00  0.00     0.037 A 
HETATM   36  C   UNL     1     -43.921  55.800 -59.525  1.00  0.00     0.003 A 
HETATM   37  C   UNL     1     -43.305  55.766 -58.276  1.00  0.00     0.000 A 
HETATM   38  C   UNL     1     -42.497  56.828 -57.875  1.00  0.00     0.003 A 
HETATM   39  C   UNL     1     -42.307  57.920 -58.724  1.00  0.00     0.037 A 
ENDBRANCH  33  34
ENDBRANCH  32  33
ENDBRANCH  29  32
ENDBRANCH  26  28
ENDBRANCH  24  26
ENDBRANCH   1  24
TORSDOF 8
ENDMDL
MODEL 4
REMARK VINA RESULT:      -8.7      6.290      8.716
REMARK  8 active torsions:
REMARK  status: ('A' for Active; 'I' for Inactive)
REMARK    1  A    between atoms: C_4  and  O_5 
REMARK    2  A    between atoms: O_5  and  C_6 
REMARK    3  A    between atoms: C_6  and  C_7 
REMARK       I    between atoms: C_7  and  N_8 
REMARK    4  A    between atoms: N_8  and  C_9 
REMARK    5  A    between atoms: C_9  and  N_10 
REMARK    6  A    between atoms: N_10  and  C_11 
REMARK    7  A    between atoms: C_14  and  N_15 
REMARK    8  A    between atoms: N_18  and  C_19 
ROOT
HETATM    1  C   UNL     1     -45.258  59.901 -55.942  1.00  0.00     0.034 A 
HETATM    2  C   UNL     1     -44.152  60.217 -55.147  1.00  0.00     0.031 A 
HETATM    3  C   UNL     1     -43.460  59.225 -54.434  1.00  0.00     0.026 A 
HETATM    4  C   UNL     1     -43.853  57.883 -54.479  1.00  0.00     0.010 A 
HETATM    5  C   UNL     1     -45.016  57.602 -55.215  1.00  0.00     0.026 A 
HETATM    6  C   UNL     1     -45.703  58.587 -55.944  1.00  0.00     0.031 A 
ENDROOT
BRANCH   4   7
HETATM    7  N   UNL     1     -43.173  56.848 -53.809  1.00  0.00    -0.280 NA
HETATM    8  C   UNL     1     -41.698  56.963 -53.687  1.00  0.00     0.115 C 
HETATM    9  C   UNL     1     -41.107  55.853 -52.784  1.00  0.00     0.138 C 
HETATM   10  N   UNL     1     -41.511  54.510 -53.266  1.00  0.00    -0.374 N 
HETATM   11  C   UNL     1     -42.990  54.388 -53.347  1.00  0.00     0.138 C 
HETATM   12  C   UNL     1     -43.587  55.487 -54.255  1.00  0.00     0.115 C 
BRANCH  10  13
HETATM   13  C   UNL     1     -40.850  53.371 -52.766  1.00  0.00     0.115 A 
HETATM   14  C   UNL     1     -40.193  52.417 -53.572  1.00  0.00     0.187 A 
HETATM   15  F   UNL     1     -40.118  52.578 -54.902  1.00  0.00    -0.200 F 
HETATM   16  C   UNL     1     -39.575  51.290 -53.026  1.00  0.00     0.199 A 
HETATM   17  F   UNL     1     -38.954  50.417 -53.832  1.00  0.00    -0.199 F 
HETATM   18  C   UNL     1     -39.598  51.070 -51.661  1.00  0.00     0.199 A 
HETATM   19  F   UNL     1     -39.002  49.988 -51.142  1.00  0.00    -0.199 F 
HETATM   20  C   UNL     1     -40.242  51.973 -50.835  1.00  0.00     0.199 A 
HETATM   21  F   UNL     1     -40.279  51.762 -49.511  1.00  0.00    -0.199 F 
HETATM   22  C   UNL     1     -40.861  53.098 -51.378  1.00  0.00     0.187 A 
HETATM   23  F   UNL     1     -41.514  53.919 -50.538  1.00  0.00    -0.200 F 
ENDBRANCH  10  13
ENDBRANCH   4   7
BRANCH   1  24
HETATM   24  N   UNL     1     -45.835  60.968 -56.659  1.00  0.00    -0.333 N 
HETATM   25  H   UNL     1     -46.719  61.295 -56.268  1.00  0.00     0.168 HD
BRANCH  24  26
HETATM   26  C   UNL     1     -45.395  61.741 -57.711  1.00  0.00     0.178 C 
HETATM   27  S   UNL     1     -45.493  63.392 -57.940  1.00  0.00    -0.040 SA
BRANCH  26  28
HETATM   28  N   UNL     1     -44.833  61.019 -58.754  1.00  0.00    -0.302 N 
HETATM   29  C   UNL     1     -45.437  60.121 -59.624  1.00  0.00     0.248 C 
HETATM   30  O   UNL     1     -46.595  59.724 -59.501  1.00  0.00    -0.271 OA
HETATM   31  H   UNL     1     -43.876  61.283 -58.969  1.00  0.00     0.171 HD
BRANCH  29  32
HETATM   32  C   UNL     1     -44.523  59.635 -60.742  1.00  0.00     0.278 C 
BRANCH  32  33
HETATM   33  O   UNL     1     -43.284  59.119 -60.269  1.00  0.00    -0.342 OA
BRANCH  33  34
HETATM   34  C   UNL     1     -43.324  57.883 -59.679  1.00  0.00     0.069 A 
HETATM   35  C   UNL     1     -43.871  56.729 -60.245  1.00  0.00     0.037 A 
HETATM   36  C   UNL     1     -43.828  55.517 -59.547  1.00  0.00     0.003 A 
HETATM   37  C   UNL     1     -43.241  55.453 -58.286  1.00  0.00     0.000 A 
HETATM   38  C   UNL     1     -42.686  56.600 -57.723  1.00  0.00     0.003 A 
HETATM   39  C   UNL     1     -42.719  57.808 -58.422  1.00  0.00     0.037 A 
ENDBRANCH  33  34
ENDBRANCH  32  33
ENDBRANCH  29  32
ENDBRANCH  26  28
ENDBRANCH  24  26
ENDBRANCH   1  24
TORSDOF 8
ENDMDL
MODEL 5
REMARK VINA RESULT:      -8.6      7.054     10.032
REMARK  8 active torsions:
REMARK  status: ('A' for Active; 'I' for Inactive)
REMARK    1  A    between atoms: C_4  and  O_5 
REMARK    2  A    between atoms: O_5  and  C_6 
REMARK    3  A    between atoms: C_6  and  C_7 
REMARK       I    between atoms: C_7  and  N_8 
REMARK    4  A    between atoms: N_8  and  C_9 
REMARK    5  A    between atoms: C_9  and  N_10 
REMARK    6  A    between atoms: N_10  and  C_11 
REMARK    7  A    between atoms: C_14  and  N_15 
REMARK    8  A    between atoms: N_18  and  C_19 
ROOT
HETATM    1  C   UNL     1     -40.344  53.008 -53.170  1.00  0.00     0.034 A 
HETATM    2  C   UNL     1     -39.766  53.172 -54.432  1.00  0.00     0.031 A 
HETATM    3  C   UNL     1     -40.323  54.045 -55.380  1.00  0.00     0.026 A 
HETATM    4  C   UNL     1     -41.484  54.777 -55.109  1.00  0.00     0.010 A 
HETATM    5  C   UNL     1     -42.094  54.533 -53.868  1.00  0.00     0.026 A 
HETATM    6  C   UNL     1     -41.533  53.674 -52.908  1.00  0.00     0.031 A 
ENDROOT
BRANCH   4   7
HETATM    7  N   UNL     1     -42.061  55.689 -56.014  1.00  0.00    -0.280 NA
HETATM    8  C   UNL     1     -42.618  56.948 -55.458  1.00  0.00     0.115 C 
HETATM    9  C   UNL     1     -43.059  57.924 -56.575  1.00  0.00     0.138 C 
HETATM   10  N   UNL     1     -44.013  57.269 -57.503  1.00  0.00    -0.374 N 
HETATM   11  C   UNL     1     -43.434  56.031 -58.087  1.00  0.00     0.138 C 
HETATM   12  C   UNL     1     -42.999  55.046 -56.977  1.00  0.00     0.115 C 
BRANCH  10  13
HETATM   13  C   UNL     1     -44.750  58.060 -58.406  1.00  0.00     0.115 A 
HETATM   14  C   UNL     1     -46.127  58.335 -58.278  1.00  0.00     0.187 A 
HETATM   15  F   UNL     1     -46.823  57.879 -57.224  1.00  0.00    -0.200 F 
HETATM   16  C   UNL     1     -46.816  59.104 -59.218  1.00  0.00     0.199 A 
HETATM   17  F   UNL     1     -48.124  59.346 -59.047  1.00  0.00    -0.199 F 
HETATM   18  C   UNL     1     -46.159  59.620 -60.320  1.00  0.00     0.199 A 
HETATM   19  F   UNL     1     -46.824  60.359 -61.218  1.00  0.00    -0.199 F 
HETATM   20  C   UNL     1     -44.811  59.364 -60.490  1.00  0.00     0.199 A 
HETATM   21  F   UNL     1     -44.167  59.850 -61.562  1.00  0.00    -0.199 F 
HETATM   22  C   UNL     1     -44.122  58.594 -59.555  1.00  0.00     0.187 A 
HETATM   23  F   UNL     1     -42.824  58.336 -59.791  1.00  0.00    -0.200 F 
ENDBRANCH  10  13
ENDBRANCH   4   7
BRANCH   1  24
HETATM   24  N   UNL     1     -39.665  52.153 -52.279  1.00  0.00    -0.333 N 
HETATM   25  H   UNL     1     -38.686  51.998 -52.525  1.00  0.00     0.168 HD
BRANCH  24  26
HETATM   26  C   UNL     1     -40.013  51.579 -51.077  1.00  0.00     0.178 C 
HETATM   27  S   UNL     1     -39.939  49.982 -50.593  1.00  0.00    -0.040 SA
BRANCH  26  28
HETATM   28  N   UNL     1     -40.556  52.464 -50.157  1.00  0.00    -0.302 N 
HETATM   29  C   UNL     1     -40.034  53.657 -49.675  1.00  0.00     0.248 C 
HETATM   30  O   UNL     1     -38.895  54.052 -49.919  1.00  0.00    -0.271 OA
HETATM   31  H   UNL     1     -41.515  52.252 -49.898  1.00  0.00     0.171 HD
BRANCH  29  32
HETATM   32  C   UNL     1     -40.992  54.431 -48.778  1.00  0.00     0.278 C 
BRANCH  32  33
HETATM   33  O   UNL     1     -42.277  54.619 -49.360  1.00  0.00    -0.342 OA
BRANCH  33  34
HETATM   34  C   UNL     1     -42.427  55.716 -50.167  1.00  0.00     0.069 A 
HETATM   35  C   UNL     1     -41.431  56.647 -50.468  1.00  0.00     0.037 A 
HETATM   36  C   UNL     1     -41.705  57.716 -51.327  1.00  0.00     0.003 A 
HETATM   37  C   UNL     1     -42.972  57.859 -51.888  1.00  0.00     0.000 A 
HETATM   38  C   UNL     1     -43.966  56.927 -51.597  1.00  0.00     0.003 A 
HETATM   39  C   UNL     1     -43.690  55.855 -50.747  1.00  0.00     0.037 A 
ENDBRANCH  33  34
ENDBRANCH  32  33
ENDBRANCH  29  32
ENDBRANCH  26  28
ENDBRANCH  24  26
ENDBRANCH   1  24
TORSDOF 8
ENDMDL
MODEL 6
REMARK VINA RESULT:      -8.6      3.318      5.836
REMARK  8 active torsions:
REMARK  status: ('A' for Active; 'I' for Inactive)
REMARK    1  A    between atoms: C_4  and  O_5 
REMARK    2  A    between atoms: O_5  and  C_6 
REMARK    3  A    between atoms: C_6  and  C_7 
REMARK       I    between atoms: C_7  and  N_8 
REMARK    4  A    between atoms: N_8  and  C_9 
REMARK    5  A    between atoms: C_9  and  N_10 
REMARK    6  A    between atoms: N_10  and  C_11 
REMARK    7  A    between atoms: C_14  and  N_15 
REMARK    8  A    between atoms: N_18  and  C_19 
ROOT
HETATM    1  C   UNL     1     -44.471  60.266 -51.043  1.00  0.00     0.034 A 
HETATM    2  C   UNL     1     -43.090  60.057 -51.104  1.00  0.00     0.031 A 
HETATM    3  C   UNL     1     -42.557  58.801 -51.432  1.00  0.00     0.026 A 
HETATM    4  C   UNL     1     -43.381  57.703 -51.701  1.00  0.00     0.010 A 
HETATM    5  C   UNL     1     -44.761  57.913 -51.551  1.00  0.00     0.026 A 
HETATM    6  C   UNL     1     -45.302  59.173 -51.239  1.00  0.00     0.031 A 
ENDROOT
BRANCH   4   7
HETATM    7  N   UNL     1     -42.895  56.433 -52.066  1.00  0.00    -0.280 NA
HETATM    8  C   UNL     1     -43.360  55.266 -51.274  1.00  0.00     0.115 C 
HETATM    9  C   UNL     1     -42.887  53.928 -51.892  1.00  0.00     0.138 C 
HETATM   10  N   UNL     1     -41.415  53.917 -52.063  1.00  0.00    -0.374 N 
HETATM   11  C   UNL     1     -40.959  55.065 -52.890  1.00  0.00     0.138 C 
HETATM   12  C   UNL     1     -41.419  56.406 -52.275  1.00  0.00     0.115 C 
BRANCH  10  13
HETATM   13  C   UNL     1     -40.761  52.698 -52.332  1.00  0.00     0.115 A 
HETATM   14  C   UNL     1     -40.592  52.156 -53.623  1.00  0.00     0.187 A 
HETATM   15  F   UNL     1     -41.019  52.822 -54.707  1.00  0.00    -0.200 F 
HETATM   16  C   UNL     1     -39.959  50.929 -53.831  1.00  0.00     0.199 A 
HETATM   17  F   UNL     1     -39.814  50.460 -55.079  1.00  0.00    -0.199 F 
HETATM   18  C   UNL     1     -39.479  50.197 -52.760  1.00  0.00     0.199 A 
HETATM   19  F   UNL     1     -38.871  49.021 -52.966  1.00  0.00    -0.199 F 
HETATM   20  C   UNL     1     -39.635  50.685 -51.476  1.00  0.00     0.199 A 
HETATM   21  F   UNL     1     -39.183  49.977 -50.431  1.00  0.00    -0.199 F 
HETATM   22  C   UNL     1     -40.269  51.909 -51.266  1.00  0.00     0.187 A 
HETATM   23  F   UNL     1     -40.436  52.316 -49.996  1.00  0.00    -0.200 F 
ENDBRANCH  10  13
ENDBRANCH   4   7
BRANCH   1  24
HETATM   24  N   UNL     1     -44.891  61.582 -50.764  1.00  0.00    -0.333 N 
HETATM   25  H   UNL     1     -44.229  62.297 -51.067  1.00  0.00     0.168 HD
BRANCH  24  26
HETATM   26  C   UNL     1     -46.065  62.110 -50.276  1.00  0.00     0.178 C 
HETATM   27  S   UNL     1     -46.466  62.572 -48.722  1.00  0.00    -0.040 SA
BRANCH  26  28
HETATM   28  N   UNL     1     -47.078  62.220 -51.218  1.00  0.00    -0.302 N 
HETATM   29  C   UNL     1     -47.013  62.690 -52.523  1.00  0.00     0.248 C 
HETATM   30  O   UNL     1     -46.015  63.220 -53.010  1.00  0.00    -0.271 OA
HETATM   31  H   UNL     1     -47.952  61.788 -50.936  1.00  0.00     0.171 HD
BRANCH  29  32
HETATM   32  C   UNL     1     -48.310  62.521 -53.304  1.00  0.00     0.278 C 
BRANCH  32  33
HETATM   33  O   UNL     1     -49.387  62.042 -52.507  1.00  0.00    -0.342 OA
BRANCH  33  34
HETATM   34  C   UNL     1     -50.650  62.294 -52.973  1.00  0.00     0.069 A 
HETATM   35  C   UNL     1     -51.143  61.930 -54.228  1.00  0.00     0.037 A 
HETATM   36  C   UNL     1     -52.464  62.226 -54.576  1.00  0.00     0.003 A 
HETATM   37  C   UNL     1     -53.298  62.884 -53.676  1.00  0.00     0.000 A 
HETATM   38  C   UNL     1     -52.813  63.240 -52.419  1.00  0.00     0.003 A 
HETATM   39  C   UNL     1     -51.497  62.937 -52.067  1.00  0.00     0.037 A 
ENDBRANCH  33  34
ENDBRANCH  32  33
ENDBRANCH  29  32
ENDBRANCH  26  28
ENDBRANCH  24  26
ENDBRANCH   1  24
TORSDOF 8
ENDMDL
MODEL 7
REMARK VINA RESULT:      -8.4      7.067     10.227
REMARK  8 active torsions:
REMARK  status: ('A' for Active; 'I' for Inactive)
REMARK    1  A    between atoms: C_4  and  O_5 
REMARK    2  A    between atoms: O_5  and  C_6 
REMARK    3  A    between atoms: C_6  and  C_7 
REMARK       I    between atoms: C_7  and  N_8 
REMARK    4  A    between atoms: N_8  and  C_9 
REMARK    5  A    between atoms: C_9  and  N_10 
REMARK    6  A    between atoms: N_10  and  C_11 
REMARK    7  A    between atoms: C_14  and  N_15 
REMARK    8  A    between atoms: N_18  and  C_19 
ROOT
HETATM    1  C   UNL     1     -40.949  53.361 -53.500  1.00  0.00     0.034 A 
HETATM    2  C   UNL     1     -40.141  53.980 -54.458  1.00  0.00     0.031 A 
HETATM    3  C   UNL     1     -40.678  54.877 -55.394  1.00  0.00     0.026 A 
HETATM    4  C   UNL     1     -42.043  55.182 -55.416  1.00  0.00     0.010 A 
HETATM    5  C   UNL     1     -42.849  54.485 -54.501  1.00  0.00     0.026 A 
HETATM    6  C   UNL     1     -42.315  53.598 -53.550  1.00  0.00     0.031 A 
ENDROOT
BRANCH   4   7
HETATM    7  N   UNL     1     -42.624  56.100 -56.313  1.00  0.00    -0.280 NA
HETATM    8  C   UNL     1     -43.753  56.924 -55.815  1.00  0.00     0.115 C 
HETATM    9  C   UNL     1     -44.175  58.002 -56.844  1.00  0.00     0.138 C 
HETATM   10  N   UNL     1     -44.487  57.386 -58.156  1.00  0.00    -0.374 N 
HETATM   11  C   UNL     1     -43.338  56.594 -58.668  1.00  0.00     0.138 C 
HETATM   12  C   UNL     1     -42.916  55.509 -57.650  1.00  0.00     0.115 C 
BRANCH  10  13
HETATM   13  C   UNL     1     -45.163  58.146 -59.131  1.00  0.00     0.115 A 
HETATM   14  C   UNL     1     -44.751  59.421 -59.568  1.00  0.00     0.187 A 
HETATM   15  F   UNL     1     -43.624  59.978 -59.096  1.00  0.00    -0.200 F 
HETATM   16  C   UNL     1     -45.474  60.144 -60.520  1.00  0.00     0.199 A 
HETATM   17  F   UNL     1     -45.035  61.350 -60.911  1.00  0.00    -0.199 F 
HETATM   18  C   UNL     1     -46.635  59.624 -61.061  1.00  0.00     0.199 A 
HETATM   19  F   UNL     1     -47.324  60.321 -61.975  1.00  0.00    -0.199 F 
HETATM   20  C   UNL     1     -47.082  58.382 -60.651  1.00  0.00     0.199 A 
HETATM   21  F   UNL     1     -48.214  57.875 -61.162  1.00  0.00    -0.199 F 
HETATM   22  C   UNL     1     -46.363  57.660 -59.700  1.00  0.00     0.187 A 
HETATM   23  F   UNL     1     -46.866  56.479 -59.301  1.00  0.00    -0.200 F 
ENDBRANCH  10  13
ENDBRANCH   4   7
BRANCH   1  24
HETATM   24  N   UNL     1     -40.291  52.527 -52.573  1.00  0.00    -0.333 N 
HETATM   25  H   UNL     1     -39.450  52.084 -52.945  1.00  0.00     0.168 HD
BRANCH  24  26
HETATM   26  C   UNL     1     -40.480  52.280 -51.232  1.00  0.00     0.178 C 
HETATM   27  S   UNL     1     -40.200  50.889 -50.351  1.00  0.00    -0.040 SA
BRANCH  26  28
HETATM   28  N   UNL     1     -41.036  53.339 -50.528  1.00  0.00    -0.302 N 
HETATM   29  C   UNL     1     -40.401  54.347 -49.816  1.00  0.00     0.248 C 
HETATM   30  O   UNL     1     -39.191  54.370 -49.595  1.00  0.00    -0.271 OA
HETATM   31  H   UNL     1     -42.038  53.438 -50.658  1.00  0.00     0.171 HD
BRANCH  29  32
HETATM   32  C   UNL     1     -41.346  55.423 -49.296  1.00  0.00     0.278 C 
BRANCH  32  33
HETATM   33  O   UNL     1     -42.072  56.079 -50.329  1.00  0.00    -0.342 OA
BRANCH  33  34
HETATM   34  C   UNL     1     -41.419  57.088 -50.987  1.00  0.00     0.069 A 
HETATM   35  C   UNL     1     -40.775  58.170 -50.383  1.00  0.00     0.037 A 
HETATM   36  C   UNL     1     -40.122  59.126 -51.168  1.00  0.00     0.003 A 
HETATM   37  C   UNL     1     -40.108  59.004 -52.556  1.00  0.00     0.000 A 
HETATM   38  C   UNL     1     -40.741  57.921 -53.161  1.00  0.00     0.003 A 
HETATM   39  C   UNL     1     -41.385  56.962 -52.378  1.00  0.00     0.037 A 
ENDBRANCH  33  34
ENDBRANCH  32  33
ENDBRANCH  29  32
ENDBRANCH  26  28
ENDBRANCH  24  26
ENDBRANCH   1  24
TORSDOF 8
ENDMDL
MODEL 8
REMARK VINA RESULT:      -8.4      3.415      5.663
REMARK  8 active torsions:
REMARK  status: ('A' for Active; 'I' for Inactive)
REMARK    1  A    between atoms: C_4  and  O_5 
REMARK    2  A    between atoms: O_5  and  C_6 
REMARK    3  A    between atoms: C_6  and  C_7 
REMARK       I    between atoms: C_7  and  N_8 
REMARK    4  A    between atoms: N_8  and  C_9 
REMARK    5  A    between atoms: C_9  and  N_10 
REMARK    6  A    between atoms: N_10  and  C_11 
REMARK    7  A    between atoms: C_14  and  N_15 
REMARK    8  A    between atoms: N_18  and  C_19 
ROOT
HETATM    1  C   UNL     1     -44.289  60.264 -50.681  1.00  0.00     0.034 A 
HETATM    2  C   UNL     1     -45.202  59.232 -50.917  1.00  0.00     0.031 A 
HETATM    3  C   UNL     1     -44.774  57.961 -51.330  1.00  0.00     0.026 A 
HETATM    4  C   UNL     1     -43.420  57.674 -51.535  1.00  0.00     0.010 A 
HETATM    5  C   UNL     1     -42.528  58.748 -51.374  1.00  0.00     0.026 A 
HETATM    6  C   UNL     1     -42.949  60.018 -50.943  1.00  0.00     0.031 A 
ENDROOT
BRANCH   4   7
HETATM    7  N   UNL     1     -42.939  56.407 -51.917  1.00  0.00    -0.280 NA
HETATM    8  C   UNL     1     -43.315  55.247 -51.070  1.00  0.00     0.115 C 
HETATM    9  C   UNL     1     -42.866  53.907 -51.701  1.00  0.00     0.138 C 
HETATM   10  N   UNL     1     -41.412  53.920 -51.991  1.00  0.00    -0.374 N 
HETATM   11  C   UNL     1     -41.048  55.061 -52.871  1.00  0.00     0.138 C 
HETATM   12  C   UNL     1     -41.485  56.405 -52.245  1.00  0.00     0.115 C 
BRANCH  10  13
HETATM   13  C   UNL     1     -40.757  52.710 -52.291  1.00  0.00     0.115 A 
HETATM   14  C   UNL     1     -40.615  52.186 -53.593  1.00  0.00     0.187 A 
HETATM   15  F   UNL     1     -41.072  52.863 -54.658  1.00  0.00    -0.200 F 
HETATM   16  C   UNL     1     -39.980  50.966 -53.832  1.00  0.00     0.199 A 
HETATM   17  F   UNL     1     -39.861  50.514 -55.089  1.00  0.00    -0.199 F 
HETATM   18  C   UNL     1     -39.470  50.223 -52.783  1.00  0.00     0.199 A 
HETATM   19  F   UNL     1     -38.860  49.054 -53.018  1.00  0.00    -0.199 F 
HETATM   20  C   UNL     1     -39.598  50.693 -51.489  1.00  0.00     0.199 A 
HETATM   21  F   UNL     1     -39.118  49.974 -50.464  1.00  0.00    -0.199 F 
HETATM   22  C   UNL     1     -40.235  51.910 -51.248  1.00  0.00     0.187 A 
HETATM   23  F   UNL     1     -40.375  52.300 -49.969  1.00  0.00    -0.200 F 
ENDBRANCH  10  13
ENDBRANCH   4   7
BRANCH   1  24
HETATM   24  N   UNL     1     -44.827  61.478 -50.210  1.00  0.00    -0.333 N 
HETATM   25  H   UNL     1     -44.779  61.582 -49.196  1.00  0.00     0.168 HD
BRANCH  24  26
HETATM   26  C   UNL     1     -45.297  62.606 -50.844  1.00  0.00     0.178 C 
HETATM   27  S   UNL     1     -46.371  63.766 -50.307  1.00  0.00    -0.040 SA
BRANCH  26  28
HETATM   28  N   UNL     1     -44.841  62.763 -52.145  1.00  0.00    -0.302 N 
HETATM   29  C   UNL     1     -43.658  63.332 -52.596  1.00  0.00     0.248 C 
HETATM   30  O   UNL     1     -42.862  63.923 -51.867  1.00  0.00    -0.271 OA
HETATM   31  H   UNL     1     -45.409  62.288 -52.840  1.00  0.00     0.171 HD
BRANCH  29  32
HETATM   32  C   UNL     1     -43.438  63.191 -54.097  1.00  0.00     0.278 C 
BRANCH  32  33
HETATM   33  O   UNL     1     -44.310  62.244 -54.704  1.00  0.00    -0.342 OA
BRANCH  33  34
HETATM   34  C   UNL     1     -43.825  60.971 -54.845  1.00  0.00     0.069 A 
HETATM   35  C   UNL     1     -42.478  60.622 -54.964  1.00  0.00     0.037 A 
HETATM   36  C   UNL     1     -42.108  59.278 -55.080  1.00  0.00     0.003 A 
HETATM   37  C   UNL     1     -43.080  58.280 -55.077  1.00  0.00     0.000 A 
HETATM   38  C   UNL     1     -44.423  58.623 -54.949  1.00  0.00     0.003 A 
HETATM   39  C   UNL     1     -44.793  59.964 -54.825  1.00  0.00     0.037 A 
ENDBRANCH  33  34
ENDBRANCH  32  33
ENDBRANCH  29  32
ENDBRANCH  26  28
ENDBRANCH  24  26
ENDBRANCH   1  24
TORSDOF 8
ENDMDL
MODEL 9
REMARK VINA RESULT:      -8.3      3.870      6.027
REMARK  8 active torsions:
REMARK  status: ('A' for Active; 'I' for Inactive)
REMARK    1  A    between atoms: C_4  and  O_5 
REMARK    2  A    between atoms: O_5  and  C_6 
REMARK    3  A    between atoms: C_6  and  C_7 
REMARK       I    between atoms: C_7  and  N_8 
REMARK    4  A    between atoms: N_8  and  C_9 
REMARK    5  A    between atoms: C_9  and  N_10 
REMARK    6  A    between atoms: N_10  and  C_11 
REMARK    7  A    between atoms: C_14  and  N_15 
REMARK    8  A    between atoms: N_18  and  C_19 
ROOT
HETATM    1  C   UNL     1     -44.140  60.336 -51.272  1.00  0.00     0.034 A 
HETATM    2  C   UNL     1     -44.990  59.229 -51.346  1.00  0.00     0.031 A 
HETATM    3  C   UNL     1     -44.482  57.920 -51.346  1.00  0.00     0.026 A 
HETATM    4  C   UNL     1     -43.107  57.668 -51.284  1.00  0.00     0.010 A 
HETATM    5  C   UNL     1     -42.269  58.795 -51.295  1.00  0.00     0.026 A 
HETATM    6  C   UNL     1     -42.772  60.108 -51.278  1.00  0.00     0.031 A 
ENDROOT
BRANCH   4   7
HETATM    7  N   UNL     1     -42.551  56.375 -51.248  1.00  0.00    -0.280 NA
HETATM    8  C   UNL     1     -41.076  56.265 -51.116  1.00  0.00     0.115 C 
HETATM    9  C   UNL     1     -40.625  54.798 -50.916  1.00  0.00     0.138 C 
HETATM   10  N   UNL     1     -41.139  53.934 -52.005  1.00  0.00    -0.374 N 
HETATM   11  C   UNL     1     -42.620  54.018 -52.107  1.00  0.00     0.138 C 
HETATM   12  C   UNL     1     -43.079  55.479 -52.316  1.00  0.00     0.115 C 
BRANCH  10  13
HETATM   13  C   UNL     1     -40.607  52.640 -52.168  1.00  0.00     0.115 A 
HETATM   14  C   UNL     1     -40.212  51.805 -51.103  1.00  0.00     0.187 A 
HETATM   15  F   UNL     1     -40.373  52.195 -49.829  1.00  0.00    -0.200 F 
HETATM   16  C   UNL     1     -39.665  50.539 -51.322  1.00  0.00     0.199 A 
HETATM   17  F   UNL     1     -39.313  49.778 -50.275  1.00  0.00    -0.199 F 
HETATM   18  C   UNL     1     -39.486  50.065 -52.608  1.00  0.00     0.199 A 
HETATM   19  F   UNL     1     -38.962  48.849 -52.813  1.00  0.00    -0.199 F 
HETATM   20  C   UNL     1     -39.848  50.856 -53.683  1.00  0.00     0.199 A 
HETATM   21  F   UNL     1     -39.667  50.410 -54.934  1.00  0.00    -0.199 F 
HETATM   22  C   UNL     1     -40.392  52.122 -53.467  1.00  0.00     0.187 A 
HETATM   23  F   UNL     1     -40.684  52.869 -54.545  1.00  0.00    -0.200 F 
ENDBRANCH  10  13
ENDBRANCH   4   7
BRANCH   1  24
HETATM   24  N   UNL     1     -44.765  61.599 -51.217  1.00  0.00    -0.333 N 
HETATM   25  H   UNL     1     -44.818  61.989 -50.275  1.00  0.00     0.168 HD
BRANCH  24  26
HETATM   26  C   UNL     1     -45.211  62.469 -52.185  1.00  0.00     0.178 C 
HETATM   27  S   UNL     1     -46.242  63.777 -52.055  1.00  0.00    -0.040 SA
BRANCH  26  28
HETATM   28  N   UNL     1     -44.772  62.173 -53.467  1.00  0.00    -0.302 N 
HETATM   29  C   UNL     1     -43.637  62.618 -54.130  1.00  0.00     0.248 C 
HETATM   30  O   UNL     1     -42.885  63.487 -53.689  1.00  0.00    -0.271 OA
HETATM   31  H   UNL     1     -45.306  61.440 -53.926  1.00  0.00     0.171 HD
BRANCH  29  32
HETATM   32  C   UNL     1     -43.412  61.955 -55.483  1.00  0.00     0.278 C 
BRANCH  32  33
HETATM   33  O   UNL     1     -42.404  60.952 -55.455  1.00  0.00    -0.342 OA
BRANCH  33  34
HETATM   34  C   UNL     1     -42.821  59.663 -55.659  1.00  0.00     0.069 A 
HETATM   35  C   UNL     1     -43.757  58.978 -54.881  1.00  0.00     0.037 A 
HETATM   36  C   UNL     1     -44.116  57.666 -55.208  1.00  0.00     0.003 A 
HETATM   37  C   UNL     1     -43.544  57.035 -56.310  1.00  0.00     0.000 A 
HETATM   38  C   UNL     1     -42.617  57.718 -57.093  1.00  0.00     0.003 A 
HETATM   39  C   UNL     1     -42.264  59.031 -56.773  1.00  0.00     0.037 A 
ENDBRANCH  33  34
ENDBRANCH  32  33
ENDBRANCH  29  32
ENDBRANCH  26  28
ENDBRANCH  24  26
ENDBRANCH   1  24
TORSDOF 8
ENDMDL
MODEL 10
REMARK VINA RESULT:      -8.1      5.311      6.418
REMARK  8 active torsions:
REMARK  status: ('A' for Active; 'I' for Inactive)
REMARK    1  A    between atoms: C_4  and  O_5 
REMARK    2  A    between atoms: O_5  and  C_6 
REMARK    3  A    between atoms: C_6  and  C_7 
REMARK       I    between atoms: C_7  and  N_8 
REMARK    4  A    between atoms: N_8  and  C_9 
REMARK    5  A    between atoms: C_9  and  N_10 
REMARK    6  A    between atoms: N_10  and  C_11 
REMARK    7  A    between atoms: C_14  and  N_15 
REMARK    8  A    between atoms: N_18  and  C_19 
ROOT
HETATM    1  C   UNL     1     -45.088  60.318 -55.898  1.00  0.00     0.034 A 
HETATM    2  C   UNL     1     -44.436  59.590 -56.896  1.00  0.00     0.031 A 
HETATM    3  C   UNL     1     -43.725  58.417 -56.596  1.00  0.00     0.026 A 
HETATM    4  C   UNL     1     -43.629  57.933 -55.287  1.00  0.00     0.010 A 
HETATM    5  C   UNL     1     -44.220  58.725 -54.289  1.00  0.00     0.026 A 
HETATM    6  C   UNL     1     -44.947  59.891 -54.585  1.00  0.00     0.031 A 
ENDROOT
BRANCH   4   7
HETATM    7  N   UNL     1     -42.957  56.745 -54.941  1.00  0.00    -0.280 NA
HETATM    8  C   UNL     1     -43.764  55.645 -54.357  1.00  0.00     0.115 C 
HETATM    9  C   UNL     1     -42.934  54.350 -54.188  1.00  0.00     0.138 C 
HETATM   10  N   UNL     1     -41.709  54.608 -53.394  1.00  0.00    -0.374 N 
HETATM   11  C   UNL     1     -40.885  55.683 -54.005  1.00  0.00     0.138 C 
HETATM   12  C   UNL     1     -41.704  56.983 -54.169  1.00  0.00     0.115 C 
BRANCH  10  13
HETATM   13  C   UNL     1     -40.976  53.518 -52.884  1.00  0.00     0.115 A 
HETATM   14  C   UNL     1     -40.265  52.597 -53.681  1.00  0.00     0.187 A 
HETATM   15  F   UNL     1     -40.208  52.745 -55.014  1.00  0.00    -0.200 F 
HETATM   16  C   UNL     1     -39.576  51.518 -53.126  1.00  0.00     0.199 A 
HETATM   17  F   UNL     1     -38.907  50.675 -53.925  1.00  0.00    -0.199 F 
HETATM   18  C   UNL     1     -39.577  51.314 -51.758  1.00  0.00     0.199 A 
HETATM   19  F   UNL     1     -38.913  50.277 -51.229  1.00  0.00    -0.199 F 
HETATM   20  C   UNL     1     -40.272  52.186 -50.939  1.00  0.00     0.199 A 
HETATM   21  F   UNL     1     -40.288  51.989 -49.613  1.00  0.00    -0.199 F 
HETATM   22  C   UNL     1     -40.962  53.263 -51.493  1.00  0.00     0.187 A 
HETATM   23  F   UNL     1     -41.660  54.053 -50.658  1.00  0.00    -0.200 F 
ENDBRANCH  10  13
ENDBRANCH   4   7
BRANCH   1  24
HETATM   24  N   UNL     1     -45.821  61.444 -56.324  1.00  0.00    -0.333 N 
HETATM   25  H   UNL     1     -45.240  62.192 -56.705  1.00  0.00     0.168 HD
BRANCH  24  26
HETATM   26  C   UNL     1     -47.169  61.697 -56.444  1.00  0.00     0.178 C 
HETATM   27  S   UNL     1     -48.125  61.775 -57.811  1.00  0.00    -0.040 SA
BRANCH  26  28
HETATM   28  N   UNL     1     -47.807  61.980 -55.245  1.00  0.00    -0.302 N 
HETATM   29  C   UNL     1     -47.367  62.753 -54.179  1.00  0.00     0.248 C 
HETATM   30  O   UNL     1     -46.230  63.218 -54.096  1.00  0.00    -0.271 OA
HETATM   31  H   UNL     1     -48.772  61.666 -55.208  1.00  0.00     0.171 HD
BRANCH  29  32
HETATM   32  C   UNL     1     -48.413  62.955 -53.090  1.00  0.00     0.278 C 
BRANCH  32  33
HETATM   33  O   UNL     1     -49.302  64.031 -53.360  1.00  0.00    -0.342 OA
BRANCH  33  34
HETATM   34  C   UNL     1     -50.628  63.808 -53.097  1.00  0.00     0.069 A 
HETATM   35  C   UNL     1     -51.686  64.070 -53.971  1.00  0.00     0.037 A 
HETATM   36  C   UNL     1     -52.999  63.774 -53.592  1.00  0.00     0.003 A 
HETATM   37  C   UNL     1     -53.261  63.216 -52.343  1.00  0.00     0.000 A 
HETATM   38  C   UNL     1     -52.208  62.944 -51.473  1.00  0.00     0.003 A 
HETATM   39  C   UNL     1     -50.896  63.231 -51.854  1.00  0.00     0.037 A 
ENDBRANCH  33  34
ENDBRANCH  32  33
ENDBRANCH  29  32
ENDBRANCH  26  28
ENDBRANCH  24  26
ENDBRANCH   1  24
TORSDOF 8
ENDMDL
