MODEL 1
REMARK VINA RESULT:      -7.6      0.000      0.000
REMARK  8 active torsions:
REMARK  status: ('A' for Active; 'I' for Inactive)
REMARK    1  A    between atoms: C_2  and  N_3 
REMARK    2  A    between atoms: C_2  and  C_17 
REMARK    3  A    between atoms: N_3  and  C_6 
REMARK    4  A    between atoms: C_6  and  C_7 
REMARK    5  A    between atoms: C_7  and  O_8 
REMARK    6  A    between atoms: C_7  and  C_9 
REMARK    7  A    between atoms: C_11  and  O_12 
REMARK    8  A    between atoms: C_17  and  C_18 
ROOT
HETATM    1  N   UNL     1     -43.174  55.034 -53.787  1.00  0.00    -0.068 N 
HETATM    2  H   UNL     1     -42.481  54.308 -54.070  1.00  0.00     0.277 HD
HETATM    3  H   UNL     1     -44.070  54.522 -53.702  1.00  0.00     0.277 HD
ENDROOT
BRANCH   1   4
HETATM    4  C   UNL     1     -42.706  55.612 -52.479  1.00  0.00     0.188 C 
HETATM    5  C   UNL     1     -43.393  54.886 -51.327  1.00  0.00     0.040 C 
BRANCH   4   6
HETATM    6  C   UNL     1     -41.173  55.475 -52.358  1.00  0.00     0.099 C 
BRANCH   6   7
HETATM    7  C   UNL     1     -40.734  54.047 -52.470  1.00  0.00     0.078 A 
HETATM    8  S   UNL     1     -40.154  53.202 -51.101  1.00  0.00    -0.073 SA
HETATM    9  C   UNL     1     -39.937  51.791 -52.062  1.00  0.00     0.035 A 
HETATM   10  C   UNL     1     -40.331  52.069 -53.373  1.00  0.00     0.074 A 
HETATM   11  C   UNL     1     -39.452  50.529 -51.683  1.00  0.00     0.021 A 
HETATM   12  N   UNL     1     -40.804  53.360 -53.592  1.00  0.00    -0.245 NA
HETATM   13  C   UNL     1     -40.224  51.051 -54.342  1.00  0.00     0.033 A 
HETATM   14  C   UNL     1     -39.742  49.790 -53.976  1.00  0.00     0.002 A 
HETATM   15  C   UNL     1     -39.363  49.534 -52.661  1.00  0.00     0.002 A 
ENDBRANCH   6   7
ENDBRANCH   4   6
ENDBRANCH   1   4
BRANCH   1  16
HETATM   16  C   UNL     1     -43.325  55.967 -54.957  1.00  0.00     0.269 C 
BRANCH  16  17
HETATM   17  C   UNL     1     -42.818  55.248 -56.227  1.00  0.00     0.177 C 
BRANCH  17  18
HETATM   18  O   UNL     1     -41.468  54.833 -55.963  1.00  0.00    -0.389 OA
HETATM   19  H   UNL     1     -41.067  55.540 -55.415  1.00  0.00     0.210 HD
ENDBRANCH  17  18
BRANCH  17  20
HETATM   20  C   UNL     1     -42.883  56.127 -57.457  1.00  0.00    -0.025 A 
HETATM   21  C   UNL     1     -43.443  55.605 -58.641  1.00  0.00     0.046 A 
HETATM   22  C   UNL     1     -43.530  56.386 -59.797  1.00  0.00     0.068 A 
HETATM   23  C   UNL     1     -43.053  57.696 -59.772  1.00  0.00     0.037 A 
HETATM   24  C   UNL     1     -42.496  58.228 -58.611  1.00  0.00     0.003 A 
HETATM   25  C   UNL     1     -42.416  57.450 -57.457  1.00  0.00     0.010 A 
BRANCH  22  26
HETATM   26  O   UNL     1     -44.058  55.996 -60.994  1.00  0.00    -0.356 OA
HETATM   27  C   UNL     1     -44.972  54.906 -60.986  1.00  0.00     0.210 C 
ENDBRANCH  22  26
ENDBRANCH  17  20
ENDBRANCH  16  17
ENDBRANCH   1  16
TORSDOF 8
ENDMDL
MODEL 2
REMARK VINA RESULT:      -7.1      1.073      1.926
REMARK  8 active torsions:
REMARK  status: ('A' for Active; 'I' for Inactive)
REMARK    1  A    between atoms: C_2  and  N_3 
REMARK    2  A    between atoms: C_2  and  C_17 
REMARK    3  A    between atoms: N_3  and  C_6 
REMARK    4  A    between atoms: C_6  and  C_7 
REMARK    5  A    between atoms: C_7  and  O_8 
REMARK    6  A    between atoms: C_7  and  C_9 
REMARK    7  A    between atoms: C_11  and  O_12 
REMARK    8  A    between atoms: C_17  and  C_18 
ROOT
HETATM    1  N   UNL     1     -43.196  55.208 -53.616  1.00  0.00    -0.068 N 
HETATM    2  H   UNL     1     -42.722  54.304 -53.828  1.00  0.00     0.277 HD
HETATM    3  H   UNL     1     -44.207  54.988 -53.653  1.00  0.00     0.277 HD
ENDROOT
BRANCH   1   4
HETATM    4  C   UNL     1     -42.743  55.639 -52.248  1.00  0.00     0.188 C 
HETATM    5  C   UNL     1     -43.439  54.790 -51.190  1.00  0.00     0.040 C 
BRANCH   4   6
HETATM    6  C   UNL     1     -41.210  55.494 -52.128  1.00  0.00     0.099 C 
BRANCH   6   7
HETATM    7  C   UNL     1     -40.774  54.072 -52.310  1.00  0.00     0.078 A 
HETATM    8  S   UNL     1     -40.172  53.167 -50.989  1.00  0.00    -0.073 SA
HETATM    9  C   UNL     1     -39.971  51.801 -52.016  1.00  0.00     0.035 A 
HETATM   10  C   UNL     1     -40.385  52.137 -53.307  1.00  0.00     0.074 A 
HETATM   11  C   UNL     1     -39.480  50.524 -51.702  1.00  0.00     0.021 A 
HETATM   12  N   UNL     1     -40.861  53.436 -53.461  1.00  0.00    -0.245 NA
HETATM   13  C   UNL     1     -40.292  51.164 -54.323  1.00  0.00     0.033 A 
HETATM   14  C   UNL     1     -39.805  49.888 -54.020  1.00  0.00     0.002 A 
HETATM   15  C   UNL     1     -39.407  49.573 -52.725  1.00  0.00     0.002 A 
ENDBRANCH   6   7
ENDBRANCH   4   6
ENDBRANCH   1   4
BRANCH   1  16
HETATM   16  C   UNL     1     -42.917  56.126 -54.774  1.00  0.00     0.269 C 
BRANCH  16  17
HETATM   17  C   UNL     1     -42.662  55.266 -56.032  1.00  0.00     0.177 C 
BRANCH  17  18
HETATM   18  O   UNL     1     -41.331  54.737 -55.915  1.00  0.00    -0.389 OA
HETATM   19  H   UNL     1     -41.021  54.572 -56.830  1.00  0.00     0.210 HD
ENDBRANCH  17  18
BRANCH  17  20
HETATM   20  C   UNL     1     -42.821  56.052 -57.316  1.00  0.00    -0.025 A 
HETATM   21  C   UNL     1     -42.373  57.388 -57.359  1.00  0.00     0.046 A 
HETATM   22  C   UNL     1     -42.493  58.146 -58.527  1.00  0.00     0.068 A 
HETATM   23  C   UNL     1     -43.065  57.568 -59.659  1.00  0.00     0.037 A 
HETATM   24  C   UNL     1     -43.515  56.249 -59.634  1.00  0.00     0.003 A 
HETATM   25  C   UNL     1     -43.389  55.492 -58.471  1.00  0.00     0.010 A 
BRANCH  22  26
HETATM   26  O   UNL     1     -42.088  59.439 -58.691  1.00  0.00    -0.356 OA
HETATM   27  C   UNL     1     -42.862  60.456 -58.067  1.00  0.00     0.210 C 
ENDBRANCH  22  26
ENDBRANCH  17  20
ENDBRANCH  16  17
ENDBRANCH   1  16
TORSDOF 8
ENDMDL
MODEL 3
REMARK VINA RESULT:      -7.0      1.978      3.006
REMARK  8 active torsions:
REMARK  status: ('A' for Active; 'I' for Inactive)
REMARK    1  A    between atoms: C_2  and  N_3 
REMARK    2  A    between atoms: C_2  and  C_17 
REMARK    3  A    between atoms: N_3  and  C_6 
REMARK    4  A    between atoms: C_6  and  C_7 
REMARK    5  A    between atoms: C_7  and  O_8 
REMARK    6  A    between atoms: C_7  and  C_9 
REMARK    7  A    between atoms: C_11  and  O_12 
REMARK    8  A    between atoms: C_17  and  C_18 
ROOT
HETATM    1  N   UNL     1     -41.645  57.371 -52.621  1.00  0.00    -0.068 N 
HETATM    2  H   UNL     1     -41.028  57.823 -53.329  1.00  0.00     0.277 HD
HETATM    3  H   UNL     1     -41.775  56.404 -52.967  1.00  0.00     0.277 HD
ENDROOT
BRANCH   1   4
HETATM    4  C   UNL     1     -40.925  57.426 -51.301  1.00  0.00     0.188 C 
HETATM    5  C   UNL     1     -41.304  58.708 -50.568  1.00  0.00     0.040 C 
BRANCH   4   6
HETATM    6  C   UNL     1     -41.291  56.193 -50.447  1.00  0.00     0.099 C 
BRANCH   6   7
HETATM    7  C   UNL     1     -40.883  54.916 -51.115  1.00  0.00     0.078 A 
HETATM    8  S   UNL     1     -40.065  53.694 -50.241  1.00  0.00    -0.073 SA
HETATM    9  C   UNL     1     -40.029  52.708 -51.651  1.00  0.00     0.035 A 
HETATM   10  C   UNL     1     -40.654  53.388 -52.698  1.00  0.00     0.074 A 
HETATM   11  C   UNL     1     -39.486  51.424 -51.817  1.00  0.00     0.021 A 
HETATM   12  N   UNL     1     -41.156  54.646 -52.376  1.00  0.00    -0.245 NA
HETATM   13  C   UNL     1     -40.726  52.767 -53.962  1.00  0.00     0.033 A 
HETATM   14  C   UNL     1     -40.188  51.488 -54.139  1.00  0.00     0.002 A 
HETATM   15  C   UNL     1     -39.578  50.826 -53.078  1.00  0.00     0.002 A 
ENDBRANCH   6   7
ENDBRANCH   4   6
ENDBRANCH   1   4
BRANCH   1  16
HETATM   16  C   UNL     1     -42.986  58.043 -52.723  1.00  0.00     0.269 C 
BRANCH  16  17
HETATM   17  C   UNL     1     -44.007  57.023 -53.274  1.00  0.00     0.177 C 
BRANCH  17  18
HETATM   18  O   UNL     1     -44.066  55.939 -52.333  1.00  0.00    -0.389 OA
HETATM   19  H   UNL     1     -43.179  55.887 -51.919  1.00  0.00     0.210 HD
ENDBRANCH  17  18
BRANCH  17  20
HETATM   20  C   UNL     1     -43.639  56.521 -54.654  1.00  0.00    -0.025 A 
HETATM   21  C   UNL     1     -43.572  57.440 -55.721  1.00  0.00     0.046 A 
HETATM   22  C   UNL     1     -43.227  57.020 -57.008  1.00  0.00     0.068 A 
HETATM   23  C   UNL     1     -42.951  55.672 -57.234  1.00  0.00     0.037 A 
HETATM   24  C   UNL     1     -43.014  54.749 -56.192  1.00  0.00     0.003 A 
HETATM   25  C   UNL     1     -43.351  55.171 -54.907  1.00  0.00     0.010 A 
BRANCH  22  26
HETATM   26  O   UNL     1     -43.120  57.815 -58.112  1.00  0.00    -0.356 OA
HETATM   27  C   UNL     1     -41.946  58.607 -58.241  1.00  0.00     0.210 C 
ENDBRANCH  22  26
ENDBRANCH  17  20
ENDBRANCH  16  17
ENDBRANCH   1  16
TORSDOF 8
ENDMDL
MODEL 4
REMARK VINA RESULT:      -7.0      2.928      7.631
REMARK  8 active torsions:
REMARK  status: ('A' for Active; 'I' for Inactive)
REMARK    1  A    between atoms: C_2  and  N_3 
REMARK    2  A    between atoms: C_2  and  C_17 
REMARK    3  A    between atoms: N_3  and  C_6 
REMARK    4  A    between atoms: C_6  and  C_7 
REMARK    5  A    between atoms: C_7  and  O_8 
REMARK    6  A    between atoms: C_7  and  C_9 
REMARK    7  A    between atoms: C_11  and  O_12 
REMARK    8  A    between atoms: C_17  and  C_18 
ROOT
HETATM    1  N   UNL     1     -44.498  56.196 -54.534  1.00  0.00    -0.068 N 
HETATM    2  H   UNL     1     -45.497  56.026 -54.289  1.00  0.00     0.277 HD
HETATM    3  H   UNL     1     -44.388  55.793 -55.480  1.00  0.00     0.277 HD
ENDROOT
BRANCH   1   4
HETATM    4  C   UNL     1     -44.278  57.684 -54.504  1.00  0.00     0.188 C 
HETATM    5  C   UNL     1     -43.532  58.064 -53.230  1.00  0.00     0.040 C 
BRANCH   4   6
HETATM    6  C   UNL     1     -43.473  58.125 -55.746  1.00  0.00     0.099 C 
BRANCH   6   7
HETATM    7  C   UNL     1     -44.018  57.516 -57.003  1.00  0.00     0.078 A 
HETATM    8  S   UNL     1     -45.352  58.221 -57.808  1.00  0.00    -0.073 SA
HETATM    9  C   UNL     1     -45.268  57.001 -59.018  1.00  0.00     0.035 A 
HETATM   10  C   UNL     1     -44.213  56.135 -58.719  1.00  0.00     0.074 A 
HETATM   11  C   UNL     1     -46.078  56.822 -60.151  1.00  0.00     0.021 A 
HETATM   12  N   UNL     1     -43.491  56.450 -57.571  1.00  0.00    -0.245 NA
HETATM   13  C   UNL     1     -43.969  55.043 -59.577  1.00  0.00     0.033 A 
HETATM   14  C   UNL     1     -44.770  54.856 -60.708  1.00  0.00     0.002 A 
HETATM   15  C   UNL     1     -45.809  55.737 -60.991  1.00  0.00     0.002 A 
ENDBRANCH   6   7
ENDBRANCH   4   6
ENDBRANCH   1   4
BRANCH   1  16
HETATM   16  C   UNL     1     -43.675  55.342 -53.609  1.00  0.00     0.269 C 
BRANCH  16  17
HETATM   17  C   UNL     1     -42.485  54.762 -54.405  1.00  0.00     0.177 C 
BRANCH  17  18
HETATM   18  O   UNL     1     -43.038  54.035 -55.515  1.00  0.00    -0.389 OA
HETATM   19  H   UNL     1     -44.003  53.981 -55.353  1.00  0.00     0.210 HD
ENDBRANCH  17  18
BRANCH  17  20
HETATM   20  C   UNL     1     -41.602  53.869 -53.561  1.00  0.00    -0.025 A 
HETATM   21  C   UNL     1     -40.828  52.876 -54.195  1.00  0.00     0.046 A 
HETATM   22  C   UNL     1     -39.992  52.036 -53.453  1.00  0.00     0.068 A 
HETATM   23  C   UNL     1     -39.929  52.187 -52.069  1.00  0.00     0.037 A 
HETATM   24  C   UNL     1     -40.688  53.162 -51.424  1.00  0.00     0.003 A 
HETATM   25  C   UNL     1     -41.516  54.004 -52.166  1.00  0.00     0.010 A 
BRANCH  22  26
HETATM   26  O   UNL     1     -39.193  51.050 -53.955  1.00  0.00    -0.356 OA
HETATM   27  C   UNL     1     -39.825  49.873 -54.440  1.00  0.00     0.210 C 
ENDBRANCH  22  26
ENDBRANCH  17  20
ENDBRANCH  16  17
ENDBRANCH   1  16
TORSDOF 8
ENDMDL
MODEL 5
REMARK VINA RESULT:      -6.9      2.686      7.511
REMARK  8 active torsions:
REMARK  status: ('A' for Active; 'I' for Inactive)
REMARK    1  A    between atoms: C_2  and  N_3 
REMARK    2  A    between atoms: C_2  and  C_17 
REMARK    3  A    between atoms: N_3  and  C_6 
REMARK    4  A    between atoms: C_6  and  C_7 
REMARK    5  A    between atoms: C_7  and  O_8 
REMARK    6  A    between atoms: C_7  and  C_9 
REMARK    7  A    between atoms: C_11  and  O_12 
REMARK    8  A    between atoms: C_17  and  C_18 
ROOT
HETATM    1  N   UNL     1     -43.388  56.027 -53.718  1.00  0.00    -0.068 N 
HETATM    2  H   UNL     1     -43.966  55.166 -53.819  1.00  0.00     0.277 HD
HETATM    3  H   UNL     1     -42.855  56.090 -54.603  1.00  0.00     0.277 HD
ENDROOT
BRANCH   1   4
HETATM    4  C   UNL     1     -44.334  57.180 -53.523  1.00  0.00     0.188 C 
HETATM    5  C   UNL     1     -44.473  57.480 -52.034  1.00  0.00     0.040 C 
BRANCH   4   6
HETATM    6  C   UNL     1     -43.812  58.425 -54.273  1.00  0.00     0.099 C 
BRANCH   6   7
HETATM    7  C   UNL     1     -43.408  58.096 -55.678  1.00  0.00     0.078 A 
HETATM    8  S   UNL     1     -42.434  59.173 -56.582  1.00  0.00    -0.073 SA
HETATM    9  C   UNL     1     -42.456  58.078 -57.910  1.00  0.00     0.035 A 
HETATM   10  C   UNL     1     -43.211  56.956 -57.562  1.00  0.00     0.074 A 
HETATM   11  C   UNL     1     -41.850  58.205 -59.170  1.00  0.00     0.021 A 
HETATM   12  N   UNL     1     -43.737  56.967 -56.273  1.00  0.00    -0.245 NA
HETATM   13  C   UNL     1     -43.376  55.930 -58.515  1.00  0.00     0.033 A 
HETATM   14  C   UNL     1     -42.776  56.046 -59.773  1.00  0.00     0.002 A 
HETATM   15  C   UNL     1     -42.021  57.169 -60.093  1.00  0.00     0.002 A 
ENDBRANCH   6   7
ENDBRANCH   4   6
ENDBRANCH   1   4
BRANCH   1  16
HETATM   16  C   UNL     1     -42.382  55.748 -52.635  1.00  0.00     0.269 C 
BRANCH  16  17
HETATM   17  C   UNL     1     -41.005  55.509 -53.293  1.00  0.00     0.177 C 
BRANCH  17  18
HETATM   18  O   UNL     1     -41.091  56.007 -54.639  1.00  0.00    -0.389 OA
HETATM   19  H   UNL     1     -41.442  55.270 -55.181  1.00  0.00     0.210 HD
ENDBRANCH  17  18
BRANCH  17  20
HETATM   20  C   UNL     1     -40.600  54.051 -53.282  1.00  0.00    -0.025 A 
HETATM   21  C   UNL     1     -40.396  53.408 -52.044  1.00  0.00     0.046 A 
HETATM   22  C   UNL     1     -40.031  52.060 -51.989  1.00  0.00     0.068 A 
HETATM   23  C   UNL     1     -39.866  51.349 -53.177  1.00  0.00     0.037 A 
HETATM   24  C   UNL     1     -40.062  51.969 -54.410  1.00  0.00     0.003 A 
HETATM   25  C   UNL     1     -40.434  53.311 -54.463  1.00  0.00     0.010 A 
BRANCH  22  26
HETATM   26  O   UNL     1     -39.816  51.331 -50.856  1.00  0.00    -0.356 OA
HETATM   27  C   UNL     1     -39.501  49.952 -51.009  1.00  0.00     0.210 C 
ENDBRANCH  22  26
ENDBRANCH  17  20
ENDBRANCH  16  17
ENDBRANCH   1  16
TORSDOF 8
ENDMDL
MODEL 6
REMARK VINA RESULT:      -6.9      3.052      7.135
REMARK  8 active torsions:
REMARK  status: ('A' for Active; 'I' for Inactive)
REMARK    1  A    between atoms: C_2  and  N_3 
REMARK    2  A    between atoms: C_2  and  C_17 
REMARK    3  A    between atoms: N_3  and  C_6 
REMARK    4  A    between atoms: C_6  and  C_7 
REMARK    5  A    between atoms: C_7  and  O_8 
REMARK    6  A    between atoms: C_7  and  C_9 
REMARK    7  A    between atoms: C_11  and  O_12 
REMARK    8  A    between atoms: C_17  and  C_18 
ROOT
HETATM    1  N   UNL     1     -43.516  56.097 -56.186  1.00  0.00    -0.068 N 
HETATM    2  H   UNL     1     -43.918  56.477 -55.303  1.00  0.00     0.277 HD
HETATM    3  H   UNL     1     -44.338  55.878 -56.775  1.00  0.00     0.277 HD
ENDROOT
BRANCH   1   4
HETATM    4  C   UNL     1     -42.643  57.170 -56.777  1.00  0.00     0.188 C 
HETATM    5  C   UNL     1     -42.759  57.140 -58.298  1.00  0.00     0.040 C 
BRANCH   4   6
HETATM    6  C   UNL     1     -43.066  58.553 -56.236  1.00  0.00     0.099 C 
BRANCH   6   7
HETATM    7  C   UNL     1     -42.608  58.758 -54.823  1.00  0.00     0.078 A 
HETATM    8  S   UNL     1     -42.862  60.252 -54.031  1.00  0.00    -0.073 SA
HETATM    9  C   UNL     1     -42.121  59.624 -52.609  1.00  0.00     0.035 A 
HETATM   10  C   UNL     1     -41.733  58.303 -52.844  1.00  0.00     0.074 A 
HETATM   11  C   UNL     1     -41.899  60.256 -51.376  1.00  0.00     0.021 A 
HETATM   12  N   UNL     1     -42.034  57.810 -54.111  1.00  0.00    -0.245 NA
HETATM   13  C   UNL     1     -41.087  57.594 -51.811  1.00  0.00     0.033 A 
HETATM   14  C   UNL     1     -40.861  58.214 -50.578  1.00  0.00     0.002 A 
HETATM   15  C   UNL     1     -41.265  59.528 -50.365  1.00  0.00     0.002 A 
ENDBRANCH   6   7
ENDBRANCH   4   6
ENDBRANCH   1   4
BRANCH   1  16
HETATM   16  C   UNL     1     -42.878  54.780 -55.839  1.00  0.00     0.269 C 
BRANCH  16  17
HETATM   17  C   UNL     1     -43.357  54.358 -54.432  1.00  0.00     0.177 C 
BRANCH  17  18
HETATM   18  O   UNL     1     -43.906  55.530 -53.807  1.00  0.00    -0.389 OA
HETATM   19  H   UNL     1     -44.631  55.217 -53.227  1.00  0.00     0.210 HD
ENDBRANCH  17  18
BRANCH  17  20
HETATM   20  C   UNL     1     -42.245  53.767 -53.592  1.00  0.00    -0.025 A 
HETATM   21  C   UNL     1     -41.366  52.835 -54.179  1.00  0.00     0.046 A 
HETATM   22  C   UNL     1     -40.321  52.273 -53.442  1.00  0.00     0.068 A 
HETATM   23  C   UNL     1     -40.153  52.641 -52.107  1.00  0.00     0.037 A 
HETATM   24  C   UNL     1     -41.014  53.559 -51.509  1.00  0.00     0.003 A 
HETATM   25  C   UNL     1     -42.052  54.125 -52.249  1.00  0.00     0.010 A 
BRANCH  22  26
HETATM   26  O   UNL     1     -39.405  51.373 -53.903  1.00  0.00    -0.356 OA
HETATM   27  C   UNL     1     -39.666  49.993 -53.679  1.00  0.00     0.210 C 
ENDBRANCH  22  26
ENDBRANCH  17  20
ENDBRANCH  16  17
ENDBRANCH   1  16
TORSDOF 8
ENDMDL
MODEL 7
REMARK VINA RESULT:      -6.8      3.206      5.784
REMARK  8 active torsions:
REMARK  status: ('A' for Active; 'I' for Inactive)
REMARK    1  A    between atoms: C_2  and  N_3 
REMARK    2  A    between atoms: C_2  and  C_17 
REMARK    3  A    between atoms: N_3  and  C_6 
REMARK    4  A    between atoms: C_6  and  C_7 
REMARK    5  A    between atoms: C_7  and  O_8 
REMARK    6  A    between atoms: C_7  and  C_9 
REMARK    7  A    between atoms: C_11  and  O_12 
REMARK    8  A    between atoms: C_17  and  C_18 
ROOT
HETATM    1  N   UNL     1     -42.428  56.453 -55.366  1.00  0.00    -0.068 N 
HETATM    2  H   UNL     1     -41.475  56.846 -55.523  1.00  0.00     0.277 HD
HETATM    3  H   UNL     1     -42.898  56.535 -56.284  1.00  0.00     0.277 HD
ENDROOT
BRANCH   1   4
HETATM    4  C   UNL     1     -42.255  55.025 -54.926  1.00  0.00     0.188 C 
HETATM    5  C   UNL     1     -43.137  54.119 -55.777  1.00  0.00     0.040 C 
BRANCH   4   6
HETATM    6  C   UNL     1     -40.774  54.606 -55.057  1.00  0.00     0.099 C 
BRANCH   6   7
HETATM    7  C   UNL     1     -40.449  53.438 -54.177  1.00  0.00     0.078 A 
HETATM    8  S   UNL     1     -40.298  53.635 -52.485  1.00  0.00    -0.073 SA
HETATM    9  C   UNL     1     -39.978  51.952 -52.317  1.00  0.00     0.035 A 
HETATM   10  C   UNL     1     -40.013  51.354 -53.579  1.00  0.00     0.074 A 
HETATM   11  C   UNL     1     -39.713  51.215 -51.152  1.00  0.00     0.021 A 
HETATM   12  N   UNL     1     -40.302  52.211 -54.637  1.00  0.00    -0.245 NA
HETATM   13  C   UNL     1     -39.761  49.971 -53.680  1.00  0.00     0.033 A 
HETATM   14  C   UNL     1     -39.497  49.226 -52.525  1.00  0.00     0.002 A 
HETATM   15  C   UNL     1     -39.476  49.842 -51.278  1.00  0.00     0.002 A 
ENDBRANCH   6   7
ENDBRANCH   4   6
ENDBRANCH   1   4
BRANCH   1  16
HETATM   16  C   UNL     1     -43.138  57.398 -54.437  1.00  0.00     0.269 C 
BRANCH  16  17
HETATM   17  C   UNL     1     -43.688  56.590 -53.240  1.00  0.00     0.177 C 
BRANCH  17  18
HETATM   18  O   UNL     1     -44.946  57.182 -52.878  1.00  0.00    -0.389 OA
HETATM   19  H   UNL     1     -45.461  56.478 -52.431  1.00  0.00     0.210 HD
ENDBRANCH  17  18
BRANCH  17  20
HETATM   20  C   UNL     1     -42.737  56.577 -52.063  1.00  0.00    -0.025 A 
HETATM   21  C   UNL     1     -42.836  55.538 -51.115  1.00  0.00     0.046 A 
HETATM   22  C   UNL     1     -41.972  55.484 -50.018  1.00  0.00     0.068 A 
HETATM   23  C   UNL     1     -41.004  56.475 -49.863  1.00  0.00     0.037 A 
HETATM   24  C   UNL     1     -40.892  57.511 -50.789  1.00  0.00     0.003 A 
HETATM   25  C   UNL     1     -41.750  57.559 -51.887  1.00  0.00     0.010 A 
BRANCH  22  26
HETATM   26  O   UNL     1     -41.966  54.526 -49.046  1.00  0.00    -0.356 OA
HETATM   27  C   UNL     1     -40.705  54.010 -48.639  1.00  0.00     0.210 C 
ENDBRANCH  22  26
ENDBRANCH  17  20
ENDBRANCH  16  17
ENDBRANCH   1  16
TORSDOF 8
ENDMDL
MODEL 8
REMARK VINA RESULT:      -6.8      3.100      7.343
REMARK  8 active torsions:
REMARK  status: ('A' for Active; 'I' for Inactive)
REMARK    1  A    between atoms: C_2  and  N_3 
REMARK    2  A    between atoms: C_2  and  C_17 
REMARK    3  A    between atoms: N_3  and  C_6 
REMARK    4  A    between atoms: C_6  and  C_7 
REMARK    5  A    between atoms: C_7  and  O_8 
REMARK    6  A    between atoms: C_7  and  C_9 
REMARK    7  A    between atoms: C_11  and  O_12 
REMARK    8  A    between atoms: C_17  and  C_18 
ROOT
HETATM    1  N   UNL     1     -43.646  55.709 -56.668  1.00  0.00    -0.068 N 
HETATM    2  H   UNL     1     -44.103  56.291 -55.934  1.00  0.00     0.277 HD
HETATM    3  H   UNL     1     -44.431  55.285 -57.192  1.00  0.00     0.277 HD
ENDROOT
BRANCH   1   4
HETATM    4  C   UNL     1     -42.810  56.631 -57.513  1.00  0.00     0.188 C 
HETATM    5  C   UNL     1     -43.188  56.459 -58.980  1.00  0.00     0.040 C 
BRANCH   4   6
HETATM    6  C   UNL     1     -43.028  58.095 -57.072  1.00  0.00     0.099 C 
BRANCH   6   7
HETATM    7  C   UNL     1     -42.756  58.279 -55.610  1.00  0.00     0.078 A 
HETATM    8  S   UNL     1     -43.668  59.392 -54.685  1.00  0.00    -0.073 SA
HETATM    9  C   UNL     1     -42.776  58.955 -53.279  1.00  0.00     0.035 A 
HETATM   10  C   UNL     1     -41.839  57.977 -53.620  1.00  0.00     0.074 A 
HETATM   11  C   UNL     1     -42.898  59.443 -51.968  1.00  0.00     0.021 A 
HETATM   12  N   UNL     1     -41.848  57.583 -54.955  1.00  0.00    -0.245 NA
HETATM   13  C   UNL     1     -40.983  57.480 -52.616  1.00  0.00     0.033 A 
HETATM   14  C   UNL     1     -41.096  57.959 -51.307  1.00  0.00     0.002 A 
HETATM   15  C   UNL     1     -42.043  58.927 -50.989  1.00  0.00     0.002 A 
ENDBRANCH   6   7
ENDBRANCH   4   6
ENDBRANCH   1   4
BRANCH   1  16
HETATM   16  C   UNL     1     -42.952  54.581 -55.955  1.00  0.00     0.269 C 
BRANCH  16  17
HETATM   17  C   UNL     1     -43.626  54.380 -54.579  1.00  0.00     0.177 C 
BRANCH  17  18
HETATM   18  O   UNL     1     -44.408  55.558 -54.320  1.00  0.00    -0.389 OA
HETATM   19  H   UNL     1     -44.812  55.812 -55.176  1.00  0.00     0.210 HD
ENDBRANCH  17  18
BRANCH  17  20
HETATM   20  C   UNL     1     -42.625  54.141 -53.470  1.00  0.00    -0.025 A 
HETATM   21  C   UNL     1     -42.954  54.531 -52.156  1.00  0.00     0.046 A 
HETATM   22  C   UNL     1     -42.061  54.320 -51.102  1.00  0.00     0.068 A 
HETATM   23  C   UNL     1     -40.830  53.719 -51.360  1.00  0.00     0.037 A 
HETATM   24  C   UNL     1     -40.487  53.329 -52.653  1.00  0.00     0.003 A 
HETATM   25  C   UNL     1     -41.381  53.533 -53.703  1.00  0.00     0.010 A 
BRANCH  22  26
HETATM   26  O   UNL     1     -42.272  54.644 -49.792  1.00  0.00    -0.356 OA
HETATM   27  C   UNL     1     -41.141  54.673 -48.931  1.00  0.00     0.210 C 
ENDBRANCH  22  26
ENDBRANCH  17  20
ENDBRANCH  16  17
ENDBRANCH   1  16
TORSDOF 8
ENDMDL
MODEL 9
REMARK VINA RESULT:      -6.6      1.662      2.185
REMARK  8 active torsions:
REMARK  status: ('A' for Active; 'I' for Inactive)
REMARK    1  A    between atoms: C_2  and  N_3 
REMARK    2  A    between atoms: C_2  and  C_17 
REMARK    3  A    between atoms: N_3  and  C_6 
REMARK    4  A    between atoms: C_6  and  C_7 
REMARK    5  A    between atoms: C_7  and  O_8 
REMARK    6  A    between atoms: C_7  and  C_9 
REMARK    7  A    between atoms: C_11  and  O_12 
REMARK    8  A    between atoms: C_17  and  C_18 
ROOT
HETATM    1  N   UNL     1     -42.677  57.727 -53.986  1.00  0.00    -0.068 N 
HETATM    2  H   UNL     1     -43.228  56.847 -54.076  1.00  0.00     0.277 HD
HETATM    3  H   UNL     1     -43.241  58.326 -53.360  1.00  0.00     0.277 HD
ENDROOT
BRANCH   1   4
HETATM    4  C   UNL     1     -41.343  57.360 -53.397  1.00  0.00     0.188 C 
HETATM    5  C   UNL     1     -40.609  58.626 -52.968  1.00  0.00     0.040 C 
BRANCH   4   6
HETATM    6  C   UNL     1     -41.540  56.421 -52.187  1.00  0.00     0.099 C 
BRANCH   6   7
HETATM    7  C   UNL     1     -41.104  55.020 -52.497  1.00  0.00     0.078 A 
HETATM    8  S   UNL     1     -41.164  54.421 -54.098  1.00  0.00    -0.073 SA
HETATM    9  C   UNL     1     -40.524  52.917 -53.559  1.00  0.00     0.035 A 
HETATM   10  C   UNL     1     -40.306  52.983 -52.181  1.00  0.00     0.074 A 
HETATM   11  C   UNL     1     -40.238  51.762 -54.303  1.00  0.00     0.021 A 
HETATM   12  N   UNL     1     -40.624  54.199 -51.584  1.00  0.00    -0.245 NA
HETATM   13  C   UNL     1     -39.794  51.846 -51.522  1.00  0.00     0.033 A 
HETATM   14  C   UNL     1     -39.505  50.690 -52.254  1.00  0.00     0.002 A 
HETATM   15  C   UNL     1     -39.723  50.651 -53.627  1.00  0.00     0.002 A 
ENDBRANCH   6   7
ENDBRANCH   4   6
ENDBRANCH   1   4
BRANCH   1  16
HETATM   16  C   UNL     1     -42.695  58.388 -55.337  1.00  0.00     0.269 C 
BRANCH  16  17
HETATM   17  C   UNL     1     -43.689  57.629 -56.243  1.00  0.00     0.177 C 
BRANCH  17  18
HETATM   18  O   UNL     1     -43.874  56.327 -55.663  1.00  0.00    -0.389 OA
HETATM   19  H   UNL     1     -42.977  55.975 -55.489  1.00  0.00     0.210 HD
ENDBRANCH  17  18
BRANCH  17  20
HETATM   20  C   UNL     1     -43.206  57.520 -57.673  1.00  0.00    -0.025 A 
HETATM   21  C   UNL     1     -43.825  56.592 -58.535  1.00  0.00     0.046 A 
HETATM   22  C   UNL     1     -43.415  56.466 -59.865  1.00  0.00     0.068 A 
HETATM   23  C   UNL     1     -42.379  57.270 -60.339  1.00  0.00     0.037 A 
HETATM   24  C   UNL     1     -41.755  58.192 -59.500  1.00  0.00     0.003 A 
HETATM   25  C   UNL     1     -42.169  58.321 -58.176  1.00  0.00     0.010 A 
BRANCH  22  26
HETATM   26  O   UNL     1     -43.943  55.614 -60.792  1.00  0.00    -0.356 OA
HETATM   27  C   UNL     1     -45.051  54.815 -60.397  1.00  0.00     0.210 C 
ENDBRANCH  22  26
ENDBRANCH  17  20
ENDBRANCH  16  17
ENDBRANCH   1  16
TORSDOF 8
ENDMDL
MODEL 10
REMARK VINA RESULT:      -6.4      2.688      3.951
REMARK  8 active torsions:
REMARK  status: ('A' for Active; 'I' for Inactive)
REMARK    1  A    between atoms: C_2  and  N_3 
REMARK    2  A    between atoms: C_2  and  C_17 
REMARK    3  A    between atoms: N_3  and  C_6 
REMARK    4  A    between atoms: C_6  and  C_7 
REMARK    5  A    between atoms: C_7  and  O_8 
REMARK    6  A    between atoms: C_7  and  C_9 
REMARK    7  A    between atoms: C_11  and  O_12 
REMARK    8  A    between atoms: C_17  and  C_18 
ROOT
HETATM    1  N   UNL     1     -40.505  58.407 -52.281  1.00  0.00    -0.068 N 
HETATM    2  H   UNL     1     -39.482  58.459 -52.476  1.00  0.00     0.277 HD
HETATM    3  H   UNL     1     -40.867  57.722 -52.967  1.00  0.00     0.277 HD
ENDROOT
BRANCH   1   4
HETATM    4  C   UNL     1     -40.665  57.948 -50.858  1.00  0.00     0.188 C 
HETATM    5  C   UNL     1     -41.069  59.131 -49.984  1.00  0.00     0.040 C 
BRANCH   4   6
HETATM    6  C   UNL     1     -41.733  56.835 -50.778  1.00  0.00     0.099 C 
BRANCH   6   7
HETATM    7  C   UNL     1     -41.209  55.528 -51.290  1.00  0.00     0.078 A 
HETATM    8  S   UNL     1     -40.652  54.326 -50.209  1.00  0.00    -0.073 SA
HETATM    9  C   UNL     1     -40.307  53.289 -51.538  1.00  0.00     0.035 A 
HETATM   10  C   UNL     1     -40.649  53.941 -52.725  1.00  0.00     0.074 A 
HETATM   11  C   UNL     1     -39.771  51.991 -51.530  1.00  0.00     0.021 A 
HETATM   12  N   UNL     1     -41.183  55.218 -52.571  1.00  0.00    -0.245 NA
HETATM   13  C   UNL     1     -40.434  53.276 -53.949  1.00  0.00     0.033 A 
HETATM   14  C   UNL     1     -39.901  51.983 -53.953  1.00  0.00     0.002 A 
HETATM   15  C   UNL     1     -39.577  51.349 -52.757  1.00  0.00     0.002 A 
ENDBRANCH   6   7
ENDBRANCH   4   6
ENDBRANCH   1   4
BRANCH   1  16
HETATM   16  C   UNL     1     -41.086  59.740 -52.664  1.00  0.00     0.269 C 
BRANCH  16  17
HETATM   17  C   UNL     1     -41.645  59.638 -54.100  1.00  0.00     0.177 C 
BRANCH  17  18
HETATM   18  O   UNL     1     -42.239  60.910 -54.410  1.00  0.00    -0.389 OA
HETATM   19  H   UNL     1     -41.707  61.290 -55.140  1.00  0.00     0.210 HD
ENDBRANCH  17  18
BRANCH  17  20
HETATM   20  C   UNL     1     -42.653  58.519 -54.254  1.00  0.00    -0.025 A 
HETATM   21  C   UNL     1     -42.386  57.479 -55.166  1.00  0.00     0.046 A 
HETATM   22  C   UNL     1     -43.286  56.422 -55.331  1.00  0.00     0.068 A 
HETATM   23  C   UNL     1     -44.462  56.405 -54.583  1.00  0.00     0.037 A 
HETATM   24  C   UNL     1     -44.744  57.427 -53.678  1.00  0.00     0.003 A 
HETATM   25  C   UNL     1     -43.842  58.476 -53.508  1.00  0.00     0.010 A 
BRANCH  22  26
HETATM   26  O   UNL     1     -43.132  55.359 -56.172  1.00  0.00    -0.356 OA
HETATM   27  C   UNL     1     -43.250  54.056 -55.614  1.00  0.00     0.210 C 
ENDBRANCH  22  26
ENDBRANCH  17  20
ENDBRANCH  16  17
ENDBRANCH   1  16
TORSDOF 8
ENDMDL
