MODEL 1
REMARK VINA RESULT:      -8.4      0.000      0.000
REMARK  5 active torsions:
REMARK  status: ('A' for Active; 'I' for Inactive)
REMARK    1  A    between atoms: C_3  and  N_4 
REMARK       I    between atoms: N_4  and  C_5 
REMARK    2  A    between atoms: C_5  and  C_6 
REMARK    3  A    between atoms: C_6  and  N_7 
REMARK    4  A    between atoms: C_6  and  C_16 
REMARK       I    between atoms: N_7  and  C_8 
REMARK    5  A    between atoms: C_8  and  C_9 
ROOT
HETATM    1  C   UNL     1     -40.808  55.147 -54.352  1.00  0.00     0.210 C 
ENDROOT
BRANCH   1   2
HETATM    2  C   UNL     1     -41.002  53.710 -53.779  1.00  0.00     0.249 C 
HETATM    3  N   UNL     1     -39.879  53.131 -53.211  1.00  0.00    -0.324 N 
HETATM    4  H   UNL     1     -39.135  53.784 -52.971  1.00  0.00     0.169 HD
HETATM    5  O   UNL     1     -42.097  53.152 -53.889  1.00  0.00    -0.270 OA
BRANCH   3   6
HETATM    6  C   UNL     1     -39.868  51.891 -52.526  1.00  0.00     0.046 A 
HETATM    7  C   UNL     1     -39.688  50.657 -53.187  1.00  0.00    -0.035 A 
HETATM    8  C   UNL     1     -39.388  50.529 -54.656  1.00  0.00     0.050 C 
HETATM    9  C   UNL     1     -39.732  49.465 -52.441  1.00  0.00     0.009 A 
HETATM   10  C   UNL     1     -39.889  49.488 -51.059  1.00  0.00     0.001 A 
HETATM   11  C   UNL     1     -40.001  50.705 -50.400  1.00  0.00     0.009 A 
HETATM   12  C   UNL     1     -39.993  51.913 -51.116  1.00  0.00    -0.035 A 
HETATM   13  C   UNL     1     -40.150  53.195 -50.341  1.00  0.00     0.050 C 
ENDBRANCH   3   6
ENDBRANCH   1   2
BRANCH   1  14
HETATM   14  N   UNL     1     -41.373  55.354 -55.685  1.00  0.00    -0.338 N 
HETATM   15  C   UNL     1     -42.651  55.767 -55.964  1.00  0.00     0.273 C 
HETATM   16  O   UNL     1     -43.560  55.755 -55.139  1.00  0.00    -0.266 OA
HETATM   17  H   UNL     1     -40.724  55.490 -56.456  1.00  0.00     0.164 HD
BRANCH  15  18
HETATM   18  C   UNL     1     -42.833  56.213 -57.352  1.00  0.00     0.145 A 
HETATM   19  N   UNL     1     -42.482  57.453 -57.751  1.00  0.00    -0.170 NA
HETATM   20  N   UNL     1     -42.801  57.477 -59.058  1.00  0.00    -0.289 N 
HETATM   21  H   UNL     1     -42.620  58.326 -59.584  1.00  0.00     0.188 HD
HETATM   22  C   UNL     1     -43.347  56.313 -59.508  1.00  0.00     0.112 A 
HETATM   23  C   UNL     1     -43.383  55.468 -58.426  1.00  0.00     0.058 A 
ENDBRANCH  15  18
ENDBRANCH   1  14
BRANCH   1  24
HETATM   24  C   UNL     1     -41.081  56.279 -53.360  1.00  0.00    -0.026 A 
HETATM   25  C   UNL     1     -41.654  56.006 -52.105  1.00  0.00     0.010 A 
HETATM   26  C   UNL     1     -41.850  57.018 -51.161  1.00  0.00     0.001 A 
HETATM   27  C   UNL     1     -41.455  58.322 -51.444  1.00  0.00     0.000 A 
HETATM   28  C   UNL     1     -40.855  58.611 -52.665  1.00  0.00     0.001 A 
HETATM   29  C   UNL     1     -40.659  57.598 -53.609  1.00  0.00     0.010 A 
ENDBRANCH   1  24
TORSDOF 5
ENDMDL
MODEL 2
REMARK VINA RESULT:      -8.2      2.451      5.242
REMARK  5 active torsions:
REMARK  status: ('A' for Active; 'I' for Inactive)
REMARK    1  A    between atoms: C_3  and  N_4 
REMARK       I    between atoms: N_4  and  C_5 
REMARK    2  A    between atoms: C_5  and  C_6 
REMARK    3  A    between atoms: C_6  and  N_7 
REMARK    4  A    between atoms: C_6  and  C_16 
REMARK       I    between atoms: N_7  and  C_8 
REMARK    5  A    between atoms: C_8  and  C_9 
ROOT
HETATM    1  C   UNL     1     -42.449  56.598 -53.731  1.00  0.00     0.210 C 
ENDROOT
BRANCH   1   2
HETATM    2  C   UNL     1     -42.266  55.142 -53.202  1.00  0.00     0.249 C 
HETATM    3  N   UNL     1     -40.963  54.763 -52.923  1.00  0.00    -0.324 N 
HETATM    4  H   UNL     1     -40.305  55.533 -52.817  1.00  0.00     0.169 HD
HETATM    5  O   UNL     1     -43.248  54.402 -53.101  1.00  0.00    -0.270 OA
BRANCH   3   6
HETATM    6  C   UNL     1     -40.591  53.536 -52.321  1.00  0.00     0.046 A 
HETATM    7  C   UNL     1     -40.659  53.320 -50.928  1.00  0.00    -0.035 A 
HETATM    8  C   UNL     1     -41.222  54.317 -49.951  1.00  0.00     0.050 C 
HETATM    9  C   UNL     1     -40.231  52.088 -50.401  1.00  0.00     0.009 A 
HETATM   10  C   UNL     1     -39.802  51.061 -51.235  1.00  0.00     0.001 A 
HETATM   11  C   UNL     1     -39.796  51.249 -52.611  1.00  0.00     0.009 A 
HETATM   12  C   UNL     1     -40.186  52.478 -53.170  1.00  0.00    -0.035 A 
HETATM   13  C   UNL     1     -40.127  52.624 -54.667  1.00  0.00     0.050 C 
ENDBRANCH   3   6
ENDBRANCH   1   2
BRANCH   1  14
HETATM   14  N   UNL     1     -41.522  57.576 -53.161  1.00  0.00    -0.338 N 
HETATM   15  C   UNL     1     -41.649  58.192 -51.942  1.00  0.00     0.273 C 
HETATM   16  O   UNL     1     -42.691  58.202 -51.295  1.00  0.00    -0.266 OA
HETATM   17  H   UNL     1     -40.577  57.602 -53.534  1.00  0.00     0.164 HD
BRANCH  15  18
HETATM   18  C   UNL     1     -40.417  58.852 -51.489  1.00  0.00     0.145 A 
HETATM   19  N   UNL     1     -39.353  59.006 -52.304  1.00  0.00    -0.170 NA
HETATM   20  N   UNL     1     -38.445  59.637 -51.538  1.00  0.00    -0.289 N 
HETATM   21  H   UNL     1     -37.544  59.868 -51.947  1.00  0.00     0.188 HD
HETATM   22  C   UNL     1     -38.877  59.885 -50.270  1.00  0.00     0.112 A 
HETATM   23  C   UNL     1     -40.156  59.388 -50.202  1.00  0.00     0.058 A 
ENDBRANCH  15  18
ENDBRANCH   1  14
BRANCH   1  24
HETATM   24  C   UNL     1     -42.649  56.714 -55.243  1.00  0.00    -0.026 A 
HETATM   25  C   UNL     1     -42.538  57.960 -55.885  1.00  0.00     0.010 A 
HETATM   26  C   UNL     1     -42.653  58.074 -57.273  1.00  0.00     0.001 A 
HETATM   27  C   UNL     1     -42.859  56.940 -58.052  1.00  0.00     0.000 A 
HETATM   28  C   UNL     1     -42.939  55.692 -57.444  1.00  0.00     0.001 A 
HETATM   29  C   UNL     1     -42.824  55.578 -56.055  1.00  0.00     0.010 A 
ENDBRANCH   1  24
TORSDOF 5
ENDMDL
MODEL 3
REMARK VINA RESULT:      -8.0      2.844      7.343
REMARK  5 active torsions:
REMARK  status: ('A' for Active; 'I' for Inactive)
REMARK    1  A    between atoms: C_3  and  N_4 
REMARK       I    between atoms: N_4  and  C_5 
REMARK    2  A    between atoms: C_5  and  C_6 
REMARK    3  A    between atoms: C_6  and  N_7 
REMARK    4  A    between atoms: C_6  and  C_16 
REMARK       I    between atoms: N_7  and  C_8 
REMARK    5  A    between atoms: C_8  and  C_9 
ROOT
HETATM    1  C   UNL     1     -41.397  56.234 -54.190  1.00  0.00     0.210 C 
ENDROOT
BRANCH   1   2
HETATM    2  C   UNL     1     -42.748  56.295 -54.969  1.00  0.00     0.249 C 
HETATM    3  N   UNL     1     -42.860  57.314 -55.901  1.00  0.00    -0.324 N 
HETATM    4  H   UNL     1     -41.977  57.733 -56.186  1.00  0.00     0.169 HD
HETATM    5  O   UNL     1     -43.643  55.490 -54.700  1.00  0.00    -0.270 OA
BRANCH   3   6
HETATM    6  C   UNL     1     -43.945  57.471 -56.798  1.00  0.00     0.046 A 
HETATM    7  C   UNL     1     -43.962  56.890 -58.083  1.00  0.00    -0.035 A 
HETATM    8  C   UNL     1     -42.892  55.966 -58.600  1.00  0.00     0.050 C 
HETATM    9  C   UNL     1     -45.058  57.128 -58.932  1.00  0.00     0.009 A 
HETATM   10  C   UNL     1     -46.150  57.875 -58.501  1.00  0.00     0.001 A 
HETATM   11  C   UNL     1     -46.164  58.394 -57.213  1.00  0.00     0.009 A 
HETATM   12  C   UNL     1     -45.072  58.202 -56.350  1.00  0.00    -0.035 A 
HETATM   13  C   UNL     1     -45.140  58.818 -54.977  1.00  0.00     0.050 C 
ENDBRANCH   3   6
ENDBRANCH   1   2
BRANCH   1  14
HETATM   14  N   UNL     1     -41.303  57.156 -53.058  1.00  0.00    -0.338 N 
HETATM   15  C   UNL     1     -41.246  58.524 -53.135  1.00  0.00     0.273 C 
HETATM   16  O   UNL     1     -40.996  59.133 -54.171  1.00  0.00    -0.266 OA
HETATM   17  H   UNL     1     -41.587  56.810 -52.145  1.00  0.00     0.164 HD
BRANCH  15  18
HETATM   18  C   UNL     1     -41.499  59.193 -51.852  1.00  0.00     0.145 A 
HETATM   19  N   UNL     1     -40.960  58.746 -50.699  1.00  0.00    -0.170 NA
HETATM   20  N   UNL     1     -41.421  59.603 -49.770  1.00  0.00    -0.289 N 
HETATM   21  H   UNL     1     -41.140  59.466 -48.803  1.00  0.00     0.188 HD
HETATM   22  C   UNL     1     -42.236  60.570 -50.276  1.00  0.00     0.112 A 
HETATM   23  C   UNL     1     -42.310  60.335 -51.626  1.00  0.00     0.058 A 
ENDBRANCH  15  18
ENDBRANCH   1  14
BRANCH   1  24
HETATM   24  C   UNL     1     -40.879  54.823 -53.909  1.00  0.00    -0.026 A 
HETATM   25  C   UNL     1     -40.911  54.296 -52.606  1.00  0.00     0.010 A 
HETATM   26  C   UNL     1     -40.503  52.985 -52.343  1.00  0.00     0.001 A 
HETATM   27  C   UNL     1     -40.075  52.166 -53.381  1.00  0.00     0.000 A 
HETATM   28  C   UNL     1     -40.066  52.652 -54.685  1.00  0.00     0.001 A 
HETATM   29  C   UNL     1     -40.475  53.963 -54.948  1.00  0.00     0.010 A 
ENDBRANCH   1  24
TORSDOF 5
ENDMDL
MODEL 4
REMARK VINA RESULT:      -8.0      2.372      3.328
REMARK  5 active torsions:
REMARK  status: ('A' for Active; 'I' for Inactive)
REMARK    1  A    between atoms: C_3  and  N_4 
REMARK       I    between atoms: N_4  and  C_5 
REMARK    2  A    between atoms: C_5  and  C_6 
REMARK    3  A    between atoms: C_6  and  N_7 
REMARK    4  A    between atoms: C_6  and  C_16 
REMARK       I    between atoms: N_7  and  C_8 
REMARK    5  A    between atoms: C_8  and  C_9 
ROOT
HETATM    1  C   UNL     1     -43.389  56.816 -54.480  1.00  0.00     0.210 C 
ENDROOT
BRANCH   1   2
HETATM    2  C   UNL     1     -42.944  55.427 -53.926  1.00  0.00     0.249 C 
HETATM    3  N   UNL     1     -41.679  55.381 -53.362  1.00  0.00    -0.324 N 
HETATM    4  H   UNL     1     -41.288  56.288 -53.111  1.00  0.00     0.169 HD
HETATM    5  O   UNL     1     -43.692  54.454 -54.048  1.00  0.00    -0.270 OA
BRANCH   3   6
HETATM    6  C   UNL     1     -41.134  54.258 -52.693  1.00  0.00     0.046 A 
HETATM    7  C   UNL     1     -41.324  54.027 -51.315  1.00  0.00    -0.035 A 
HETATM    8  C   UNL     1     -42.200  54.877 -50.435  1.00  0.00     0.050 C 
HETATM    9  C   UNL     1     -40.715  52.910 -50.714  1.00  0.00     0.009 A 
HETATM   10  C   UNL     1     -39.980  52.001 -51.468  1.00  0.00     0.001 A 
HETATM   11  C   UNL     1     -39.846  52.193 -52.837  1.00  0.00     0.009 A 
HETATM   12  C   UNL     1     -40.414  53.314 -53.465  1.00  0.00    -0.035 A 
HETATM   13  C   UNL     1     -40.204  53.476 -54.947  1.00  0.00     0.050 C 
ENDBRANCH   3   6
ENDBRANCH   1   2
BRANCH   1  14
HETATM   14  N   UNL     1     -43.902  56.791 -55.850  1.00  0.00    -0.338 N 
HETATM   15  C   UNL     1     -43.198  57.116 -56.981  1.00  0.00     0.273 C 
HETATM   16  O   UNL     1     -42.133  57.726 -56.962  1.00  0.00    -0.266 OA
HETATM   17  H   UNL     1     -44.729  56.227 -56.033  1.00  0.00     0.164 HD
BRANCH  15  18
HETATM   18  C   UNL     1     -43.849  56.676 -58.223  1.00  0.00     0.145 A 
HETATM   19  N   UNL     1     -44.964  57.273 -58.690  1.00  0.00    -0.170 NA
HETATM   20  N   UNL     1     -45.247  56.597 -59.818  1.00  0.00    -0.289 N 
HETATM   21  H   UNL     1     -46.062  56.875 -60.358  1.00  0.00     0.188 HD
HETATM   22  C   UNL     1     -44.369  55.591 -60.086  1.00  0.00     0.112 A 
HETATM   23  C   UNL     1     -43.446  55.612 -59.070  1.00  0.00     0.058 A 
ENDBRANCH  15  18
ENDBRANCH   1  14
BRANCH   1  24
HETATM   24  C   UNL     1     -44.209  57.665 -53.507  1.00  0.00    -0.026 A 
HETATM   25  C   UNL     1     -44.335  57.285 -52.159  1.00  0.00     0.010 A 
HETATM   26  C   UNL     1     -45.025  58.083 -51.242  1.00  0.00     0.001 A 
HETATM   27  C   UNL     1     -45.583  59.290 -51.649  1.00  0.00     0.000 A 
HETATM   28  C   UNL     1     -45.443  59.705 -52.969  1.00  0.00     0.001 A 
HETATM   29  C   UNL     1     -44.753  58.906 -53.886  1.00  0.00     0.010 A 
ENDBRANCH   1  24
TORSDOF 5
ENDMDL
MODEL 5
REMARK VINA RESULT:      -7.7      1.832      5.669
REMARK  5 active torsions:
REMARK  status: ('A' for Active; 'I' for Inactive)
REMARK    1  A    between atoms: C_3  and  N_4 
REMARK       I    between atoms: N_4  and  C_5 
REMARK    2  A    between atoms: C_5  and  C_6 
REMARK    3  A    between atoms: C_6  and  N_7 
REMARK    4  A    between atoms: C_6  and  C_16 
REMARK       I    between atoms: N_7  and  C_8 
REMARK    5  A    between atoms: C_8  and  C_9 
ROOT
HETATM    1  C   UNL     1     -42.012  55.014 -54.247  1.00  0.00     0.210 C 
ENDROOT
BRANCH   1   2
HETATM    2  C   UNL     1     -41.554  56.363 -53.611  1.00  0.00     0.249 C 
HETATM    3  N   UNL     1     -42.443  56.941 -52.720  1.00  0.00    -0.324 N 
HETATM    4  H   UNL     1     -43.157  56.311 -52.356  1.00  0.00     0.169 HD
HETATM    5  O   UNL     1     -40.478  56.862 -53.950  1.00  0.00    -0.270 OA
BRANCH   3   6
HETATM    6  C   UNL     1     -42.172  58.094 -51.942  1.00  0.00     0.046 A 
HETATM    7  C   UNL     1     -42.636  59.378 -52.297  1.00  0.00    -0.035 A 
HETATM    8  C   UNL     1     -43.544  59.648 -53.466  1.00  0.00     0.050 C 
HETATM    9  C   UNL     1     -42.289  60.480 -51.495  1.00  0.00     0.009 A 
HETATM   10  C   UNL     1     -41.549  60.315 -50.329  1.00  0.00     0.001 A 
HETATM   11  C   UNL     1     -41.146  59.043 -49.944  1.00  0.00     0.009 A 
HETATM   12  C   UNL     1     -41.448  57.923 -50.737  1.00  0.00    -0.035 A 
HETATM   13  C   UNL     1     -40.955  56.577 -50.277  1.00  0.00     0.050 C 
ENDBRANCH   3   6
ENDBRANCH   1   2
BRANCH   1  14
HETATM   14  N   UNL     1     -42.354  55.093 -55.667  1.00  0.00    -0.338 N 
HETATM   15  C   UNL     1     -43.155  56.040 -56.252  1.00  0.00     0.273 C 
HETATM   16  O   UNL     1     -43.902  56.778 -55.618  1.00  0.00    -0.266 OA
HETATM   17  H   UNL     1     -41.746  54.610 -56.325  1.00  0.00     0.164 HD
BRANCH  15  18
HETATM   18  C   UNL     1     -43.045  56.075 -57.717  1.00  0.00     0.145 A 
HETATM   19  N   UNL     1     -43.589  55.116 -58.494  1.00  0.00    -0.170 NA
HETATM   20  N   UNL     1     -43.276  55.494 -59.746  1.00  0.00    -0.289 N 
HETATM   21  H   UNL     1     -43.590  54.915 -60.519  1.00  0.00     0.188 HD
HETATM   22  C   UNL     1     -42.551  56.645 -59.803  1.00  0.00     0.112 A 
HETATM   23  C   UNL     1     -42.382  57.051 -58.502  1.00  0.00     0.058 A 
ENDBRANCH  15  18
ENDBRANCH   1  14
BRANCH   1  24
HETATM   24  C   UNL     1     -41.165  53.800 -53.860  1.00  0.00    -0.026 A 
HETATM   25  C   UNL     1     -40.711  53.637 -52.540  1.00  0.00     0.010 A 
HETATM   26  C   UNL     1     -39.993  52.501 -52.155  1.00  0.00     0.001 A 
HETATM   27  C   UNL     1     -39.733  51.494 -53.077  1.00  0.00     0.000 A 
HETATM   28  C   UNL     1     -40.200  51.616 -54.382  1.00  0.00     0.001 A 
HETATM   29  C   UNL     1     -40.919  52.752 -54.767  1.00  0.00     0.010 A 
ENDBRANCH   1  24
TORSDOF 5
ENDMDL
MODEL 6
REMARK VINA RESULT:      -7.7      1.874      5.880
REMARK  5 active torsions:
REMARK  status: ('A' for Active; 'I' for Inactive)
REMARK    1  A    between atoms: C_3  and  N_4 
REMARK       I    between atoms: N_4  and  C_5 
REMARK    2  A    between atoms: C_5  and  C_6 
REMARK    3  A    between atoms: C_6  and  N_7 
REMARK    4  A    between atoms: C_6  and  C_16 
REMARK       I    between atoms: N_7  and  C_8 
REMARK    5  A    between atoms: C_8  and  C_9 
ROOT
HETATM    1  C   UNL     1     -42.234  54.828 -53.348  1.00  0.00     0.210 C 
ENDROOT
BRANCH   1   2
HETATM    2  C   UNL     1     -42.489  55.939 -52.283  1.00  0.00     0.249 C 
HETATM    3  N   UNL     1     -42.122  57.223 -52.653  1.00  0.00    -0.324 N 
HETATM    4  H   UNL     1     -41.993  57.361 -53.654  1.00  0.00     0.169 HD
HETATM    5  O   UNL     1     -42.949  55.633 -51.180  1.00  0.00    -0.270 OA
BRANCH   3   6
HETATM    6  C   UNL     1     -42.379  58.388 -51.890  1.00  0.00     0.046 A 
HETATM    7  C   UNL     1     -41.410  58.980 -51.053  1.00  0.00    -0.035 A 
HETATM    8  C   UNL     1     -39.984  58.508 -50.957  1.00  0.00     0.050 C 
HETATM    9  C   UNL     1     -41.756  60.112 -50.293  1.00  0.00     0.009 A 
HETATM   10  C   UNL     1     -43.016  60.691 -50.401  1.00  0.00     0.001 A 
HETATM   11  C   UNL     1     -43.950  60.148 -51.274  1.00  0.00     0.009 A 
HETATM   12  C   UNL     1     -43.649  58.999 -52.024  1.00  0.00    -0.035 A 
HETATM   13  C   UNL     1     -44.719  58.445 -52.927  1.00  0.00     0.050 C 
ENDBRANCH   3   6
ENDBRANCH   1   2
BRANCH   1  14
HETATM   14  N   UNL     1     -42.118  55.314 -54.723  1.00  0.00    -0.338 N 
HETATM   15  C   UNL     1     -42.867  54.894 -55.792  1.00  0.00     0.273 C 
HETATM   16  O   UNL     1     -43.540  53.868 -55.784  1.00  0.00    -0.266 OA
HETATM   17  H   UNL     1     -41.672  56.216 -54.866  1.00  0.00     0.164 HD
BRANCH  15  18
HETATM   18  C   UNL     1     -42.773  55.784 -56.957  1.00  0.00     0.145 A 
HETATM   19  N   UNL     1     -42.210  57.007 -56.874  1.00  0.00    -0.170 NA
HETATM   20  N   UNL     1     -42.318  57.501 -58.121  1.00  0.00    -0.289 N 
HETATM   21  H   UNL     1     -41.951  58.430 -58.306  1.00  0.00     0.188 HD
HETATM   22  C   UNL     1     -42.931  56.653 -58.992  1.00  0.00     0.112 A 
HETATM   23  C   UNL     1     -43.242  55.527 -58.271  1.00  0.00     0.058 A 
ENDBRANCH  15  18
ENDBRANCH   1  14
BRANCH   1  24
HETATM   24  C   UNL     1     -41.191  53.782 -52.950  1.00  0.00    -0.026 A 
HETATM   25  C   UNL     1     -40.741  53.691 -51.621  1.00  0.00     0.010 A 
HETATM   26  C   UNL     1     -39.837  52.700 -51.227  1.00  0.00     0.001 A 
HETATM   27  C   UNL     1     -39.383  51.764 -52.149  1.00  0.00     0.000 A 
HETATM   28  C   UNL     1     -39.838  51.812 -53.462  1.00  0.00     0.001 A 
HETATM   29  C   UNL     1     -40.742  52.803 -53.856  1.00  0.00     0.010 A 
ENDBRANCH   1  24
TORSDOF 5
ENDMDL
MODEL 7
REMARK VINA RESULT:      -7.6      2.019      2.422
REMARK  5 active torsions:
REMARK  status: ('A' for Active; 'I' for Inactive)
REMARK    1  A    between atoms: C_3  and  N_4 
REMARK       I    between atoms: N_4  and  C_5 
REMARK    2  A    between atoms: C_5  and  C_6 
REMARK    3  A    between atoms: C_6  and  N_7 
REMARK    4  A    between atoms: C_6  and  C_16 
REMARK       I    between atoms: N_7  and  C_8 
REMARK    5  A    between atoms: C_8  and  C_9 
ROOT
HETATM    1  C   UNL     1     -42.672  56.724 -54.249  1.00  0.00     0.210 C 
ENDROOT
BRANCH   1   2
HETATM    2  C   UNL     1     -42.423  55.342 -53.570  1.00  0.00     0.249 C 
HETATM    3  N   UNL     1     -41.119  55.092 -53.173  1.00  0.00    -0.324 N 
HETATM    4  H   UNL     1     -40.527  55.918 -53.102  1.00  0.00     0.169 HD
HETATM    5  O   UNL     1     -43.354  54.540 -53.459  1.00  0.00    -0.270 OA
BRANCH   3   6
HETATM    6  C   UNL     1     -40.704  53.959 -52.431  1.00  0.00     0.046 A 
HETATM    7  C   UNL     1     -40.303  52.753 -53.044  1.00  0.00    -0.035 A 
HETATM    8  C   UNL     1     -40.173  52.571 -54.531  1.00  0.00     0.050 C 
HETATM    9  C   UNL     1     -39.944  51.658 -52.236  1.00  0.00     0.009 A 
HETATM   10  C   UNL     1     -39.921  51.766 -50.849  1.00  0.00     0.001 A 
HETATM   11  C   UNL     1     -40.253  52.972 -50.247  1.00  0.00     0.009 A 
HETATM   12  C   UNL     1     -40.647  54.077 -51.022  1.00  0.00    -0.035 A 
HETATM   13  C   UNL     1     -41.023  55.345 -50.302  1.00  0.00     0.050 C 
ENDBRANCH   3   6
ENDBRANCH   1   2
BRANCH   1  14
HETATM   14  N   UNL     1     -43.385  56.658 -55.525  1.00  0.00    -0.338 N 
HETATM   15  C   UNL     1     -42.995  57.251 -56.699  1.00  0.00     0.273 C 
HETATM   16  O   UNL     1     -42.143  58.131 -56.759  1.00  0.00    -0.266 OA
HETATM   17  H   UNL     1     -44.052  55.900 -55.653  1.00  0.00     0.164 HD
BRANCH  15  18
HETATM   18  C   UNL     1     -43.707  56.739 -57.877  1.00  0.00     0.145 A 
HETATM   19  N   UNL     1     -44.909  57.228 -58.249  1.00  0.00    -0.170 NA
HETATM   20  N   UNL     1     -45.225  56.516 -59.346  1.00  0.00    -0.289 N 
HETATM   21  H   UNL     1     -46.104  56.713 -59.814  1.00  0.00     0.188 HD
HETATM   22  C   UNL     1     -44.285  55.590 -59.685  1.00  0.00     0.112 A 
HETATM   23  C   UNL     1     -43.284  55.707 -58.753  1.00  0.00     0.058 A 
ENDBRANCH  15  18
ENDBRANCH   1  14
BRANCH   1  24
HETATM   24  C   UNL     1     -43.153  57.828 -53.306  1.00  0.00    -0.026 A 
HETATM   25  C   UNL     1     -44.491  58.256 -53.330  1.00  0.00     0.010 A 
HETATM   26  C   UNL     1     -44.963  59.217 -52.431  1.00  0.00     0.001 A 
HETATM   27  C   UNL     1     -44.110  59.752 -51.472  1.00  0.00     0.000 A 
HETATM   28  C   UNL     1     -42.789  59.321 -51.405  1.00  0.00     0.001 A 
HETATM   29  C   UNL     1     -42.318  58.360 -52.305  1.00  0.00     0.010 A 
ENDBRANCH   1  24
TORSDOF 5
ENDMDL
MODEL 8
REMARK VINA RESULT:      -7.5      2.948      5.082
REMARK  5 active torsions:
REMARK  status: ('A' for Active; 'I' for Inactive)
REMARK    1  A    between atoms: C_3  and  N_4 
REMARK       I    between atoms: N_4  and  C_5 
REMARK    2  A    between atoms: C_5  and  C_6 
REMARK    3  A    between atoms: C_6  and  N_7 
REMARK    4  A    between atoms: C_6  and  C_16 
REMARK       I    between atoms: N_7  and  C_8 
REMARK    5  A    between atoms: C_8  and  C_9 
ROOT
HETATM    1  C   UNL     1     -43.155  56.642 -54.025  1.00  0.00     0.210 C 
ENDROOT
BRANCH   1   2
HETATM    2  C   UNL     1     -41.966  55.788 -53.486  1.00  0.00     0.249 C 
HETATM    3  N   UNL     1     -42.310  54.583 -52.895  1.00  0.00    -0.324 N 
HETATM    4  H   UNL     1     -43.245  54.247 -53.118  1.00  0.00     0.169 HD
HETATM    5  O   UNL     1     -40.816  56.226 -53.567  1.00  0.00    -0.270 OA
BRANCH   3   6
HETATM    6  C   UNL     1     -41.383  53.606 -52.456  1.00  0.00     0.046 A 
HETATM    7  C   UNL     1     -40.649  52.797 -53.349  1.00  0.00    -0.035 A 
HETATM    8  C   UNL     1     -40.689  52.950 -54.846  1.00  0.00     0.050 C 
HETATM    9  C   UNL     1     -39.777  51.820 -52.835  1.00  0.00     0.009 A 
HETATM   10  C   UNL     1     -39.585  51.680 -51.464  1.00  0.00     0.001 A 
HETATM   11  C   UNL     1     -40.258  52.519 -50.585  1.00  0.00     0.009 A 
HETATM   12  C   UNL     1     -41.159  53.485 -51.063  1.00  0.00    -0.035 A 
HETATM   13  C   UNL     1     -41.879  54.341 -50.054  1.00  0.00     0.050 C 
ENDBRANCH   3   6
ENDBRANCH   1   2
BRANCH   1  14
HETATM   14  N   UNL     1     -43.416  57.870 -53.273  1.00  0.00    -0.338 N 
HETATM   15  C   UNL     1     -43.706  57.949 -51.935  1.00  0.00     0.273 C 
HETATM   16  O   UNL     1     -44.048  56.984 -51.259  1.00  0.00    -0.266 OA
HETATM   17  H   UNL     1     -43.084  58.744 -53.671  1.00  0.00     0.164 HD
BRANCH  15  18
HETATM   18  C   UNL     1     -43.581  59.308 -51.389  1.00  0.00     0.145 A 
HETATM   19  N   UNL     1     -44.627  60.159 -51.355  1.00  0.00    -0.170 NA
HETATM   20  N   UNL     1     -44.121  61.275 -50.801  1.00  0.00    -0.289 N 
HETATM   21  H   UNL     1     -44.738  62.071 -50.667  1.00  0.00     0.188 HD
HETATM   22  C   UNL     1     -42.800  61.178 -50.488  1.00  0.00     0.112 A 
HETATM   23  C   UNL     1     -42.414  59.913 -50.857  1.00  0.00     0.058 A 
ENDBRANCH  15  18
ENDBRANCH   1  14
BRANCH   1  24
HETATM   24  C   UNL     1     -43.195  56.804 -55.546  1.00  0.00    -0.026 A 
HETATM   25  C   UNL     1     -42.945  55.707 -56.388  1.00  0.00     0.010 A 
HETATM   26  C   UNL     1     -43.041  55.822 -57.778  1.00  0.00     0.001 A 
HETATM   27  C   UNL     1     -43.412  57.032 -58.354  1.00  0.00     0.000 A 
HETATM   28  C   UNL     1     -43.697  58.124 -57.541  1.00  0.00     0.001 A 
HETATM   29  C   UNL     1     -43.601  58.008 -56.150  1.00  0.00     0.010 A 
ENDBRANCH   1  24
TORSDOF 5
ENDMDL
MODEL 9
REMARK VINA RESULT:      -7.5      2.080      6.589
REMARK  5 active torsions:
REMARK  status: ('A' for Active; 'I' for Inactive)
REMARK    1  A    between atoms: C_3  and  N_4 
REMARK       I    between atoms: N_4  and  C_5 
REMARK    2  A    between atoms: C_5  and  C_6 
REMARK    3  A    between atoms: C_6  and  N_7 
REMARK    4  A    between atoms: C_6  and  C_16 
REMARK       I    between atoms: N_7  and  C_8 
REMARK    5  A    between atoms: C_8  and  C_9 
ROOT
HETATM    1  C   UNL     1     -42.667  56.659 -52.275  1.00  0.00     0.210 C 
ENDROOT
BRANCH   1   2
HETATM    2  C   UNL     1     -43.237  56.849 -53.714  1.00  0.00     0.249 C 
HETATM    3  N   UNL     1     -42.299  56.898 -54.732  1.00  0.00    -0.324 N 
HETATM    4  H   UNL     1     -41.381  56.530 -54.487  1.00  0.00     0.169 HD
HETATM    5  O   UNL     1     -44.453  56.986 -53.875  1.00  0.00    -0.270 OA
BRANCH   3   6
HETATM    6  C   UNL     1     -42.608  56.939 -56.114  1.00  0.00     0.046 A 
HETATM    7  C   UNL     1     -42.594  58.136 -56.861  1.00  0.00    -0.035 A 
HETATM    8  C   UNL     1     -42.156  59.465 -56.309  1.00  0.00     0.050 C 
HETATM    9  C   UNL     1     -42.954  58.101 -58.221  1.00  0.00     0.009 A 
HETATM   10  C   UNL     1     -43.263  56.900 -58.851  1.00  0.00     0.001 A 
HETATM   11  C   UNL     1     -43.214  55.713 -58.132  1.00  0.00     0.009 A 
HETATM   12  C   UNL     1     -42.889  55.715 -56.765  1.00  0.00    -0.035 A 
HETATM   13  C   UNL     1     -42.885  54.395 -56.039  1.00  0.00     0.050 C 
ENDBRANCH   3   6
ENDBRANCH   1   2
BRANCH   1  14
HETATM   14  N   UNL     1     -41.806  55.488 -52.108  1.00  0.00    -0.338 N 
HETATM   15  C   UNL     1     -42.222  54.182 -52.053  1.00  0.00     0.273 C 
HETATM   16  O   UNL     1     -43.389  53.853 -51.867  1.00  0.00    -0.266 OA
HETATM   17  H   UNL     1     -40.820  55.593 -52.336  1.00  0.00     0.164 HD
BRANCH  15  18
HETATM   18  C   UNL     1     -41.132  53.213 -52.225  1.00  0.00     0.145 A 
HETATM   19  N   UNL     1     -40.461  52.704 -51.171  1.00  0.00    -0.170 NA
HETATM   20  N   UNL     1     -39.558  51.877 -51.728  1.00  0.00    -0.289 N 
HETATM   21  H   UNL     1     -38.928  51.366 -51.117  1.00  0.00     0.188 HD
HETATM   22  C   UNL     1     -39.617  51.841 -53.088  1.00  0.00     0.112 A 
HETATM   23  C   UNL     1     -40.629  52.698 -53.447  1.00  0.00     0.058 A 
ENDBRANCH  15  18
ENDBRANCH   1  14
BRANCH   1  24
HETATM   24  C   UNL     1     -42.142  57.936 -51.616  1.00  0.00    -0.026 A 
HETATM   25  C   UNL     1     -42.996  59.033 -51.403  1.00  0.00     0.010 A 
HETATM   26  C   UNL     1     -42.550  60.183 -50.745  1.00  0.00     0.001 A 
HETATM   27  C   UNL     1     -41.247  60.250 -50.264  1.00  0.00     0.000 A 
HETATM   28  C   UNL     1     -40.393  59.166 -50.433  1.00  0.00     0.001 A 
HETATM   29  C   UNL     1     -40.839  58.016 -51.092  1.00  0.00     0.010 A 
ENDBRANCH   1  24
TORSDOF 5
ENDMDL
MODEL 10
REMARK VINA RESULT:      -7.4     14.638     16.398
REMARK  5 active torsions:
REMARK  status: ('A' for Active; 'I' for Inactive)
REMARK    1  A    between atoms: C_3  and  N_4 
REMARK       I    between atoms: N_4  and  C_5 
REMARK    2  A    between atoms: C_5  and  C_6 
REMARK    3  A    between atoms: C_6  and  N_7 
REMARK    4  A    between atoms: C_6  and  C_16 
REMARK       I    between atoms: N_7  and  C_8 
REMARK    5  A    between atoms: C_8  and  C_9 
ROOT
HETATM    1  C   UNL     1     -34.804  41.763 -55.018  1.00  0.00     0.210 C 
ENDROOT
BRANCH   1   2
HETATM    2  C   UNL     1     -35.282  41.574 -53.545  1.00  0.00     0.249 C 
HETATM    3  N   UNL     1     -35.295  40.269 -53.078  1.00  0.00    -0.324 N 
HETATM    4  H   UNL     1     -34.739  39.613 -53.624  1.00  0.00     0.169 HD
HETATM    5  O   UNL     1     -35.656  42.554 -52.895  1.00  0.00    -0.270 OA
BRANCH   3   6
HETATM    6  C   UNL     1     -35.574  39.892 -51.741  1.00  0.00     0.046 A 
HETATM    7  C   UNL     1     -36.884  39.849 -51.220  1.00  0.00    -0.035 A 
HETATM    8  C   UNL     1     -38.122  40.093 -52.040  1.00  0.00     0.050 C 
HETATM    9  C   UNL     1     -37.075  39.506 -49.869  1.00  0.00     0.009 A 
HETATM   10  C   UNL     1     -36.001  39.150 -49.060  1.00  0.00     0.001 A 
HETATM   11  C   UNL     1     -34.718  39.130 -49.590  1.00  0.00     0.009 A 
HETATM   12  C   UNL     1     -34.486  39.498 -50.926  1.00  0.00    -0.035 A 
HETATM   13  C   UNL     1     -33.066  39.483 -51.427  1.00  0.00     0.050 C 
ENDBRANCH   3   6
ENDBRANCH   1   2
BRANCH   1  14
HETATM   14  N   UNL     1     -33.540  41.100 -55.339  1.00  0.00    -0.338 N 
HETATM   15  C   UNL     1     -33.378  39.770 -55.632  1.00  0.00     0.273 C 
HETATM   16  O   UNL     1     -34.230  38.919 -55.398  1.00  0.00    -0.266 OA
HETATM   17  H   UNL     1     -32.771  41.684 -55.657  1.00  0.00     0.164 HD
BRANCH  15  18
HETATM   18  C   UNL     1     -32.079  39.459 -56.242  1.00  0.00     0.145 A 
HETATM   19  N   UNL     1     -31.077  40.362 -56.280  1.00  0.00    -0.170 NA
HETATM   20  N   UNL     1     -30.079  39.715 -56.907  1.00  0.00    -0.289 N 
HETATM   21  H   UNL     1     -29.200  40.205 -57.051  1.00  0.00     0.188 HD
HETATM   22  C   UNL     1     -30.400  38.445 -57.279  1.00  0.00     0.112 A 
HETATM   23  C   UNL     1     -31.693  38.244 -56.863  1.00  0.00     0.058 A 
ENDBRANCH  15  18
ENDBRANCH   1  14
BRANCH   1  24
HETATM   24  C   UNL     1     -35.898  41.600 -56.075  1.00  0.00    -0.026 A 
HETATM   25  C   UNL     1     -35.656  41.956 -57.414  1.00  0.00     0.010 A 
HETATM   26  C   UNL     1     -36.621  41.753 -58.404  1.00  0.00     0.001 A 
HETATM   27  C   UNL     1     -37.840  41.167 -58.081  1.00  0.00     0.000 A 
HETATM   28  C   UNL     1     -38.091  40.776 -56.770  1.00  0.00     0.001 A 
HETATM   29  C   UNL     1     -37.126  40.979 -55.779  1.00  0.00     0.010 A 
ENDBRANCH   1  24
TORSDOF 5
ENDMDL
