MODEL 1
REMARK VINA RESULT:      -9.3      0.000      0.000
REMARK  6 active torsions:
REMARK  status: ('A' for Active; 'I' for Inactive)
REMARK    1  A    between atoms: C_2  and  O_3 
REMARK    2  A    between atoms: C_2  and  C_4 
REMARK    3  A    between atoms: C_7  and  N_8 
REMARK       I    between atoms: N_8  and  C_9 
REMARK    4  A    between atoms: C_9  and  C_10 
REMARK    5  A    between atoms: C_13  and  C_14 
REMARK    6  A    between atoms: C_19  and  C_20 
ROOT
HETATM    1  C   UNL     1     -42.576  56.677 -56.185  1.00  0.00     0.096 A 
HETATM    2  C   UNL     1     -42.464  57.059 -57.509  1.00  0.00     0.138 A 
HETATM    3  N   UNL     1     -42.690  58.417 -57.529  1.00  0.00    -0.240 N 
HETATM    4  C   UNL     1     -42.712  59.228 -58.734  1.00  0.00     0.221 C 
HETATM    5  C   UNL     1     -42.137  58.438 -59.927  1.00  0.00     0.066 C 
HETATM    6  C   UNL     1     -42.643  56.986 -59.940  1.00  0.00     0.118 C 
HETATM    7  N   UNL     1     -42.243  56.368 -58.664  1.00  0.00    -0.365 N 
HETATM    8  N   UNL     1     -43.090  58.907 -56.347  1.00  0.00    -0.181 NA
HETATM    9  C   UNL     1     -43.001  57.856 -55.527  1.00  0.00     0.160 A 
HETATM   10  H   UNL     1     -42.380  55.356 -58.664  1.00  0.00     0.161 HD
ENDROOT
BRANCH   1  11
HETATM   11  C   UNL     1     -42.383  55.369 -55.588  1.00  0.00     0.261 C 
HETATM   12  N   UNL     1     -41.289  55.315 -54.744  1.00  0.00    -0.323 N 
HETATM   13  H   UNL     1     -40.852  56.208 -54.544  1.00  0.00     0.169 HD
HETATM   14  O   UNL     1     -43.171  54.458 -55.809  1.00  0.00    -0.267 OA
BRANCH  12  15
HETATM   15  C   UNL     1     -40.809  54.201 -54.031  1.00  0.00     0.035 A 
HETATM   16  C   UNL     1     -40.270  53.067 -54.637  1.00  0.00     0.030 A 
HETATM   17  C   UNL     1     -39.810  51.996 -53.861  1.00  0.00     0.012 A 
HETATM   18  C   UNL     1     -39.885  52.039 -52.462  1.00  0.00    -0.030 A 
HETATM   19  C   UNL     1     -40.432  53.178 -51.858  1.00  0.00     0.012 A 
HETATM   20  C   UNL     1     -40.878  54.253 -52.634  1.00  0.00     0.030 A 
BRANCH  18  21
HETATM   21  C   UNL     1     -39.418  50.856 -51.642  1.00  0.00     0.147 C 
HETATM   22  C   UNL     1     -39.636  49.538 -52.370  1.00  0.00     0.044 C 
BRANCH  21  23
HETATM   23  O   UNL     1     -40.105  50.812 -50.392  1.00  0.00    -0.391 OA
HETATM   24  H   UNL     1     -39.448  51.015 -49.704  1.00  0.00     0.210 HD
ENDBRANCH  21  23
ENDBRANCH  18  21
ENDBRANCH  12  15
ENDBRANCH   1  11
BRANCH   4  25
HETATM   25  C   UNL     1     -41.925  60.507 -58.553  1.00  0.00     0.409 C 
HETATM   26  F   UNL     1     -40.864  60.345 -57.731  1.00  0.00    -0.169 F 
HETATM   27  F   UNL     1     -41.421  60.902 -59.755  1.00  0.00    -0.169 F 
HETATM   28  F   UNL     1     -42.661  61.540 -58.098  1.00  0.00    -0.169 F 
ENDBRANCH   4  25
BRANCH   6  29
HETATM   29  C   UNL     1     -44.135  56.845 -60.245  1.00  0.00    -0.035 A 
HETATM   30  C   UNL     1     -44.675  55.567 -60.503  1.00  0.00     0.012 A 
HETATM   31  C   UNL     1     -46.033  55.399 -60.786  1.00  0.00     0.043 A 
HETATM   32  C   UNL     1     -46.873  56.503 -60.794  1.00  0.00     0.116 A 
HETATM   33  F   UNL     1     -48.176  56.340 -61.062  1.00  0.00    -0.206 F 
HETATM   34  C   UNL     1     -46.382  57.769 -60.519  1.00  0.00     0.043 A 
HETATM   35  C   UNL     1     -45.023  57.939 -60.242  1.00  0.00     0.012 A 
ENDBRANCH   6  29
TORSDOF 6
ENDMDL
MODEL 2
REMARK VINA RESULT:      -8.7      4.131      8.955
REMARK  6 active torsions:
REMARK  status: ('A' for Active; 'I' for Inactive)
REMARK    1  A    between atoms: C_2  and  O_3 
REMARK    2  A    between atoms: C_2  and  C_4 
REMARK    3  A    between atoms: C_7  and  N_8 
REMARK       I    between atoms: N_8  and  C_9 
REMARK    4  A    between atoms: C_9  and  C_10 
REMARK    5  A    between atoms: C_13  and  C_14 
REMARK    6  A    between atoms: C_19  and  C_20 
ROOT
HETATM    1  C   UNL     1     -43.339  57.866 -54.647  1.00  0.00     0.096 A 
HETATM    2  C   UNL     1     -43.071  57.219 -53.455  1.00  0.00     0.138 A 
HETATM    3  N   UNL     1     -41.898  57.766 -52.985  1.00  0.00    -0.240 N 
HETATM    4  C   UNL     1     -41.223  57.344 -51.771  1.00  0.00     0.221 C 
HETATM    5  C   UNL     1     -42.146  56.445 -50.925  1.00  0.00     0.066 C 
HETATM    6  C   UNL     1     -42.909  55.435 -51.800  1.00  0.00     0.118 C 
HETATM    7  N   UNL     1     -43.689  56.207 -52.783  1.00  0.00    -0.365 N 
HETATM    8  N   UNL     1     -41.314  58.601 -53.857  1.00  0.00    -0.181 NA
HETATM    9  C   UNL     1     -42.199  58.677 -54.856  1.00  0.00     0.160 A 
HETATM   10  H   UNL     1     -44.362  55.625 -53.285  1.00  0.00     0.161 HD
ENDROOT
BRANCH   1  11
HETATM   11  C   UNL     1     -44.477  57.719 -55.535  1.00  0.00     0.261 C 
HETATM   12  N   UNL     1     -44.174  57.997 -56.854  1.00  0.00    -0.323 N 
HETATM   13  H   UNL     1     -43.188  58.133 -57.053  1.00  0.00     0.169 HD
HETATM   14  O   UNL     1     -45.558  57.335 -55.107  1.00  0.00    -0.267 OA
BRANCH  12  15
HETATM   15  C   UNL     1     -45.046  57.976 -57.959  1.00  0.00     0.035 A 
HETATM   16  C   UNL     1     -44.926  57.086 -59.024  1.00  0.00     0.030 A 
HETATM   17  C   UNL     1     -45.835  57.123 -60.089  1.00  0.00     0.012 A 
HETATM   18  C   UNL     1     -46.880  58.055 -60.108  1.00  0.00    -0.030 A 
HETATM   19  C   UNL     1     -46.994  58.952 -59.037  1.00  0.00     0.012 A 
HETATM   20  C   UNL     1     -46.094  58.903 -57.968  1.00  0.00     0.030 A 
BRANCH  18  21
HETATM   21  C   UNL     1     -47.830  58.106 -61.285  1.00  0.00     0.147 C 
HETATM   22  C   UNL     1     -48.087  56.724 -61.867  1.00  0.00     0.044 C 
BRANCH  21  23
HETATM   23  O   UNL     1     -47.309  58.950 -62.311  1.00  0.00    -0.391 OA
HETATM   24  H   UNL     1     -46.424  58.611 -62.530  1.00  0.00     0.210 HD
ENDBRANCH  21  23
ENDBRANCH  18  21
ENDBRANCH  12  15
ENDBRANCH   1  11
BRANCH   4  25
HETATM   25  C   UNL     1     -40.781  58.530 -50.943  1.00  0.00     0.409 C 
HETATM   26  F   UNL     1     -41.546  59.624 -51.164  1.00  0.00    -0.169 F 
HETATM   27  F   UNL     1     -40.912  58.232 -49.620  1.00  0.00    -0.169 F 
HETATM   28  F   UNL     1     -39.490  58.871 -51.124  1.00  0.00    -0.169 F 
ENDBRANCH   4  25
BRANCH   6  29
HETATM   29  C   UNL     1     -42.025  54.359 -52.431  1.00  0.00    -0.035 A 
HETATM   30  C   UNL     1     -41.050  53.710 -51.643  1.00  0.00     0.012 A 
HETATM   31  C   UNL     1     -40.223  52.722 -52.185  1.00  0.00     0.043 A 
HETATM   32  C   UNL     1     -40.373  52.355 -53.514  1.00  0.00     0.116 A 
HETATM   33  F   UNL     1     -39.582  51.406 -54.031  1.00  0.00    -0.206 F 
HETATM   34  C   UNL     1     -41.337  52.953 -54.309  1.00  0.00     0.043 A 
HETATM   35  C   UNL     1     -42.161  53.945 -53.770  1.00  0.00     0.012 A 
ENDBRANCH   6  29
TORSDOF 6
ENDMDL
MODEL 3
REMARK VINA RESULT:      -8.5      1.728      4.431
REMARK  6 active torsions:
REMARK  status: ('A' for Active; 'I' for Inactive)
REMARK    1  A    between atoms: C_2  and  O_3 
REMARK    2  A    between atoms: C_2  and  C_4 
REMARK    3  A    between atoms: C_7  and  N_8 
REMARK       I    between atoms: N_8  and  C_9 
REMARK    4  A    between atoms: C_9  and  C_10 
REMARK    5  A    between atoms: C_13  and  C_14 
REMARK    6  A    between atoms: C_19  and  C_20 
ROOT
HETATM    1  C   UNL     1     -43.182  56.255 -57.175  1.00  0.00     0.096 A 
HETATM    2  C   UNL     1     -43.935  57.371 -57.489  1.00  0.00     0.138 A 
HETATM    3  N   UNL     1     -44.484  57.118 -58.726  1.00  0.00    -0.240 N 
HETATM    4  C   UNL     1     -45.317  58.053 -59.461  1.00  0.00     0.221 C 
HETATM    5  C   UNL     1     -45.764  59.212 -58.547  1.00  0.00     0.066 C 
HETATM    6  C   UNL     1     -44.611  59.708 -57.659  1.00  0.00     0.118 C 
HETATM    7  N   UNL     1     -44.147  58.561 -56.859  1.00  0.00    -0.365 N 
HETATM    8  N   UNL     1     -44.019  55.997 -59.295  1.00  0.00    -0.181 NA
HETATM    9  C   UNL     1     -43.244  55.463 -58.346  1.00  0.00     0.160 A 
HETATM   10  H   UNL     1     -43.506  58.843 -56.115  1.00  0.00     0.161 HD
ENDROOT
BRANCH   1  11
HETATM   11  C   UNL     1     -42.431  55.965 -55.967  1.00  0.00     0.261 C 
HETATM   12  N   UNL     1     -42.383  54.616 -55.670  1.00  0.00    -0.323 N 
HETATM   13  H   UNL     1     -42.750  54.001 -56.388  1.00  0.00     0.169 HD
HETATM   14  O   UNL     1     -41.878  56.863 -55.344  1.00  0.00    -0.267 OA
BRANCH  12  15
HETATM   15  C   UNL     1     -41.764  54.002 -54.565  1.00  0.00     0.035 A 
HETATM   16  C   UNL     1     -42.135  54.234 -53.241  1.00  0.00     0.030 A 
HETATM   17  C   UNL     1     -41.474  53.584 -52.192  1.00  0.00     0.012 A 
HETATM   18  C   UNL     1     -40.426  52.691 -52.449  1.00  0.00    -0.030 A 
HETATM   19  C   UNL     1     -40.053  52.464 -53.781  1.00  0.00     0.012 A 
HETATM   20  C   UNL     1     -40.725  53.103 -54.828  1.00  0.00     0.030 A 
BRANCH  18  21
HETATM   21  C   UNL     1     -39.698  52.026 -51.301  1.00  0.00     0.147 C 
HETATM   22  C   UNL     1     -39.522  50.532 -51.527  1.00  0.00     0.044 C 
BRANCH  21  23
HETATM   23  O   UNL     1     -40.403  52.229 -50.078  1.00  0.00    -0.391 OA
HETATM   24  H   UNL     1     -40.140  53.104 -49.744  1.00  0.00     0.210 HD
ENDBRANCH  21  23
ENDBRANCH  18  21
ENDBRANCH  12  15
ENDBRANCH   1  11
BRANCH   4  25
HETATM   25  C   UNL     1     -46.538  57.370 -60.038  1.00  0.00     0.409 C 
HETATM   26  F   UNL     1     -47.217  56.661 -59.107  1.00  0.00    -0.169 F 
HETATM   27  F   UNL     1     -47.403  58.310 -60.508  1.00  0.00    -0.169 F 
HETATM   28  F   UNL     1     -46.268  56.556 -61.076  1.00  0.00    -0.169 F 
ENDBRANCH   4  25
BRANCH   6  29
HETATM   29  C   UNL     1     -43.489  60.412 -58.424  1.00  0.00    -0.035 A 
HETATM   30  C   UNL     1     -42.222  60.560 -57.821  1.00  0.00     0.012 A 
HETATM   31  C   UNL     1     -41.173  61.198 -58.489  1.00  0.00     0.043 A 
HETATM   32  C   UNL     1     -41.371  61.679 -59.775  1.00  0.00     0.116 A 
HETATM   33  F   UNL     1     -40.364  62.288 -60.415  1.00  0.00    -0.206 F 
HETATM   34  C   UNL     1     -42.595  61.529 -60.407  1.00  0.00     0.043 A 
HETATM   35  C   UNL     1     -43.646  60.896 -59.738  1.00  0.00     0.012 A 
ENDBRANCH   6  29
TORSDOF 6
ENDMDL
MODEL 4
REMARK VINA RESULT:      -8.4      3.761      8.894
REMARK  6 active torsions:
REMARK  status: ('A' for Active; 'I' for Inactive)
REMARK    1  A    between atoms: C_2  and  O_3 
REMARK    2  A    between atoms: C_2  and  C_4 
REMARK    3  A    between atoms: C_7  and  N_8 
REMARK       I    between atoms: N_8  and  C_9 
REMARK    4  A    between atoms: C_9  and  C_10 
REMARK    5  A    between atoms: C_13  and  C_14 
REMARK    6  A    between atoms: C_19  and  C_20 
ROOT
HETATM    1  C   UNL     1     -43.342  57.793 -56.718  1.00  0.00     0.096 A 
HETATM    2  C   UNL     1     -43.522  57.226 -55.470  1.00  0.00     0.138 A 
HETATM    3  N   UNL     1     -42.789  57.998 -54.597  1.00  0.00    -0.240 N 
HETATM    4  C   UNL     1     -42.659  57.732 -53.175  1.00  0.00     0.221 C 
HETATM    5  C   UNL     1     -43.695  56.681 -52.726  1.00  0.00     0.066 C 
HETATM    6  C   UNL     1     -43.809  55.531 -53.740  1.00  0.00     0.118 C 
HETATM    7  N   UNL     1     -44.192  56.122 -55.034  1.00  0.00    -0.365 N 
HETATM    8  N   UNL     1     -42.031  58.920 -55.209  1.00  0.00    -0.181 NA
HETATM    9  C   UNL     1     -42.382  58.808 -56.493  1.00  0.00     0.160 A 
HETATM   10  H   UNL     1     -44.465  55.413 -55.717  1.00  0.00     0.161 HD
ENDROOT
BRANCH   1  11
HETATM   11  C   UNL     1     -43.927  57.414 -57.990  1.00  0.00     0.261 C 
HETATM   12  N   UNL     1     -45.187  57.947 -58.188  1.00  0.00    -0.323 N 
HETATM   13  H   UNL     1     -45.481  58.629 -57.498  1.00  0.00     0.169 HD
HETATM   14  O   UNL     1     -43.298  56.730 -58.788  1.00  0.00    -0.267 OA
BRANCH  12  15
HETATM   15  C   UNL     1     -46.035  57.757 -59.294  1.00  0.00     0.035 A 
HETATM   16  C   UNL     1     -46.634  58.799 -60.000  1.00  0.00     0.030 A 
HETATM   17  C   UNL     1     -47.466  58.533 -61.094  1.00  0.00     0.012 A 
HETATM   18  C   UNL     1     -47.718  57.216 -61.500  1.00  0.00    -0.030 A 
HETATM   19  C   UNL     1     -47.119  56.171 -60.785  1.00  0.00     0.012 A 
HETATM   20  C   UNL     1     -46.276  56.440 -59.701  1.00  0.00     0.030 A 
BRANCH  18  21
HETATM   21  C   UNL     1     -48.651  56.946 -62.661  1.00  0.00     0.147 C 
HETATM   22  C   UNL     1     -48.659  58.092 -63.661  1.00  0.00     0.044 C 
BRANCH  21  23
HETATM   23  O   UNL     1     -49.981  56.731 -62.193  1.00  0.00    -0.391 OA
HETATM   24  H   UNL     1     -50.457  56.269 -62.905  1.00  0.00     0.210 HD
ENDBRANCH  21  23
ENDBRANCH  18  21
ENDBRANCH  12  15
ENDBRANCH   1  11
BRANCH   4  25
HETATM   25  C   UNL     1     -42.837  58.993 -52.358  1.00  0.00     0.409 C 
HETATM   26  F   UNL     1     -43.799  59.800 -52.862  1.00  0.00    -0.169 F 
HETATM   27  F   UNL     1     -43.236  58.663 -51.098  1.00  0.00    -0.169 F 
HETATM   28  F   UNL     1     -41.709  59.715 -52.216  1.00  0.00    -0.169 F 
ENDBRANCH   4  25
BRANCH   6  29
HETATM   29  C   UNL     1     -42.569  54.640 -53.819  1.00  0.00    -0.035 A 
HETATM   30  C   UNL     1     -42.088  54.011 -52.651  1.00  0.00     0.012 A 
HETATM   31  C   UNL     1     -40.958  53.190 -52.684  1.00  0.00     0.043 A 
HETATM   32  C   UNL     1     -40.305  52.970 -53.888  1.00  0.00     0.116 A 
HETATM   33  F   UNL     1     -39.223  52.181 -53.919  1.00  0.00    -0.206 F 
HETATM   34  C   UNL     1     -40.764  53.551 -55.059  1.00  0.00     0.043 A 
HETATM   35  C   UNL     1     -41.891  54.377 -55.027  1.00  0.00     0.012 A 
ENDBRANCH   6  29
TORSDOF 6
ENDMDL
MODEL 5
REMARK VINA RESULT:      -8.2      1.609      2.117
REMARK  6 active torsions:
REMARK  status: ('A' for Active; 'I' for Inactive)
REMARK    1  A    between atoms: C_2  and  O_3 
REMARK    2  A    between atoms: C_2  and  C_4 
REMARK    3  A    between atoms: C_7  and  N_8 
REMARK       I    between atoms: N_8  and  C_9 
REMARK    4  A    between atoms: C_9  and  C_10 
REMARK    5  A    between atoms: C_13  and  C_14 
REMARK    6  A    between atoms: C_19  and  C_20 
ROOT
HETATM    1  C   UNL     1     -42.558  58.048 -54.999  1.00  0.00     0.096 A 
HETATM    2  C   UNL     1     -42.481  58.436 -56.324  1.00  0.00     0.138 A 
HETATM    3  N   UNL     1     -43.474  59.373 -56.499  1.00  0.00    -0.240 N 
HETATM    4  C   UNL     1     -43.781  60.018 -57.764  1.00  0.00     0.221 C 
HETATM    5  C   UNL     1     -42.657  59.760 -58.788  1.00  0.00     0.066 C 
HETATM    6  C   UNL     1     -42.172  58.301 -58.739  1.00  0.00     0.118 C 
HETATM    7  N   UNL     1     -41.700  58.040 -57.368  1.00  0.00    -0.365 N 
HETATM    8  N   UNL     1     -44.279  59.502 -55.434  1.00  0.00    -0.181 NA
HETATM    9  C   UNL     1     -43.711  58.713 -54.518  1.00  0.00     0.160 A 
HETATM   10  H   UNL     1     -41.195  57.155 -57.295  1.00  0.00     0.161 HD
ENDROOT
BRANCH   1  11
HETATM   11  C   UNL     1     -41.716  57.122 -54.264  1.00  0.00     0.261 C 
HETATM   12  N   UNL     1     -41.992  55.798 -54.546  1.00  0.00    -0.323 N 
HETATM   13  H   UNL     1     -42.637  55.644 -55.314  1.00  0.00     0.169 HD
HETATM   14  O   UNL     1     -40.834  57.535 -53.521  1.00  0.00    -0.267 OA
BRANCH  12  15
HETATM   15  C   UNL     1     -41.383  54.657 -53.991  1.00  0.00     0.035 A 
HETATM   16  C   UNL     1     -41.403  54.351 -52.631  1.00  0.00     0.030 A 
HETATM   17  C   UNL     1     -40.775  53.195 -52.152  1.00  0.00     0.012 A 
HETATM   18  C   UNL     1     -40.112  52.325 -53.026  1.00  0.00    -0.030 A 
HETATM   19  C   UNL     1     -40.089  52.638 -54.391  1.00  0.00     0.012 A 
HETATM   20  C   UNL     1     -40.729  53.786 -54.870  1.00  0.00     0.030 A 
BRANCH  18  21
HETATM   21  C   UNL     1     -39.406  51.100 -52.485  1.00  0.00     0.147 C 
HETATM   22  C   UNL     1     -39.717  49.856 -53.304  1.00  0.00     0.044 C 
BRANCH  21  23
HETATM   23  O   UNL     1     -39.781  50.866 -51.129  1.00  0.00    -0.391 OA
HETATM   24  H   UNL     1     -40.083  51.718 -50.770  1.00  0.00     0.210 HD
ENDBRANCH  21  23
ENDBRANCH  18  21
ENDBRANCH  12  15
ENDBRANCH   1  11
BRANCH   4  25
HETATM   25  C   UNL     1     -43.971  61.509 -57.593  1.00  0.00     0.409 C 
HETATM   26  F   UNL     1     -43.097  62.040 -56.707  1.00  0.00    -0.169 F 
HETATM   27  F   UNL     1     -43.738  62.134 -58.780  1.00  0.00    -0.169 F 
HETATM   28  F   UNL     1     -45.217  61.862 -57.222  1.00  0.00    -0.169 F 
ENDBRANCH   4  25
BRANCH   6  29
HETATM   29  C   UNL     1     -43.200  57.282 -59.235  1.00  0.00    -0.035 A 
HETATM   30  C   UNL     1     -43.024  55.915 -58.935  1.00  0.00     0.012 A 
HETATM   31  C   UNL     1     -43.941  54.955 -59.371  1.00  0.00     0.043 A 
HETATM   32  C   UNL     1     -45.056  55.351 -60.095  1.00  0.00     0.116 A 
HETATM   33  F   UNL     1     -45.936  54.430 -60.510  1.00  0.00    -0.206 F 
HETATM   34  C   UNL     1     -45.274  56.688 -60.386  1.00  0.00     0.043 A 
HETATM   35  C   UNL     1     -44.354  57.648 -59.955  1.00  0.00     0.012 A 
ENDBRANCH   6  29
TORSDOF 6
ENDMDL
MODEL 6
REMARK VINA RESULT:      -8.0     16.197     19.005
REMARK  6 active torsions:
REMARK  status: ('A' for Active; 'I' for Inactive)
REMARK    1  A    between atoms: C_2  and  O_3 
REMARK    2  A    between atoms: C_2  and  C_4 
REMARK    3  A    between atoms: C_7  and  N_8 
REMARK       I    between atoms: N_8  and  C_9 
REMARK    4  A    between atoms: C_9  and  C_10 
REMARK    5  A    between atoms: C_13  and  C_14 
REMARK    6  A    between atoms: C_19  and  C_20 
ROOT
HETATM    1  C   UNL     1     -35.626  40.531 -53.019  1.00  0.00     0.096 A 
HETATM    2  C   UNL     1     -35.235  40.993 -54.263  1.00  0.00     0.138 A 
HETATM    3  N   UNL     1     -36.259  40.667 -55.123  1.00  0.00    -0.240 N 
HETATM    4  C   UNL     1     -36.247  40.928 -56.551  1.00  0.00     0.221 C 
HETATM    5  C   UNL     1     -35.099  41.892 -56.914  1.00  0.00     0.066 C 
HETATM    6  C   UNL     1     -33.805  41.538 -56.161  1.00  0.00     0.118 C 
HETATM    7  N   UNL     1     -34.103  41.600 -54.720  1.00  0.00    -0.365 N 
HETATM    8  N   UNL     1     -37.203  39.898 -54.560  1.00  0.00    -0.181 NA
HETATM    9  C   UNL     1     -36.828  39.833 -53.279  1.00  0.00     0.160 A 
HETATM   10  H   UNL     1     -33.258  41.555 -54.148  1.00  0.00     0.161 HD
ENDROOT
BRANCH   1  11
HETATM   11  C   UNL     1     -34.949  40.654 -51.741  1.00  0.00     0.261 C 
HETATM   12  N   UNL     1     -34.268  39.507 -51.377  1.00  0.00    -0.323 N 
HETATM   13  H   UNL     1     -34.214  38.790 -52.092  1.00  0.00     0.169 HD
HETATM   14  O   UNL     1     -34.973  41.708 -51.119  1.00  0.00    -0.267 OA
BRANCH  12  15
HETATM   15  C   UNL     1     -33.535  39.282 -50.197  1.00  0.00     0.035 A 
HETATM   16  C   UNL     1     -33.910  38.367 -49.214  1.00  0.00     0.030 A 
HETATM   17  C   UNL     1     -33.128  38.197 -48.065  1.00  0.00     0.012 A 
HETATM   18  C   UNL     1     -31.957  38.942 -47.877  1.00  0.00    -0.030 A 
HETATM   19  C   UNL     1     -31.587  39.864 -48.865  1.00  0.00     0.012 A 
HETATM   20  C   UNL     1     -32.361  40.022 -50.018  1.00  0.00     0.030 A 
BRANCH  18  21
HETATM   21  C   UNL     1     -31.145  38.771 -46.611  1.00  0.00     0.147 C 
HETATM   22  C   UNL     1     -30.340  40.019 -46.280  1.00  0.00     0.044 C 
BRANCH  21  23
HETATM   23  O   UNL     1     -30.253  37.665 -46.735  1.00  0.00    -0.391 OA
HETATM   24  H   UNL     1     -29.351  38.026 -46.686  1.00  0.00     0.210 HD
ENDBRANCH  21  23
ENDBRANCH  18  21
ENDBRANCH  12  15
ENDBRANCH   1  11
BRANCH   4  25
HETATM   25  C   UNL     1     -37.561  41.515 -57.018  1.00  0.00     0.409 C 
HETATM   26  F   UNL     1     -37.994  42.509 -56.210  1.00  0.00    -0.169 F 
HETATM   27  F   UNL     1     -37.396  42.068 -58.251  1.00  0.00    -0.169 F 
HETATM   28  F   UNL     1     -38.549  40.608 -57.143  1.00  0.00    -0.169 F 
ENDBRANCH   4  25
BRANCH   6  29
HETATM   29  C   UNL     1     -33.168  40.218 -56.597  1.00  0.00    -0.035 A 
HETATM   30  C   UNL     1     -31.824  39.949 -56.260  1.00  0.00     0.012 A 
HETATM   31  C   UNL     1     -31.208  38.754 -56.641  1.00  0.00     0.043 A 
HETATM   32  C   UNL     1     -31.931  37.804 -57.346  1.00  0.00     0.116 A 
HETATM   33  F   UNL     1     -31.340  36.658 -57.708  1.00  0.00    -0.206 F 
HETATM   34  C   UNL     1     -33.260  38.023 -57.672  1.00  0.00     0.043 A 
HETATM   35  C   UNL     1     -33.876  39.221 -57.296  1.00  0.00     0.012 A 
ENDBRANCH   6  29
TORSDOF 6
ENDMDL
MODEL 7
REMARK VINA RESULT:      -7.9      4.320      5.808
REMARK  6 active torsions:
REMARK  status: ('A' for Active; 'I' for Inactive)
REMARK    1  A    between atoms: C_2  and  O_3 
REMARK    2  A    between atoms: C_2  and  C_4 
REMARK    3  A    between atoms: C_7  and  N_8 
REMARK       I    between atoms: N_8  and  C_9 
REMARK    4  A    between atoms: C_9  and  C_10 
REMARK    5  A    between atoms: C_13  and  C_14 
REMARK    6  A    between atoms: C_19  and  C_20 
ROOT
HETATM    1  C   UNL     1     -42.834  57.537 -52.126  1.00  0.00     0.096 A 
HETATM    2  C   UNL     1     -42.891  58.900 -52.350  1.00  0.00     0.138 A 
HETATM    3  N   UNL     1     -43.915  59.368 -51.558  1.00  0.00    -0.240 N 
HETATM    4  C   UNL     1     -44.355  60.751 -51.515  1.00  0.00     0.221 C 
HETATM    5  C   UNL     1     -43.329  61.665 -52.217  1.00  0.00     0.066 C 
HETATM    6  C   UNL     1     -42.813  61.037 -53.522  1.00  0.00     0.118 C 
HETATM    7  N   UNL     1     -42.206  59.739 -53.177  1.00  0.00    -0.365 N 
HETATM    8  N   UNL     1     -44.616  58.392 -50.962  1.00  0.00    -0.181 NA
HETATM    9  C   UNL     1     -43.947  57.283 -51.292  1.00  0.00     0.160 A 
HETATM   10  H   UNL     1     -41.680  59.339 -53.956  1.00  0.00     0.161 HD
ENDROOT
BRANCH   1  11
HETATM   11  C   UNL     1     -41.907  56.557 -52.663  1.00  0.00     0.261 C 
HETATM   12  N   UNL     1     -42.221  55.260 -52.304  1.00  0.00    -0.323 N 
HETATM   13  H   UNL     1     -43.114  55.144 -51.838  1.00  0.00     0.169 HD
HETATM   14  O   UNL     1     -40.987  56.902 -53.395  1.00  0.00    -0.267 OA
BRANCH  12  15
HETATM   15  C   UNL     1     -41.519  54.085 -52.632  1.00  0.00     0.035 A 
HETATM   16  C   UNL     1     -41.543  53.494 -53.894  1.00  0.00     0.030 A 
HETATM   17  C   UNL     1     -40.817  52.324 -54.147  1.00  0.00     0.012 A 
HETATM   18  C   UNL     1     -40.055  51.721 -53.138  1.00  0.00    -0.030 A 
HETATM   19  C   UNL     1     -40.038  52.315 -51.869  1.00  0.00     0.012 A 
HETATM   20  C   UNL     1     -40.752  53.492 -51.623  1.00  0.00     0.030 A 
BRANCH  18  21
HETATM   21  C   UNL     1     -39.307  50.436 -53.419  1.00  0.00     0.147 C 
HETATM   22  C   UNL     1     -39.766  49.783 -54.714  1.00  0.00     0.044 C 
BRANCH  21  23
HETATM   23  O   UNL     1     -39.483  49.511 -52.348  1.00  0.00    -0.391 OA
HETATM   24  H   UNL     1     -39.689  48.650 -52.751  1.00  0.00     0.210 HD
ENDBRANCH  21  23
ENDBRANCH  18  21
ENDBRANCH  12  15
ENDBRANCH   1  11
BRANCH   4  25
HETATM   25  C   UNL     1     -44.557  61.224 -50.092  1.00  0.00     0.409 C 
HETATM   26  F   UNL     1     -43.555  60.829 -49.273  1.00  0.00    -0.169 F 
HETATM   27  F   UNL     1     -44.559  62.586 -50.064  1.00  0.00    -0.169 F 
HETATM   28  F   UNL     1     -45.727  60.836 -49.549  1.00  0.00    -0.169 F 
ENDBRANCH   4  25
BRANCH   6  29
HETATM   29  C   UNL     1     -43.863  60.944 -54.631  1.00  0.00    -0.035 A 
HETATM   30  C   UNL     1     -44.551  62.107 -55.037  1.00  0.00     0.012 A 
HETATM   31  C   UNL     1     -45.517  62.061 -56.046  1.00  0.00     0.043 A 
HETATM   32  C   UNL     1     -45.794  60.857 -56.676  1.00  0.00     0.116 A 
HETATM   33  F   UNL     1     -46.718  60.815 -57.645  1.00  0.00    -0.206 F 
HETATM   34  C   UNL     1     -45.119  59.700 -56.320  1.00  0.00     0.043 A 
HETATM   35  C   UNL     1     -44.157  59.743 -55.308  1.00  0.00     0.012 A 
ENDBRANCH   6  29
TORSDOF 6
ENDMDL
MODEL 8
REMARK VINA RESULT:      -7.9      1.614      2.170
REMARK  6 active torsions:
REMARK  status: ('A' for Active; 'I' for Inactive)
REMARK    1  A    between atoms: C_2  and  O_3 
REMARK    2  A    between atoms: C_2  and  C_4 
REMARK    3  A    between atoms: C_7  and  N_8 
REMARK       I    between atoms: N_8  and  C_9 
REMARK    4  A    between atoms: C_9  and  C_10 
REMARK    5  A    between atoms: C_13  and  C_14 
REMARK    6  A    between atoms: C_19  and  C_20 
ROOT
HETATM    1  C   UNL     1     -43.779  57.307 -54.770  1.00  0.00     0.096 A 
HETATM    2  C   UNL     1     -43.449  58.049 -55.889  1.00  0.00     0.138 A 
HETATM    3  N   UNL     1     -43.995  59.296 -55.688  1.00  0.00    -0.240 N 
HETATM    4  C   UNL     1     -43.928  60.387 -56.644  1.00  0.00     0.221 C 
HETATM    5  C   UNL     1     -42.903  60.070 -57.752  1.00  0.00     0.066 C 
HETATM    6  C   UNL     1     -43.012  58.610 -58.222  1.00  0.00     0.118 C 
HETATM    7  N   UNL     1     -42.791  57.751 -57.045  1.00  0.00    -0.365 N 
HETATM    8  N   UNL     1     -44.778  59.365 -54.601  1.00  0.00    -0.181 NA
HETATM    9  C   UNL     1     -44.631  58.164 -54.034  1.00  0.00     0.160 A 
HETATM   10  H   UNL     1     -42.667  56.770 -57.301  1.00  0.00     0.161 HD
ENDROOT
BRANCH   1  11
HETATM   11  C   UNL     1     -43.415  55.943 -54.434  1.00  0.00     0.261 C 
HETATM   12  N   UNL     1     -42.072  55.797 -54.141  1.00  0.00    -0.323 N 
HETATM   13  H   UNL     1     -41.549  56.663 -54.065  1.00  0.00     0.169 HD
HETATM   14  O   UNL     1     -44.266  55.063 -54.383  1.00  0.00    -0.267 OA
BRANCH  12  15
HETATM   15  C   UNL     1     -41.391  54.612 -53.804  1.00  0.00     0.035 A 
HETATM   16  C   UNL     1     -40.884  53.716 -54.744  1.00  0.00     0.030 A 
HETATM   17  C   UNL     1     -40.215  52.557 -54.333  1.00  0.00     0.012 A 
HETATM   18  C   UNL     1     -40.043  52.272 -52.972  1.00  0.00    -0.030 A 
HETATM   19  C   UNL     1     -40.558  53.173 -52.031  1.00  0.00     0.012 A 
HETATM   20  C   UNL     1     -41.214  54.338 -52.444  1.00  0.00     0.030 A 
BRANCH  18  21
HETATM   21  C   UNL     1     -39.350  50.996 -52.546  1.00  0.00     0.147 C 
HETATM   22  C   UNL     1     -39.722  49.822 -53.440  1.00  0.00     0.044 C 
BRANCH  21  23
HETATM   23  O   UNL     1     -39.683  50.672 -51.197  1.00  0.00    -0.391 OA
HETATM   24  H   UNL     1     -40.581  51.012 -51.041  1.00  0.00     0.210 HD
ENDBRANCH  21  23
ENDBRANCH  18  21
ENDBRANCH  12  15
ENDBRANCH   1  11
BRANCH   4  25
HETATM   25  C   UNL     1     -43.552  61.690 -55.972  1.00  0.00     0.409 C 
HETATM   26  F   UNL     1     -42.705  61.506 -54.934  1.00  0.00    -0.169 F 
HETATM   27  F   UNL     1     -42.900  62.487 -56.862  1.00  0.00    -0.169 F 
HETATM   28  F   UNL     1     -44.609  62.402 -55.535  1.00  0.00    -0.169 F 
ENDBRANCH   4  25
BRANCH   6  29
HETATM   29  C   UNL     1     -44.303  58.289 -58.977  1.00  0.00    -0.035 A 
HETATM   30  C   UNL     1     -44.903  59.282 -59.781  1.00  0.00     0.012 A 
HETATM   31  C   UNL     1     -46.083  59.027 -60.486  1.00  0.00     0.043 A 
HETATM   32  C   UNL     1     -46.666  57.770 -60.413  1.00  0.00     0.116 A 
HETATM   33  F   UNL     1     -47.796  57.526 -61.091  1.00  0.00    -0.206 F 
HETATM   34  C   UNL     1     -46.091  56.765 -59.654  1.00  0.00     0.043 A 
HETATM   35  C   UNL     1     -44.914  57.020 -58.945  1.00  0.00     0.012 A 
ENDBRANCH   6  29
TORSDOF 6
ENDMDL
MODEL 9
REMARK VINA RESULT:      -7.9      2.816      3.615
REMARK  6 active torsions:
REMARK  status: ('A' for Active; 'I' for Inactive)
REMARK    1  A    between atoms: C_2  and  O_3 
REMARK    2  A    between atoms: C_2  and  C_4 
REMARK    3  A    between atoms: C_7  and  N_8 
REMARK       I    between atoms: N_8  and  C_9 
REMARK    4  A    between atoms: C_9  and  C_10 
REMARK    5  A    between atoms: C_13  and  C_14 
REMARK    6  A    between atoms: C_19  and  C_20 
ROOT
HETATM    1  C   UNL     1     -43.295  57.736 -53.753  1.00  0.00     0.096 A 
HETATM    2  C   UNL     1     -43.575  58.724 -54.679  1.00  0.00     0.138 A 
HETATM    3  N   UNL     1     -44.692  59.376 -54.207  1.00  0.00    -0.240 N 
HETATM    4  C   UNL     1     -45.360  60.465 -54.897  1.00  0.00     0.221 C 
HETATM    5  C   UNL     1     -44.480  60.997 -56.045  1.00  0.00     0.066 C 
HETATM    6  C   UNL     1     -43.817  59.851 -56.828  1.00  0.00     0.118 C 
HETATM    7  N   UNL     1     -43.012  59.072 -55.871  1.00  0.00    -0.365 N 
HETATM    8  N   UNL     1     -45.238  58.786 -53.134  1.00  0.00    -0.181 NA
HETATM    9  C   UNL     1     -44.380  57.803 -52.847  1.00  0.00     0.160 A 
HETATM   10  H   UNL     1     -42.397  58.403 -56.337  1.00  0.00     0.161 HD
ENDROOT
BRANCH   1  11
HETATM   11  C   UNL     1     -42.197  56.788 -53.727  1.00  0.00     0.261 C 
HETATM   12  N   UNL     1     -42.603  55.495 -53.453  1.00  0.00    -0.323 N 
HETATM   13  H   UNL     1     -43.607  55.350 -53.441  1.00  0.00     0.169 HD
HETATM   14  O   UNL     1     -41.054  57.148 -53.980  1.00  0.00    -0.267 OA
BRANCH  12  15
HETATM   15  C   UNL     1     -41.796  54.349 -53.329  1.00  0.00     0.035 A 
HETATM   16  C   UNL     1     -41.113  54.004 -52.164  1.00  0.00     0.030 A 
HETATM   17  C   UNL     1     -40.328  52.845 -52.115  1.00  0.00     0.012 A 
HETATM   18  C   UNL     1     -40.210  52.012 -53.235  1.00  0.00    -0.030 A 
HETATM   19  C   UNL     1     -40.893  52.365 -54.406  1.00  0.00     0.012 A 
HETATM   20  C   UNL     1     -41.688  53.515 -54.448  1.00  0.00     0.030 A 
BRANCH  18  21
HETATM   21  C   UNL     1     -39.326  50.784 -53.176  1.00  0.00     0.147 C 
HETATM   22  C   UNL     1     -39.519  49.886 -54.389  1.00  0.00     0.044 C 
BRANCH  21  23
HETATM   23  O   UNL     1     -39.597  50.030 -51.996  1.00  0.00    -0.391 OA
HETATM   24  H   UNL     1     -40.565  49.972 -51.916  1.00  0.00     0.210 HD
ENDBRANCH  21  23
ENDBRANCH  18  21
ENDBRANCH  12  15
ENDBRANCH   1  11
BRANCH   4  25
HETATM   25  C   UNL     1     -45.691  61.599 -53.952  1.00  0.00     0.409 C 
HETATM   26  F   UNL     1     -44.706  61.821 -53.052  1.00  0.00    -0.169 F 
HETATM   27  F   UNL     1     -45.830  62.753 -54.661  1.00  0.00    -0.169 F 
HETATM   28  F   UNL     1     -46.848  61.430 -53.281  1.00  0.00    -0.169 F 
ENDBRANCH   4  25
BRANCH   6  29
HETATM   29  C   UNL     1     -44.795  58.999 -57.639  1.00  0.00    -0.035 A 
HETATM   30  C   UNL     1     -44.350  57.792 -58.219  1.00  0.00     0.012 A 
HETATM   31  C   UNL     1     -45.214  56.987 -58.967  1.00  0.00     0.043 A 
HETATM   32  C   UNL     1     -46.538  57.367 -59.127  1.00  0.00     0.116 A 
HETATM   33  F   UNL     1     -47.366  56.593 -59.842  1.00  0.00    -0.206 F 
HETATM   34  C   UNL     1     -47.016  58.533 -58.550  1.00  0.00     0.043 A 
HETATM   35  C   UNL     1     -46.151  59.341 -57.806  1.00  0.00     0.012 A 
ENDBRANCH   6  29
TORSDOF 6
ENDMDL
MODEL 10
REMARK VINA RESULT:      -7.7      4.404      9.009
REMARK  6 active torsions:
REMARK  status: ('A' for Active; 'I' for Inactive)
REMARK    1  A    between atoms: C_2  and  O_3 
REMARK    2  A    between atoms: C_2  and  C_4 
REMARK    3  A    between atoms: C_7  and  N_8 
REMARK       I    between atoms: N_8  and  C_9 
REMARK    4  A    between atoms: C_9  and  C_10 
REMARK    5  A    between atoms: C_13  and  C_14 
REMARK    6  A    between atoms: C_19  and  C_20 
ROOT
HETATM    1  C   UNL     1     -42.908  56.302 -56.896  1.00  0.00     0.096 A 
HETATM    2  C   UNL     1     -42.264  56.443 -55.681  1.00  0.00     0.138 A 
HETATM    3  N   UNL     1     -42.254  55.189 -55.113  1.00  0.00    -0.240 N 
HETATM    4  C   UNL     1     -41.710  54.886 -53.802  1.00  0.00     0.221 C 
HETATM    5  C   UNL     1     -40.870  56.069 -53.279  1.00  0.00     0.066 C 
HETATM    6  C   UNL     1     -41.555  57.417 -53.560  1.00  0.00     0.118 C 
HETATM    7  N   UNL     1     -41.748  57.516 -55.018  1.00  0.00    -0.365 N 
HETATM    8  N   UNL     1     -42.975  54.289 -55.798  1.00  0.00    -0.181 NA
HETATM    9  C   UNL     1     -43.355  54.960 -56.889  1.00  0.00     0.160 A 
HETATM   10  H   UNL     1     -42.031  58.454 -55.307  1.00  0.00     0.161 HD
ENDROOT
BRANCH   1  11
HETATM   11  C   UNL     1     -43.150  57.295 -57.927  1.00  0.00     0.261 C 
HETATM   12  N   UNL     1     -42.012  57.995 -58.282  1.00  0.00    -0.323 N 
HETATM   13  H   UNL     1     -41.147  57.643 -57.889  1.00  0.00     0.169 HD
HETATM   14  O   UNL     1     -44.261  57.419 -58.427  1.00  0.00    -0.267 OA
BRANCH  12  15
HETATM   15  C   UNL     1     -41.904  59.036 -59.223  1.00  0.00     0.035 A 
HETATM   16  C   UNL     1     -41.943  58.841 -60.603  1.00  0.00     0.030 A 
HETATM   17  C   UNL     1     -41.831  59.928 -61.479  1.00  0.00     0.012 A 
HETATM   18  C   UNL     1     -41.675  61.231 -60.989  1.00  0.00    -0.030 A 
HETATM   19  C   UNL     1     -41.631  61.422 -59.602  1.00  0.00     0.012 A 
HETATM   20  C   UNL     1     -41.758  60.337 -58.729  1.00  0.00     0.030 A 
BRANCH  18  21
HETATM   21  C   UNL     1     -41.517  62.388 -61.952  1.00  0.00     0.147 C 
HETATM   22  C   UNL     1     -42.781  62.628 -62.765  1.00  0.00     0.044 C 
BRANCH  21  23
HETATM   23  O   UNL     1     -40.431  62.150 -62.846  1.00  0.00    -0.391 OA
HETATM   24  H   UNL     1     -40.569  62.729 -63.615  1.00  0.00     0.210 HD
ENDBRANCH  21  23
ENDBRANCH  18  21
ENDBRANCH  12  15
ENDBRANCH   1  11
BRANCH   4  25
HETATM   25  C   UNL     1     -40.855  53.638 -53.832  1.00  0.00     0.409 C 
HETATM   26  F   UNL     1     -41.587  52.518 -54.030  1.00  0.00    -0.169 F 
HETATM   27  F   UNL     1     -39.981  53.714 -54.874  1.00  0.00    -0.169 F 
HETATM   28  F   UNL     1     -40.105  53.464 -52.726  1.00  0.00    -0.169 F 
ENDBRANCH   4  25
BRANCH   6  29
HETATM   29  C   UNL     1     -42.837  57.648 -52.758  1.00  0.00    -0.035 A 
HETATM   30  C   UNL     1     -43.704  58.700 -53.120  1.00  0.00     0.012 A 
HETATM   31  C   UNL     1     -44.884  58.942 -52.411  1.00  0.00     0.043 A 
HETATM   32  C   UNL     1     -45.222  58.124 -51.344  1.00  0.00     0.116 A 
HETATM   33  F   UNL     1     -46.355  58.355 -50.666  1.00  0.00    -0.206 F 
HETATM   34  C   UNL     1     -44.407  57.066 -50.976  1.00  0.00     0.043 A 
HETATM   35  C   UNL     1     -43.224  56.826 -51.682  1.00  0.00     0.012 A 
ENDBRANCH   6  29
TORSDOF 6
ENDMDL
