MODEL 1
REMARK VINA RESULT:      -8.7      0.000      0.000
REMARK  9 active torsions:
REMARK  status: ('A' for Active; 'I' for Inactive)
REMARK    1  A    between atoms: C_2  and  O_3 
REMARK    2  A    between atoms: O_3  and  C_4 
REMARK    3  A    between atoms: C_7  and  C_8 
REMARK    4  A    between atoms: C_9  and  C_10 
REMARK       I    between atoms: C_10  and  N_11 
REMARK    5  A    between atoms: N_11  and  C_12 
REMARK    6  A    between atoms: C_22  and  S_23 
REMARK    7  A    between atoms: S_23  and  C_24 
REMARK    8  A    between atoms: C_24  and  C_25 
REMARK       I    between atoms: C_25  and  N_26 
REMARK    9  A    between atoms: N_26  and  C_27 
ROOT
HETATM    1  C   UNL     1     -42.077  57.965 -55.277  1.00  0.00     0.104 C 
HETATM    2  C   UNL     1     -43.391  58.187 -56.030  1.00  0.00     0.046 C 
HETATM    3  C   UNL     1     -44.459  58.741 -55.408  1.00  0.00     0.019 C 
HETATM    4  C   UNL     1     -45.858  58.795 -55.967  1.00  0.00     0.069 C 
HETATM    5  N   UNL     1     -44.294  59.304 -54.155  1.00  0.00    -0.353 N 
HETATM    6  C   UNL     1     -43.076  59.463 -53.513  1.00  0.00     0.087 C 
HETATM    7  C   UNL     1     -41.985  58.819 -54.014  1.00  0.00     0.055 C 
HETATM    8  C   UNL     1     -40.681  58.864 -53.233  1.00  0.00     0.019 C 
HETATM    9  N   UNL     1     -39.600  58.902 -52.586  1.00  0.00    -0.096 N 
HETATM   10  H   UNL     1     -45.137  59.571 -53.652  1.00  0.00     0.166 HD
ENDROOT
BRANCH   1  11
HETATM   11  C   UNL     1     -41.862  56.492 -54.925  1.00  0.00    -0.044 A 
HETATM   12  C   UNL     1     -42.948  55.607 -54.888  1.00  0.00     0.011 A 
HETATM   13  C   UNL     1     -42.747  54.252 -54.602  1.00  0.00     0.037 A 
HETATM   14  C   UNL     1     -41.466  53.755 -54.355  1.00  0.00     0.068 A 
HETATM   15  C   UNL     1     -40.383  54.630 -54.376  1.00  0.00     0.037 A 
HETATM   16  C   UNL     1     -40.577  55.985 -54.660  1.00  0.00     0.011 A 
BRANCH  14  17
HETATM   17  O   UNL     1     -41.409  52.411 -54.105  1.00  0.00    -0.352 OA
BRANCH  17  18
HETATM   18  C   UNL     1     -40.115  51.810 -54.115  1.00  0.00     0.171 C 
HETATM   19  C   UNL     1     -40.293  50.314 -54.306  1.00  0.00     0.034 C 
ENDBRANCH  17  18
ENDBRANCH  14  17
ENDBRANCH   1  11
BRANCH   6  20
HETATM   20  S   UNL     1     -42.865  60.482 -52.085  1.00  0.00    -0.102 SA
BRANCH  20  21
HETATM   21  C   UNL     1     -43.784  59.646 -50.776  1.00  0.00     0.184 C 
BRANCH  21  22
HETATM   22  C   UNL     1     -43.714  58.142 -50.978  1.00  0.00     0.231 C 
HETATM   23  N   UNL     1     -42.453  57.636 -50.712  1.00  0.00    -0.327 N 
HETATM   24  H   UNL     1     -41.713  58.324 -50.622  1.00  0.00     0.169 HD
HETATM   25  O   UNL     1     -44.706  57.523 -51.352  1.00  0.00    -0.272 OA
BRANCH  23  26
HETATM   26  C   UNL     1     -42.043  56.292 -50.689  1.00  0.00     0.034 A 
HETATM   27  C   UNL     1     -42.866  55.220 -51.028  1.00  0.00     0.030 A 
HETATM   28  C   UNL     1     -42.385  53.908 -50.940  1.00  0.00     0.009 A 
HETATM   29  C   UNL     1     -41.079  53.650 -50.510  1.00  0.00    -0.062 A 
HETATM   30  C   UNL     1     -40.561  52.244 -50.446  1.00  0.00     0.048 C 
HETATM   31  C   UNL     1     -40.249  54.727 -50.192  1.00  0.00     0.009 A 
HETATM   32  C   UNL     1     -40.730  56.036 -50.271  1.00  0.00     0.030 A 
ENDBRANCH  23  26
ENDBRANCH  21  22
ENDBRANCH  20  21
ENDBRANCH   6  20
BRANCH   2  33
HETATM   33  C   UNL     1     -43.406  57.802 -57.475  1.00  0.00     0.255 C 
HETATM   34  N   UNL     1     -44.438  56.931 -57.772  1.00  0.00    -0.323 N 
HETATM   35  H   UNL     1     -45.055  56.678 -57.011  1.00  0.00     0.169 HD
HETATM   36  O   UNL     1     -42.616  58.305 -58.261  1.00  0.00    -0.268 OA
BRANCH  34  37
HETATM   37  C   UNL     1     -44.712  56.298 -59.001  1.00  0.00     0.035 A 
HETATM   38  C   UNL     1     -43.957  55.249 -59.526  1.00  0.00     0.029 A 
HETATM   39  C   UNL     1     -44.314  54.665 -60.746  1.00  0.00     0.002 A 
HETATM   40  C   UNL     1     -45.431  55.119 -61.445  1.00  0.00     0.000 A 
HETATM   41  C   UNL     1     -46.191  56.164 -60.928  1.00  0.00     0.002 A 
HETATM   42  C   UNL     1     -45.829  56.754 -59.715  1.00  0.00     0.029 A 
ENDBRANCH  34  37
ENDBRANCH   2  33
TORSDOF 9
ENDMDL
MODEL 2
REMARK VINA RESULT:      -8.3      3.000      5.735
REMARK  9 active torsions:
REMARK  status: ('A' for Active; 'I' for Inactive)
REMARK    1  A    between atoms: C_2  and  O_3 
REMARK    2  A    between atoms: O_3  and  C_4 
REMARK    3  A    between atoms: C_7  and  C_8 
REMARK    4  A    between atoms: C_9  and  C_10 
REMARK       I    between atoms: C_10  and  N_11 
REMARK    5  A    between atoms: N_11  and  C_12 
REMARK    6  A    between atoms: C_22  and  S_23 
REMARK    7  A    between atoms: S_23  and  C_24 
REMARK    8  A    between atoms: C_24  and  C_25 
REMARK       I    between atoms: C_25  and  N_26 
REMARK    9  A    between atoms: N_26  and  C_27 
ROOT
HETATM    1  C   UNL     1     -44.625  58.860 -57.152  1.00  0.00     0.104 C 
HETATM    2  C   UNL     1     -44.421  57.687 -58.112  1.00  0.00     0.046 C 
HETATM    3  C   UNL     1     -43.808  56.552 -57.698  1.00  0.00     0.019 C 
HETATM    4  C   UNL     1     -43.346  55.435 -58.599  1.00  0.00     0.069 C 
HETATM    5  N   UNL     1     -43.560  56.373 -56.349  1.00  0.00    -0.353 N 
HETATM    6  C   UNL     1     -44.002  57.218 -55.343  1.00  0.00     0.087 C 
HETATM    7  C   UNL     1     -44.508  58.435 -55.689  1.00  0.00     0.055 C 
HETATM    8  C   UNL     1     -44.853  59.427 -54.591  1.00  0.00     0.019 C 
HETATM    9  N   UNL     1     -45.141  60.250 -53.680  1.00  0.00    -0.096 N 
HETATM   10  H   UNL     1     -42.965  55.590 -56.087  1.00  0.00     0.166 HD
ENDROOT
BRANCH   1  11
HETATM   11  C   UNL     1     -43.656  60.009 -57.439  1.00  0.00    -0.044 A 
HETATM   12  C   UNL     1     -42.275  59.774 -57.487  1.00  0.00     0.011 A 
HETATM   13  C   UNL     1     -41.390  60.816 -57.786  1.00  0.00     0.037 A 
HETATM   14  C   UNL     1     -41.862  62.104 -58.045  1.00  0.00     0.068 A 
HETATM   15  C   UNL     1     -43.232  62.349 -57.985  1.00  0.00     0.037 A 
HETATM   16  C   UNL     1     -44.121  61.312 -57.687  1.00  0.00     0.011 A 
BRANCH  14  17
HETATM   17  O   UNL     1     -40.894  63.025 -58.338  1.00  0.00    -0.352 OA
BRANCH  17  18
HETATM   18  C   UNL     1     -40.191  62.850 -59.567  1.00  0.00     0.171 C 
HETATM   19  C   UNL     1     -38.917  63.674 -59.502  1.00  0.00     0.034 C 
ENDBRANCH  17  18
ENDBRANCH  14  17
ENDBRANCH   1  11
BRANCH   6  20
HETATM   20  S   UNL     1     -43.963  56.783 -53.632  1.00  0.00    -0.102 SA
BRANCH  20  21
HETATM   21  C   UNL     1     -42.294  57.192 -53.085  1.00  0.00     0.184 C 
BRANCH  21  22
HETATM   22  C   UNL     1     -41.341  56.069 -53.455  1.00  0.00     0.231 C 
HETATM   23  N   UNL     1     -41.659  54.881 -52.818  1.00  0.00    -0.327 N 
HETATM   24  H   UNL     1     -42.328  54.954 -52.059  1.00  0.00     0.169 HD
HETATM   25  O   UNL     1     -40.410  56.278 -54.227  1.00  0.00    -0.272 OA
BRANCH  23  26
HETATM   26  C   UNL     1     -41.073  53.616 -52.994  1.00  0.00     0.034 A 
HETATM   27  C   UNL     1     -40.229  53.013 -52.064  1.00  0.00     0.030 A 
HETATM   28  C   UNL     1     -39.657  51.764 -52.339  1.00  0.00     0.009 A 
HETATM   29  C   UNL     1     -39.917  51.106 -53.545  1.00  0.00    -0.062 A 
HETATM   30  C   UNL     1     -39.324  49.756 -53.820  1.00  0.00     0.048 C 
HETATM   31  C   UNL     1     -40.780  51.703 -54.466  1.00  0.00     0.009 A 
HETATM   32  C   UNL     1     -41.345  52.951 -54.197  1.00  0.00     0.030 A 
ENDBRANCH  23  26
ENDBRANCH  21  22
ENDBRANCH  20  21
ENDBRANCH   6  20
BRANCH   2  33
HETATM   33  C   UNL     1     -44.969  57.851 -59.494  1.00  0.00     0.255 C 
HETATM   34  N   UNL     1     -46.345  57.721 -59.529  1.00  0.00    -0.323 N 
HETATM   35  H   UNL     1     -46.810  57.556 -58.646  1.00  0.00     0.169 HD
HETATM   36  O   UNL     1     -44.232  58.147 -60.424  1.00  0.00    -0.268 OA
BRANCH  34  37
HETATM   37  C   UNL     1     -47.189  57.733 -60.658  1.00  0.00     0.035 A 
HETATM   38  C   UNL     1     -47.613  56.587 -61.330  1.00  0.00     0.029 A 
HETATM   39  C   UNL     1     -48.470  56.692 -62.431  1.00  0.00     0.002 A 
HETATM   40  C   UNL     1     -48.914  57.940 -62.863  1.00  0.00     0.000 A 
HETATM   41  C   UNL     1     -48.496  59.089 -62.199  1.00  0.00     0.002 A 
HETATM   42  C   UNL     1     -47.634  58.985 -61.105  1.00  0.00     0.029 A 
ENDBRANCH  34  37
ENDBRANCH   2  33
TORSDOF 9
ENDMDL
MODEL 3
REMARK VINA RESULT:      -8.2      3.284      6.115
REMARK  9 active torsions:
REMARK  status: ('A' for Active; 'I' for Inactive)
REMARK    1  A    between atoms: C_2  and  O_3 
REMARK    2  A    between atoms: O_3  and  C_4 
REMARK    3  A    between atoms: C_7  and  C_8 
REMARK    4  A    between atoms: C_9  and  C_10 
REMARK       I    between atoms: C_10  and  N_11 
REMARK    5  A    between atoms: N_11  and  C_12 
REMARK    6  A    between atoms: C_22  and  S_23 
REMARK    7  A    between atoms: S_23  and  C_24 
REMARK    8  A    between atoms: C_24  and  C_25 
REMARK       I    between atoms: C_25  and  N_26 
REMARK    9  A    between atoms: N_26  and  C_27 
ROOT
HETATM    1  C   UNL     1     -43.510  58.525 -57.063  1.00  0.00     0.104 C 
HETATM    2  C   UNL     1     -43.704  59.982 -56.637  1.00  0.00     0.046 C 
HETATM    3  C   UNL     1     -44.219  60.283 -55.421  1.00  0.00     0.019 C 
HETATM    4  C   UNL     1     -44.669  61.655 -54.984  1.00  0.00     0.069 C 
HETATM    5  N   UNL     1     -44.369  59.278 -54.483  1.00  0.00    -0.353 N 
HETATM    6  C   UNL     1     -43.916  57.978 -54.636  1.00  0.00     0.087 C 
HETATM    7  C   UNL     1     -43.508  57.570 -55.871  1.00  0.00     0.055 C 
HETATM    8  C   UNL     1     -43.154  56.107 -56.084  1.00  0.00     0.019 C 
HETATM    9  N   UNL     1     -42.859  54.894 -56.259  1.00  0.00    -0.096 N 
HETATM   10  H   UNL     1     -44.898  59.503 -53.643  1.00  0.00     0.166 HD
ENDROOT
BRANCH   1  11
HETATM   11  C   UNL     1     -44.563  58.083 -58.081  1.00  0.00    -0.044 A 
HETATM   12  C   UNL     1     -44.173  57.541 -59.314  1.00  0.00     0.011 A 
HETATM   13  C   UNL     1     -45.135  57.102 -60.230  1.00  0.00     0.037 A 
HETATM   14  C   UNL     1     -46.497  57.189 -59.936  1.00  0.00     0.068 A 
HETATM   15  C   UNL     1     -46.894  57.739 -58.719  1.00  0.00     0.037 A 
HETATM   16  C   UNL     1     -45.938  58.180 -57.800  1.00  0.00     0.011 A 
BRANCH  14  17
HETATM   17  O   UNL     1     -47.328  56.711 -60.911  1.00  0.00    -0.352 OA
BRANCH  17  18
HETATM   18  C   UNL     1     -48.068  57.677 -61.656  1.00  0.00     0.171 C 
HETATM   19  C   UNL     1     -48.988  56.933 -62.608  1.00  0.00     0.034 C 
ENDBRANCH  17  18
ENDBRANCH  14  17
ENDBRANCH   1  11
BRANCH   6  20
HETATM   20  S   UNL     1     -43.820  56.826 -53.300  1.00  0.00    -0.102 SA
BRANCH  20  21
HETATM   21  C   UNL     1     -42.165  57.041 -52.616  1.00  0.00     0.184 C 
BRANCH  21  22
HETATM   22  C   UNL     1     -41.243  55.958 -53.150  1.00  0.00     0.231 C 
HETATM   23  N   UNL     1     -41.511  54.720 -52.591  1.00  0.00    -0.327 N 
HETATM   24  H   UNL     1     -42.121  54.727 -51.779  1.00  0.00     0.169 HD
HETATM   25  O   UNL     1     -40.374  56.236 -53.971  1.00  0.00    -0.272 OA
BRANCH  23  26
HETATM   26  C   UNL     1     -40.940  53.477 -52.915  1.00  0.00     0.034 A 
HETATM   27  C   UNL     1     -41.143  52.819 -54.125  1.00  0.00     0.030 A 
HETATM   28  C   UNL     1     -40.564  51.563 -54.349  1.00  0.00     0.009 A 
HETATM   29  C   UNL     1     -39.781  50.949 -53.366  1.00  0.00    -0.062 A 
HETATM   30  C   UNL     1     -39.141  49.617 -53.623  1.00  0.00     0.048 C 
HETATM   31  C   UNL     1     -39.562  51.621 -52.161  1.00  0.00     0.009 A 
HETATM   32  C   UNL     1     -40.145  52.870 -51.934  1.00  0.00     0.030 A 
ENDBRANCH  23  26
ENDBRANCH  21  22
ENDBRANCH  20  21
ENDBRANCH   6  20
BRANCH   2  33
HETATM   33  C   UNL     1     -43.256  61.028 -57.608  1.00  0.00     0.255 C 
HETATM   34  N   UNL     1     -42.019  60.738 -58.153  1.00  0.00    -0.323 N 
HETATM   35  H   UNL     1     -41.582  59.873 -57.860  1.00  0.00     0.169 HD
HETATM   36  O   UNL     1     -43.989  61.962 -57.898  1.00  0.00    -0.268 OA
BRANCH  34  37
HETATM   37  C   UNL     1     -41.252  61.529 -59.033  1.00  0.00     0.035 A 
HETATM   38  C   UNL     1     -40.211  62.364 -58.629  1.00  0.00     0.029 A 
HETATM   39  C   UNL     1     -39.488  63.098 -59.575  1.00  0.00     0.002 A 
HETATM   40  C   UNL     1     -39.796  62.998 -60.930  1.00  0.00     0.000 A 
HETATM   41  C   UNL     1     -40.833  62.167 -61.343  1.00  0.00     0.002 A 
HETATM   42  C   UNL     1     -41.560  61.440 -60.398  1.00  0.00     0.029 A 
ENDBRANCH  34  37
ENDBRANCH   2  33
TORSDOF 9
ENDMDL
MODEL 4
REMARK VINA RESULT:      -8.0      3.312      8.749
REMARK  9 active torsions:
REMARK  status: ('A' for Active; 'I' for Inactive)
REMARK    1  A    between atoms: C_2  and  O_3 
REMARK    2  A    between atoms: O_3  and  C_4 
REMARK    3  A    between atoms: C_7  and  C_8 
REMARK    4  A    between atoms: C_9  and  C_10 
REMARK       I    between atoms: C_10  and  N_11 
REMARK    5  A    between atoms: N_11  and  C_12 
REMARK    6  A    between atoms: C_22  and  S_23 
REMARK    7  A    between atoms: S_23  and  C_24 
REMARK    8  A    between atoms: C_24  and  C_25 
REMARK       I    between atoms: C_25  and  N_26 
REMARK    9  A    between atoms: N_26  and  C_27 
ROOT
HETATM    1  C   UNL     1     -42.674  58.146 -54.524  1.00  0.00     0.104 C 
HETATM    2  C   UNL     1     -42.530  56.624 -54.588  1.00  0.00     0.046 C 
HETATM    3  C   UNL     1     -43.277  55.895 -55.451  1.00  0.00     0.019 C 
HETATM    4  C   UNL     1     -43.393  54.391 -55.444  1.00  0.00     0.069 C 
HETATM    5  N   UNL     1     -44.013  56.547 -56.425  1.00  0.00    -0.353 N 
HETATM    6  C   UNL     1     -43.959  57.908 -56.679  1.00  0.00     0.087 C 
HETATM    7  C   UNL     1     -43.336  58.716 -55.776  1.00  0.00     0.055 C 
HETATM    8  C   UNL     1     -43.404  60.223 -55.968  1.00  0.00     0.019 C 
HETATM    9  N   UNL     1     -43.458  61.472 -56.128  1.00  0.00    -0.096 N 
HETATM   10  H   UNL     1     -44.679  55.988 -56.954  1.00  0.00     0.166 HD
ENDROOT
BRANCH   1  11
HETATM   11  C   UNL     1     -43.442  58.596 -53.279  1.00  0.00    -0.044 A 
HETATM   12  C   UNL     1     -44.720  58.085 -53.014  1.00  0.00     0.011 A 
HETATM   13  C   UNL     1     -45.409  58.467 -51.857  1.00  0.00     0.037 A 
HETATM   14  C   UNL     1     -44.838  59.357 -50.946  1.00  0.00     0.068 A 
HETATM   15  C   UNL     1     -43.575  59.880 -51.208  1.00  0.00     0.037 A 
HETATM   16  C   UNL     1     -42.882  59.503 -52.363  1.00  0.00     0.011 A 
BRANCH  14  17
HETATM   17  O   UNL     1     -45.611  59.634 -49.851  1.00  0.00    -0.352 OA
BRANCH  17  18
HETATM   18  C   UNL     1     -45.678  60.998 -49.440  1.00  0.00     0.171 C 
HETATM   19  C   UNL     1     -45.201  61.081 -48.001  1.00  0.00     0.034 C 
ENDBRANCH  17  18
ENDBRANCH  14  17
ENDBRANCH   1  11
BRANCH   6  20
HETATM   20  S   UNL     1     -44.642  58.644 -58.132  1.00  0.00    -0.102 SA
BRANCH  20  21
HETATM   21  C   UNL     1     -43.798  57.836 -59.506  1.00  0.00     0.184 C 
BRANCH  21  22
HETATM   22  C   UNL     1     -42.552  58.621 -59.879  1.00  0.00     0.231 C 
HETATM   23  N   UNL     1     -42.719  59.984 -59.699  1.00  0.00    -0.327 N 
HETATM   24  H   UNL     1     -43.673  60.294 -59.549  1.00  0.00     0.169 HD
HETATM   25  O   UNL     1     -41.557  58.037 -60.297  1.00  0.00    -0.272 OA
BRANCH  23  26
HETATM   26  C   UNL     1     -41.761  61.002 -59.838  1.00  0.00     0.034 A 
HETATM   27  C   UNL     1     -41.434  61.604 -61.051  1.00  0.00     0.030 A 
HETATM   28  C   UNL     1     -40.437  62.587 -61.104  1.00  0.00     0.009 A 
HETATM   29  C   UNL     1     -39.754  62.977 -59.947  1.00  0.00    -0.062 A 
HETATM   30  C   UNL     1     -38.708  64.051 -60.006  1.00  0.00     0.048 C 
HETATM   31  C   UNL     1     -40.098  62.388 -58.729  1.00  0.00     0.009 A 
HETATM   32  C   UNL     1     -41.087  61.402 -58.677  1.00  0.00     0.030 A 
ENDBRANCH  23  26
ENDBRANCH  21  22
ENDBRANCH  20  21
ENDBRANCH   6  20
BRANCH   2  33
HETATM   33  C   UNL     1     -41.504  56.011 -53.689  1.00  0.00     0.255 C 
HETATM   34  N   UNL     1     -42.065  55.485 -52.540  1.00  0.00    -0.323 N 
HETATM   35  H   UNL     1     -43.071  55.552 -52.451  1.00  0.00     0.169 HD
HETATM   36  O   UNL     1     -40.333  55.946 -54.034  1.00  0.00    -0.268 OA
BRANCH  34  37
HETATM   37  C   UNL     1     -41.404  54.907 -51.437  1.00  0.00     0.035 A 
HETATM   38  C   UNL     1     -40.615  53.760 -51.512  1.00  0.00     0.029 A 
HETATM   39  C   UNL     1     -39.977  53.267 -50.368  1.00  0.00     0.002 A 
HETATM   40  C   UNL     1     -40.117  53.920 -49.146  1.00  0.00     0.000 A 
HETATM   41  C   UNL     1     -40.902  55.066 -49.062  1.00  0.00     0.002 A 
HETATM   42  C   UNL     1     -41.546  55.553 -50.201  1.00  0.00     0.029 A 
ENDBRANCH  34  37
ENDBRANCH   2  33
TORSDOF 9
ENDMDL
MODEL 5
REMARK VINA RESULT:      -8.0      4.209      7.601
REMARK  9 active torsions:
REMARK  status: ('A' for Active; 'I' for Inactive)
REMARK    1  A    between atoms: C_2  and  O_3 
REMARK    2  A    between atoms: O_3  and  C_4 
REMARK    3  A    between atoms: C_7  and  C_8 
REMARK    4  A    between atoms: C_9  and  C_10 
REMARK       I    between atoms: C_10  and  N_11 
REMARK    5  A    between atoms: N_11  and  C_12 
REMARK    6  A    between atoms: C_22  and  S_23 
REMARK    7  A    between atoms: S_23  and  C_24 
REMARK    8  A    between atoms: C_24  and  C_25 
REMARK       I    between atoms: C_25  and  N_26 
REMARK    9  A    between atoms: N_26  and  C_27 
ROOT
HETATM    1  C   UNL     1     -44.291  58.440 -52.299  1.00  0.00     0.104 C 
HETATM    2  C   UNL     1     -43.073  57.864 -51.574  1.00  0.00     0.046 C 
HETATM    3  C   UNL     1     -42.259  58.666 -50.847  1.00  0.00     0.019 C 
HETATM    4  C   UNL     1     -40.917  58.264 -50.287  1.00  0.00     0.069 C 
HETATM    5  N   UNL     1     -42.651  59.966 -50.583  1.00  0.00    -0.353 N 
HETATM    6  C   UNL     1     -43.889  60.500 -50.903  1.00  0.00     0.087 C 
HETATM    7  C   UNL     1     -44.704  59.801 -51.743  1.00  0.00     0.055 C 
HETATM    8  C   UNL     1     -45.995  60.446 -52.220  1.00  0.00     0.019 C 
HETATM    9  N   UNL     1     -47.067  60.980 -52.614  1.00  0.00    -0.096 N 
HETATM   10  H   UNL     1     -41.956  60.585 -50.171  1.00  0.00     0.166 HD
ENDROOT
BRANCH   1  11
HETATM   11  C   UNL     1     -44.062  58.544 -53.809  1.00  0.00    -0.044 A 
HETATM   12  C   UNL     1     -43.081  59.406 -54.318  1.00  0.00     0.011 A 
HETATM   13  C   UNL     1     -42.844  59.475 -55.695  1.00  0.00     0.037 A 
HETATM   14  C   UNL     1     -43.574  58.687 -56.587  1.00  0.00     0.068 A 
HETATM   15  C   UNL     1     -44.561  57.838 -56.091  1.00  0.00     0.037 A 
HETATM   16  C   UNL     1     -44.802  57.765 -54.716  1.00  0.00     0.011 A 
BRANCH  14  17
HETATM   17  O   UNL     1     -43.233  58.839 -57.903  1.00  0.00    -0.352 OA
BRANCH  17  18
HETATM   18  C   UNL     1     -42.115  58.086 -58.369  1.00  0.00     0.171 C 
HETATM   19  C   UNL     1     -42.304  57.834 -59.854  1.00  0.00     0.034 C 
ENDBRANCH  17  18
ENDBRANCH  14  17
ENDBRANCH   1  11
BRANCH   6  20
HETATM   20  S   UNL     1     -44.473  62.036 -50.255  1.00  0.00    -0.102 SA
BRANCH  20  21
HETATM   21  C   UNL     1     -45.369  61.598 -48.752  1.00  0.00     0.184 C 
BRANCH  21  22
HETATM   22  C   UNL     1     -44.957  62.522 -47.619  1.00  0.00     0.231 C 
HETATM   23  N   UNL     1     -45.221  61.975 -46.375  1.00  0.00    -0.327 N 
HETATM   24  H   UNL     1     -45.820  61.156 -46.373  1.00  0.00     0.169 HD
HETATM   25  O   UNL     1     -44.464  63.620 -47.865  1.00  0.00    -0.272 OA
BRANCH  23  26
HETATM   26  C   UNL     1     -44.884  62.487 -45.111  1.00  0.00     0.034 A 
HETATM   27  C   UNL     1     -45.379  63.684 -44.598  1.00  0.00     0.030 A 
HETATM   28  C   UNL     1     -44.959  64.139 -43.341  1.00  0.00     0.009 A 
HETATM   29  C   UNL     1     -44.037  63.407 -42.585  1.00  0.00    -0.062 A 
HETATM   30  C   UNL     1     -43.614  63.886 -41.228  1.00  0.00     0.048 C 
HETATM   31  C   UNL     1     -43.558  62.197 -43.092  1.00  0.00     0.009 A 
HETATM   32  C   UNL     1     -43.971  61.747 -44.348  1.00  0.00     0.030 A 
ENDBRANCH  23  26
ENDBRANCH  21  22
ENDBRANCH  20  21
ENDBRANCH   6  20
BRANCH   2  33
HETATM   33  C   UNL     1     -42.869  56.387 -51.681  1.00  0.00     0.255 C 
HETATM   34  N   UNL     1     -41.803  56.066 -52.502  1.00  0.00    -0.323 N 
HETATM   35  H   UNL     1     -41.288  56.838 -52.905  1.00  0.00     0.169 HD
HETATM   36  O   UNL     1     -43.552  55.615 -51.025  1.00  0.00    -0.268 OA
BRANCH  34  37
HETATM   37  C   UNL     1     -41.368  54.785 -52.899  1.00  0.00     0.035 A 
HETATM   38  C   UNL     1     -40.573  53.951 -52.113  1.00  0.00     0.029 A 
HETATM   39  C   UNL     1     -40.205  52.684 -52.579  1.00  0.00     0.002 A 
HETATM   40  C   UNL     1     -40.634  52.239 -53.828  1.00  0.00     0.000 A 
HETATM   41  C   UNL     1     -41.428  53.065 -54.619  1.00  0.00     0.002 A 
HETATM   42  C   UNL     1     -41.788  54.333 -54.158  1.00  0.00     0.029 A 
ENDBRANCH  34  37
ENDBRANCH   2  33
TORSDOF 9
ENDMDL
MODEL 6
REMARK VINA RESULT:      -7.9      2.348      7.063
REMARK  9 active torsions:
REMARK  status: ('A' for Active; 'I' for Inactive)
REMARK    1  A    between atoms: C_2  and  O_3 
REMARK    2  A    between atoms: O_3  and  C_4 
REMARK    3  A    between atoms: C_7  and  C_8 
REMARK    4  A    between atoms: C_9  and  C_10 
REMARK       I    between atoms: C_10  and  N_11 
REMARK    5  A    between atoms: N_11  and  C_12 
REMARK    6  A    between atoms: C_22  and  S_23 
REMARK    7  A    between atoms: S_23  and  C_24 
REMARK    8  A    between atoms: C_24  and  C_25 
REMARK       I    between atoms: C_25  and  N_26 
REMARK    9  A    between atoms: N_26  and  C_27 
ROOT
HETATM    1  C   UNL     1     -43.820  57.804 -52.037  1.00  0.00     0.104 C 
HETATM    2  C   UNL     1     -42.515  57.283 -51.431  1.00  0.00     0.046 C 
HETATM    3  C   UNL     1     -41.639  58.132 -50.842  1.00  0.00     0.019 C 
HETATM    4  C   UNL     1     -40.234  57.779 -50.423  1.00  0.00     0.069 C 
HETATM    5  N   UNL     1     -42.025  59.438 -50.598  1.00  0.00    -0.353 N 
HETATM    6  C   UNL     1     -43.301  59.937 -50.798  1.00  0.00     0.087 C 
HETATM    7  C   UNL     1     -44.193  59.185 -51.503  1.00  0.00     0.055 C 
HETATM    8  C   UNL     1     -45.544  59.786 -51.858  1.00  0.00     0.019 C 
HETATM    9  N   UNL     1     -46.664  60.283 -52.151  1.00  0.00    -0.096 N 
HETATM   10  H   UNL     1     -41.300  60.087 -50.300  1.00  0.00     0.166 HD
ENDROOT
BRANCH   1  11
HETATM   11  C   UNL     1     -43.767  57.835 -53.566  1.00  0.00    -0.044 A 
HETATM   12  C   UNL     1     -42.636  58.336 -54.225  1.00  0.00     0.011 A 
HETATM   13  C   UNL     1     -42.572  58.331 -55.623  1.00  0.00     0.037 A 
HETATM   14  C   UNL     1     -43.625  57.824 -56.386  1.00  0.00     0.068 A 
HETATM   15  C   UNL     1     -44.759  57.337 -55.740  1.00  0.00     0.037 A 
HETATM   16  C   UNL     1     -44.829  57.340 -54.343  1.00  0.00     0.011 A 
BRANCH  14  17
HETATM   17  O   UNL     1     -43.427  57.864 -57.739  1.00  0.00    -0.352 OA
BRANCH  17  18
HETATM   18  C   UNL     1     -44.185  56.949 -58.528  1.00  0.00     0.171 C 
HETATM   19  C   UNL     1     -43.281  55.786 -58.897  1.00  0.00     0.034 C 
ENDBRANCH  17  18
ENDBRANCH  14  17
ENDBRANCH   1  11
BRANCH   6  20
HETATM   20  S   UNL     1     -43.838  61.495 -50.162  1.00  0.00    -0.102 SA
BRANCH  20  21
HETATM   21  C   UNL     1     -43.110  62.724 -51.263  1.00  0.00     0.184 C 
BRANCH  21  22
HETATM   22  C   UNL     1     -43.895  62.782 -52.561  1.00  0.00     0.231 C 
HETATM   23  N   UNL     1     -43.315  62.017 -53.559  1.00  0.00    -0.327 N 
HETATM   24  H   UNL     1     -42.370  61.697 -53.373  1.00  0.00     0.169 HD
HETATM   25  O   UNL     1     -44.913  63.465 -52.638  1.00  0.00    -0.272 OA
BRANCH  23  26
HETATM   26  C   UNL     1     -43.808  61.748 -54.847  1.00  0.00     0.034 A 
HETATM   27  C   UNL     1     -45.072  61.220 -55.102  1.00  0.00     0.030 A 
HETATM   28  C   UNL     1     -45.469  60.946 -56.417  1.00  0.00     0.009 A 
HETATM   29  C   UNL     1     -44.607  61.192 -57.491  1.00  0.00    -0.062 A 
HETATM   30  C   UNL     1     -45.049  60.923 -58.899  1.00  0.00     0.048 C 
HETATM   31  C   UNL     1     -43.349  61.740 -57.235  1.00  0.00     0.009 A 
HETATM   32  C   UNL     1     -42.950  62.006 -55.923  1.00  0.00     0.030 A 
ENDBRANCH  23  26
ENDBRANCH  21  22
ENDBRANCH  20  21
ENDBRANCH   6  20
BRANCH   2  33
HETATM   33  C   UNL     1     -42.294  55.805 -51.489  1.00  0.00     0.255 C 
HETATM   34  N   UNL     1     -41.305  55.461 -52.392  1.00  0.00    -0.323 N 
HETATM   35  H   UNL     1     -40.845  56.220 -52.876  1.00  0.00     0.169 HD
HETATM   36  O   UNL     1     -42.898  55.055 -50.736  1.00  0.00    -0.268 OA
BRANCH  34  37
HETATM   37  C   UNL     1     -40.886  54.168 -52.769  1.00  0.00     0.035 A 
HETATM   38  C   UNL     1     -41.064  53.629 -54.043  1.00  0.00     0.029 A 
HETATM   39  C   UNL     1     -40.597  52.344 -54.336  1.00  0.00     0.002 A 
HETATM   40  C   UNL     1     -39.944  51.591 -53.361  1.00  0.00     0.000 A 
HETATM   41  C   UNL     1     -39.763  52.121 -52.087  1.00  0.00     0.002 A 
HETATM   42  C   UNL     1     -40.236  53.401 -51.792  1.00  0.00     0.029 A 
ENDBRANCH  34  37
ENDBRANCH   2  33
TORSDOF 9
ENDMDL
MODEL 7
REMARK VINA RESULT:      -7.8      3.311      5.219
REMARK  9 active torsions:
REMARK  status: ('A' for Active; 'I' for Inactive)
REMARK    1  A    between atoms: C_2  and  O_3 
REMARK    2  A    between atoms: O_3  and  C_4 
REMARK    3  A    between atoms: C_7  and  C_8 
REMARK    4  A    between atoms: C_9  and  C_10 
REMARK       I    between atoms: C_10  and  N_11 
REMARK    5  A    between atoms: N_11  and  C_12 
REMARK    6  A    between atoms: C_22  and  S_23 
REMARK    7  A    between atoms: S_23  and  C_24 
REMARK    8  A    between atoms: C_24  and  C_25 
REMARK       I    between atoms: C_25  and  N_26 
REMARK    9  A    between atoms: N_26  and  C_27 
ROOT
HETATM    1  C   UNL     1     -42.276  57.360 -54.347  1.00  0.00     0.104 C 
HETATM    2  C   UNL     1     -43.298  57.705 -55.433  1.00  0.00     0.046 C 
HETATM    3  C   UNL     1     -44.601  57.896 -55.119  1.00  0.00     0.019 C 
HETATM    4  C   UNL     1     -45.728  58.008 -56.116  1.00  0.00     0.069 C 
HETATM    5  N   UNL     1     -44.969  57.992 -53.789  1.00  0.00    -0.353 N 
HETATM    6  C   UNL     1     -44.084  58.031 -52.724  1.00  0.00     0.087 C 
HETATM    7  C   UNL     1     -42.777  57.715 -52.949  1.00  0.00     0.055 C 
HETATM    8  C   UNL     1     -41.832  57.607 -51.764  1.00  0.00     0.019 C 
HETATM    9  N   UNL     1     -41.048  57.518 -50.781  1.00  0.00    -0.096 N 
HETATM   10  H   UNL     1     -45.966  57.979 -53.582  1.00  0.00     0.166 HD
ENDROOT
BRANCH   1  11
HETATM   11  C   UNL     1     -41.868  55.886 -54.394  1.00  0.00    -0.044 A 
HETATM   12  C   UNL     1     -40.567  55.523 -54.768  1.00  0.00     0.011 A 
HETATM   13  C   UNL     1     -40.182  54.178 -54.775  1.00  0.00     0.037 A 
HETATM   14  C   UNL     1     -41.080  53.175 -54.407  1.00  0.00     0.068 A 
HETATM   15  C   UNL     1     -42.379  53.525 -54.046  1.00  0.00     0.037 A 
HETATM   16  C   UNL     1     -42.770  54.868 -54.038  1.00  0.00     0.011 A 
BRANCH  14  17
HETATM   17  O   UNL     1     -40.571  51.905 -54.442  1.00  0.00    -0.352 OA
BRANCH  17  18
HETATM   18  C   UNL     1     -39.378  51.669 -53.697  1.00  0.00     0.171 C 
HETATM   19  C   UNL     1     -39.746  51.620 -52.224  1.00  0.00     0.034 C 
ENDBRANCH  17  18
ENDBRANCH  14  17
ENDBRANCH   1  11
BRANCH   6  20
HETATM   20  S   UNL     1     -44.565  58.492 -51.088  1.00  0.00    -0.102 SA
BRANCH  20  21
HETATM   21  C   UNL     1     -44.939  60.253 -51.190  1.00  0.00     0.184 C 
BRANCH  21  22
HETATM   22  C   UNL     1     -44.385  60.969 -49.970  1.00  0.00     0.231 C 
HETATM   23  N   UNL     1     -45.359  61.212 -49.018  1.00  0.00    -0.327 N 
HETATM   24  H   UNL     1     -46.317  61.078 -49.325  1.00  0.00     0.169 HD
HETATM   25  O   UNL     1     -43.196  61.275 -49.921  1.00  0.00    -0.272 OA
BRANCH  23  26
HETATM   26  C   UNL     1     -45.201  61.754 -47.731  1.00  0.00     0.034 A 
HETATM   27  C   UNL     1     -45.005  60.989 -46.583  1.00  0.00     0.030 A 
HETATM   28  C   UNL     1     -44.895  61.611 -45.333  1.00  0.00     0.009 A 
HETATM   29  C   UNL     1     -44.985  63.002 -45.214  1.00  0.00    -0.062 A 
HETATM   30  C   UNL     1     -44.838  63.664 -43.875  1.00  0.00     0.048 C 
HETATM   31  C   UNL     1     -45.161  63.768 -46.368  1.00  0.00     0.009 A 
HETATM   32  C   UNL     1     -45.278  63.148 -47.614  1.00  0.00     0.030 A 
ENDBRANCH  23  26
ENDBRANCH  21  22
ENDBRANCH  20  21
ENDBRANCH   6  20
BRANCH   2  33
HETATM   33  C   UNL     1     -42.769  57.858 -56.823  1.00  0.00     0.255 C 
HETATM   34  N   UNL     1     -42.648  59.185 -57.192  1.00  0.00    -0.323 N 
HETATM   35  H   UNL     1     -42.901  59.877 -56.498  1.00  0.00     0.169 HD
HETATM   36  O   UNL     1     -42.428  56.879 -57.471  1.00  0.00    -0.268 OA
BRANCH  34  37
HETATM   37  C   UNL     1     -42.265  59.706 -58.445  1.00  0.00     0.035 A 
HETATM   38  C   UNL     1     -42.461  59.048 -59.659  1.00  0.00     0.029 A 
HETATM   39  C   UNL     1     -42.067  59.650 -60.859  1.00  0.00     0.002 A 
HETATM   40  C   UNL     1     -41.483  60.914 -60.855  1.00  0.00     0.000 A 
HETATM   41  C   UNL     1     -41.284  61.579 -59.649  1.00  0.00     0.002 A 
HETATM   42  C   UNL     1     -41.668  60.975 -58.450  1.00  0.00     0.029 A 
ENDBRANCH  34  37
ENDBRANCH   2  33
TORSDOF 9
ENDMDL
MODEL 8
REMARK VINA RESULT:      -7.7      2.674      5.194
REMARK  9 active torsions:
REMARK  status: ('A' for Active; 'I' for Inactive)
REMARK    1  A    between atoms: C_2  and  O_3 
REMARK    2  A    between atoms: O_3  and  C_4 
REMARK    3  A    between atoms: C_7  and  C_8 
REMARK    4  A    between atoms: C_9  and  C_10 
REMARK       I    between atoms: C_10  and  N_11 
REMARK    5  A    between atoms: N_11  and  C_12 
REMARK    6  A    between atoms: C_22  and  S_23 
REMARK    7  A    between atoms: S_23  and  C_24 
REMARK    8  A    between atoms: C_24  and  C_25 
REMARK       I    between atoms: C_25  and  N_26 
REMARK    9  A    between atoms: N_26  and  C_27 
ROOT
HETATM    1  C   UNL     1     -42.368  57.289 -54.157  1.00  0.00     0.104 C 
HETATM    2  C   UNL     1     -43.372  57.618 -55.264  1.00  0.00     0.046 C 
HETATM    3  C   UNL     1     -44.702  57.639 -55.008  1.00  0.00     0.019 C 
HETATM    4  C   UNL     1     -45.787  57.718 -56.052  1.00  0.00     0.069 C 
HETATM    5  N   UNL     1     -45.138  57.575 -53.696  1.00  0.00    -0.353 N 
HETATM    6  C   UNL     1     -44.312  57.613 -52.585  1.00  0.00     0.087 C 
HETATM    7  C   UNL     1     -42.969  57.462 -52.764  1.00  0.00     0.055 C 
HETATM    8  C   UNL     1     -42.072  57.350 -51.542  1.00  0.00     0.019 C 
HETATM    9  N   UNL     1     -41.328  57.259 -50.528  1.00  0.00    -0.096 N 
HETATM   10  H   UNL     1     -46.135  57.437 -53.545  1.00  0.00     0.166 HD
ENDROOT
BRANCH   1  11
HETATM   11  C   UNL     1     -41.796  55.878 -54.305  1.00  0.00    -0.044 A 
HETATM   12  C   UNL     1     -42.609  54.758 -54.082  1.00  0.00     0.011 A 
HETATM   13  C   UNL     1     -42.097  53.467 -54.252  1.00  0.00     0.037 A 
HETATM   14  C   UNL     1     -40.774  53.268 -54.652  1.00  0.00     0.068 A 
HETATM   15  C   UNL     1     -39.955  54.375 -54.863  1.00  0.00     0.037 A 
HETATM   16  C   UNL     1     -40.461  55.667 -54.693  1.00  0.00     0.011 A 
BRANCH  14  17
HETATM   17  O   UNL     1     -40.407  51.958 -54.796  1.00  0.00    -0.352 OA
BRANCH  17  18
HETATM   18  C   UNL     1     -39.685  51.370 -53.716  1.00  0.00     0.171 C 
HETATM   19  C   UNL     1     -39.469  49.902 -54.038  1.00  0.00     0.034 C 
ENDBRANCH  17  18
ENDBRANCH  14  17
ENDBRANCH   1  11
BRANCH   6  20
HETATM   20  S   UNL     1     -44.914  57.872 -50.944  1.00  0.00    -0.102 SA
BRANCH  20  21
HETATM   21  C   UNL     1     -44.927  59.663 -50.729  1.00  0.00     0.184 C 
BRANCH  21  22
HETATM   22  C   UNL     1     -45.395  60.331 -52.009  1.00  0.00     0.231 C 
HETATM   23  N   UNL     1     -44.350  60.907 -52.712  1.00  0.00    -0.327 N 
HETATM   24  H   UNL     1     -43.474  60.990 -52.208  1.00  0.00     0.169 HD
HETATM   25  O   UNL     1     -46.586  60.330 -52.307  1.00  0.00    -0.272 OA
BRANCH  23  26
HETATM   26  C   UNL     1     -44.384  61.515 -53.979  1.00  0.00     0.034 A 
HETATM   27  C   UNL     1     -45.282  61.167 -54.986  1.00  0.00     0.030 A 
HETATM   28  C   UNL     1     -45.220  61.801 -56.234  1.00  0.00     0.009 A 
HETATM   29  C   UNL     1     -44.260  62.785 -56.491  1.00  0.00    -0.062 A 
HETATM   30  C   UNL     1     -44.217  63.479 -57.820  1.00  0.00     0.048 C 
HETATM   31  C   UNL     1     -43.375  63.147 -55.473  1.00  0.00     0.009 A 
HETATM   32  C   UNL     1     -43.431  62.510 -54.231  1.00  0.00     0.030 A 
ENDBRANCH  23  26
ENDBRANCH  21  22
ENDBRANCH  20  21
ENDBRANCH   6  20
BRANCH   2  33
HETATM   33  C   UNL     1     -42.802  57.951 -56.606  1.00  0.00     0.255 C 
HETATM   34  N   UNL     1     -42.658  59.314 -56.789  1.00  0.00    -0.323 N 
HETATM   35  H   UNL     1     -42.925  59.908 -56.014  1.00  0.00     0.169 HD
HETATM   36  O   UNL     1     -42.450  57.064 -57.370  1.00  0.00    -0.268 OA
BRANCH  34  37
HETATM   37  C   UNL     1     -42.234  59.994 -57.948  1.00  0.00     0.035 A 
HETATM   38  C   UNL     1     -42.676  59.695 -59.236  1.00  0.00     0.029 A 
HETATM   39  C   UNL     1     -42.217  60.437 -60.330  1.00  0.00     0.002 A 
HETATM   40  C   UNL     1     -41.320  61.487 -60.143  1.00  0.00     0.000 A 
HETATM   41  C   UNL     1     -40.874  61.793 -58.861  1.00  0.00     0.002 A 
HETATM   42  C   UNL     1     -41.325  61.046 -57.770  1.00  0.00     0.029 A 
ENDBRANCH  34  37
ENDBRANCH   2  33
TORSDOF 9
ENDMDL
MODEL 9
REMARK VINA RESULT:      -7.7      3.157      5.007
REMARK  9 active torsions:
REMARK  status: ('A' for Active; 'I' for Inactive)
REMARK    1  A    between atoms: C_2  and  O_3 
REMARK    2  A    between atoms: O_3  and  C_4 
REMARK    3  A    between atoms: C_7  and  C_8 
REMARK    4  A    between atoms: C_9  and  C_10 
REMARK       I    between atoms: C_10  and  N_11 
REMARK    5  A    between atoms: N_11  and  C_12 
REMARK    6  A    between atoms: C_22  and  S_23 
REMARK    7  A    between atoms: S_23  and  C_24 
REMARK    8  A    between atoms: C_24  and  C_25 
REMARK       I    between atoms: C_25  and  N_26 
REMARK    9  A    between atoms: N_26  and  C_27 
ROOT
HETATM    1  C   UNL     1     -41.809  57.849 -54.396  1.00  0.00     0.104 C 
HETATM    2  C   UNL     1     -43.087  58.060 -55.211  1.00  0.00     0.046 C 
HETATM    3  C   UNL     1     -44.205  58.554 -54.629  1.00  0.00     0.019 C 
HETATM    4  C   UNL     1     -45.573  58.587 -55.262  1.00  0.00     0.069 C 
HETATM    5  N   UNL     1     -44.127  59.071 -53.348  1.00  0.00    -0.353 N 
HETATM    6  C   UNL     1     -42.953  59.242 -52.633  1.00  0.00     0.087 C 
HETATM    7  C   UNL     1     -41.814  58.653 -53.098  1.00  0.00     0.055 C 
HETATM    8  C   UNL     1     -40.558  58.707 -52.244  1.00  0.00     0.019 C 
HETATM    9  N   UNL     1     -39.515  58.753 -51.538  1.00  0.00    -0.096 N 
HETATM   10  H   UNL     1     -45.006  59.291 -52.882  1.00  0.00     0.166 HD
ENDROOT
BRANCH   1  11
HETATM   11  C   UNL     1     -41.564  56.370 -54.090  1.00  0.00    -0.044 A 
HETATM   12  C   UNL     1     -40.529  55.677 -54.732  1.00  0.00     0.011 A 
HETATM   13  C   UNL     1     -40.280  54.335 -54.425  1.00  0.00     0.037 A 
HETATM   14  C   UNL     1     -41.050  53.662 -53.475  1.00  0.00     0.068 A 
HETATM   15  C   UNL     1     -42.090  54.339 -52.842  1.00  0.00     0.037 A 
HETATM   16  C   UNL     1     -42.344  55.681 -53.145  1.00  0.00     0.011 A 
BRANCH  14  17
HETATM   17  O   UNL     1     -40.691  52.360 -53.260  1.00  0.00    -0.352 OA
BRANCH  17  18
HETATM   18  C   UNL     1     -40.020  51.693 -54.327  1.00  0.00     0.171 C 
HETATM   19  C   UNL     1     -40.225  50.198 -54.150  1.00  0.00     0.034 C 
ENDBRANCH  17  18
ENDBRANCH  14  17
ENDBRANCH   1  11
BRANCH   6  20
HETATM   20  S   UNL     1     -42.854  60.208 -51.157  1.00  0.00    -0.102 SA
BRANCH  20  21
HETATM   21  C   UNL     1     -44.540  60.256 -50.517  1.00  0.00     0.184 C 
BRANCH  21  22
HETATM   22  C   UNL     1     -44.706  61.452 -49.596  1.00  0.00     0.231 C 
HETATM   23  N   UNL     1     -45.669  61.236 -48.625  1.00  0.00    -0.327 N 
HETATM   24  H   UNL     1     -46.264  60.426 -48.769  1.00  0.00     0.169 HD
HETATM   25  O   UNL     1     -44.034  62.465 -49.771  1.00  0.00    -0.272 OA
BRANCH  23  26
HETATM   26  C   UNL     1     -46.019  62.066 -47.547  1.00  0.00     0.034 A 
HETATM   27  C   UNL     1     -47.136  62.897 -47.534  1.00  0.00     0.030 A 
HETATM   28  C   UNL     1     -47.389  63.722 -46.430  1.00  0.00     0.009 A 
HETATM   29  C   UNL     1     -46.526  63.728 -45.329  1.00  0.00    -0.062 A 
HETATM   30  C   UNL     1     -46.818  64.593 -44.138  1.00  0.00     0.048 C 
HETATM   31  C   UNL     1     -45.418  62.879 -45.335  1.00  0.00     0.009 A 
HETATM   32  C   UNL     1     -45.162  62.062 -46.439  1.00  0.00     0.030 A 
ENDBRANCH  23  26
ENDBRANCH  21  22
ENDBRANCH  20  21
ENDBRANCH   6  20
BRANCH   2  33
HETATM   33  C   UNL     1     -43.011  57.734 -56.669  1.00  0.00     0.255 C 
HETATM   34  N   UNL     1     -44.099  56.994 -57.095  1.00  0.00    -0.323 N 
HETATM   35  H   UNL     1     -44.807  56.784 -56.404  1.00  0.00     0.169 HD
HETATM   36  O   UNL     1     -42.103  58.174 -57.359  1.00  0.00    -0.268 OA
BRANCH  34  37
HETATM   37  C   UNL     1     -44.325  56.442 -58.372  1.00  0.00     0.035 A 
HETATM   38  C   UNL     1     -43.698  55.292 -58.850  1.00  0.00     0.029 A 
HETATM   39  C   UNL     1     -43.999  54.802 -60.125  1.00  0.00     0.002 A 
HETATM   40  C   UNL     1     -44.934  55.453 -60.928  1.00  0.00     0.000 A 
HETATM   41  C   UNL     1     -45.565  56.601 -60.460  1.00  0.00     0.002 A 
HETATM   42  C   UNL     1     -45.258  57.096 -59.191  1.00  0.00     0.029 A 
ENDBRANCH  34  37
ENDBRANCH   2  33
TORSDOF 9
ENDMDL
MODEL 10
REMARK VINA RESULT:      -7.7      2.897      8.846
REMARK  9 active torsions:
REMARK  status: ('A' for Active; 'I' for Inactive)
REMARK    1  A    between atoms: C_2  and  O_3 
REMARK    2  A    between atoms: O_3  and  C_4 
REMARK    3  A    between atoms: C_7  and  C_8 
REMARK    4  A    between atoms: C_9  and  C_10 
REMARK       I    between atoms: C_10  and  N_11 
REMARK    5  A    between atoms: N_11  and  C_12 
REMARK    6  A    between atoms: C_22  and  S_23 
REMARK    7  A    between atoms: S_23  and  C_24 
REMARK    8  A    between atoms: C_24  and  C_25 
REMARK       I    between atoms: C_25  and  N_26 
REMARK    9  A    between atoms: N_26  and  C_27 
ROOT
HETATM    1  C   UNL     1     -42.162  57.422 -56.148  1.00  0.00     0.104 C 
HETATM    2  C   UNL     1     -42.231  55.975 -55.659  1.00  0.00     0.046 C 
HETATM    3  C   UNL     1     -42.962  55.052 -56.328  1.00  0.00     0.019 C 
HETATM    4  C   UNL     1     -43.292  53.670 -55.823  1.00  0.00     0.069 C 
HETATM    5  N   UNL     1     -43.472  55.370 -57.575  1.00  0.00    -0.353 N 
HETATM    6  C   UNL     1     -43.193  56.535 -58.270  1.00  0.00     0.087 C 
HETATM    7  C   UNL     1     -42.577  57.557 -57.612  1.00  0.00     0.055 C 
HETATM    8  C   UNL     1     -42.405  58.891 -58.320  1.00  0.00     0.019 C 
HETATM    9  N   UNL     1     -42.260  59.996 -58.908  1.00  0.00    -0.096 N 
HETATM   10  H   UNL     1     -44.141  54.719 -57.981  1.00  0.00     0.166 HD
ENDROOT
BRANCH   1  11
HETATM   11  C   UNL     1     -43.006  58.360 -55.281  1.00  0.00    -0.044 A 
HETATM   12  C   UNL     1     -42.389  59.338 -54.490  1.00  0.00     0.011 A 
HETATM   13  C   UNL     1     -43.161  60.220 -53.725  1.00  0.00     0.037 A 
HETATM   14  C   UNL     1     -44.555  60.147 -53.739  1.00  0.00     0.068 A 
HETATM   15  C   UNL     1     -45.176  59.168 -54.512  1.00  0.00     0.037 A 
HETATM   16  C   UNL     1     -44.410  58.284 -55.277  1.00  0.00     0.011 A 
BRANCH  14  17
HETATM   17  O   UNL     1     -45.188  61.076 -52.960  1.00  0.00    -0.352 OA
BRANCH  17  18
HETATM   18  C   UNL     1     -46.357  60.645 -52.265  1.00  0.00     0.171 C 
HETATM   19  C   UNL     1     -45.923  60.059 -50.933  1.00  0.00     0.034 C 
ENDBRANCH  17  18
ENDBRANCH  14  17
ENDBRANCH   1  11
BRANCH   6  20
HETATM   20  S   UNL     1     -43.580  56.753 -59.980  1.00  0.00    -0.102 SA
BRANCH  20  21
HETATM   21  C   UNL     1     -44.984  55.663 -60.284  1.00  0.00     0.184 C 
BRANCH  21  22
HETATM   22  C   UNL     1     -46.282  56.418 -60.050  1.00  0.00     0.231 C 
HETATM   23  N   UNL     1     -46.063  57.704 -59.588  1.00  0.00    -0.327 N 
HETATM   24  H   UNL     1     -45.118  57.905 -59.277  1.00  0.00     0.169 HD
HETATM   25  O   UNL     1     -47.361  55.870 -60.259  1.00  0.00    -0.272 OA
BRANCH  23  26
HETATM   26  C   UNL     1     -47.008  58.720 -59.364  1.00  0.00     0.034 A 
HETATM   27  C   UNL     1     -47.434  59.122 -58.100  1.00  0.00     0.030 A 
HETATM   28  C   UNL     1     -48.410  60.118 -57.969  1.00  0.00     0.009 A 
HETATM   29  C   UNL     1     -48.973  60.721 -59.098  1.00  0.00    -0.062 A 
HETATM   30  C   UNL     1     -49.997  61.808 -58.951  1.00  0.00     0.048 C 
HETATM   31  C   UNL     1     -48.529  60.332 -60.364  1.00  0.00     0.009 A 
HETATM   32  C   UNL     1     -47.562  59.333 -60.495  1.00  0.00     0.030 A 
ENDBRANCH  23  26
ENDBRANCH  21  22
ENDBRANCH  20  21
ENDBRANCH   6  20
BRANCH   2  33
HETATM   33  C   UNL     1     -41.421  55.640 -54.446  1.00  0.00     0.255 C 
HETATM   34  N   UNL     1     -42.198  55.568 -53.304  1.00  0.00    -0.323 N 
HETATM   35  H   UNL     1     -43.191  55.722 -53.418  1.00  0.00     0.169 HD
HETATM   36  O   UNL     1     -40.228  55.391 -54.544  1.00  0.00    -0.268 OA
BRANCH  34  37
HETATM   37  C   UNL     1     -41.771  55.358 -51.977  1.00  0.00     0.035 A 
HETATM   38  C   UNL     1     -41.615  56.375 -51.036  1.00  0.00     0.029 A 
HETATM   39  C   UNL     1     -41.207  56.072 -49.732  1.00  0.00     0.002 A 
HETATM   40  C   UNL     1     -40.959  54.753 -49.359  1.00  0.00     0.000 A 
HETATM   41  C   UNL     1     -41.112  53.731 -50.292  1.00  0.00     0.002 A 
HETATM   42  C   UNL     1     -41.511  54.034 -51.596  1.00  0.00     0.029 A 
ENDBRANCH  34  37
ENDBRANCH   2  33
TORSDOF 9
ENDMDL
