MODEL 1
REMARK VINA RESULT:      -8.9      0.000      0.000
REMARK  10 active torsions:
REMARK  status: ('A' for Active; 'I' for Inactive)
REMARK    1  A    between atoms: C_2  and  N_3 
REMARK    2  A    between atoms: N_3  and  C_5 
REMARK    3  A    between atoms: N_3  and  C_35 
REMARK    4  A    between atoms: C_5  and  C_6 
REMARK    5  A    between atoms: C_6  and  N_7 
REMARK       I    between atoms: N_7  and  C_8 
REMARK    6  A    between atoms: C_8  and  C_9 
REMARK    7  A    between atoms: N_15  and  C_16 
REMARK    8  A    between atoms: C_16  and  C_17 
REMARK       I    between atoms: C_17  and  N_18 
REMARK    9  A    between atoms: N_18  and  C_19 
REMARK   10  A    between atoms: C_21  and  C_22 
ROOT
HETATM    1  C   UNL     1     -44.093  57.296 -55.628  1.00  0.00     0.081 A 
HETATM    2  S   UNL     1     -44.696  58.199 -54.298  1.00  0.00    -0.063 SA
HETATM    3  C   UNL     1     -44.227  57.016 -53.177  1.00  0.00     0.116 A 
HETATM    4  C   UNL     1     -43.642  55.929 -53.788  1.00  0.00     0.075 A 
HETATM    5  C   UNL     1     -43.139  54.872 -52.917  1.00  0.00     0.262 C 
HETATM    6  O   UNL     1     -42.660  53.825 -53.346  1.00  0.00    -0.267 OA
HETATM    7  N   UNL     1     -43.209  55.173 -51.562  1.00  0.00    -0.299 N 
HETATM    8  C   UNL     1     -43.884  56.286 -51.101  1.00  0.00     0.214 C 
HETATM    9  N   UNL     1     -44.405  57.207 -51.847  1.00  0.00    -0.235 NA
HETATM   10  C   UNL     1     -43.575  56.063 -55.229  1.00  0.00    -0.021 A 
HETATM   11  C   UNL     1     -42.954  55.041 -56.133  1.00  0.00     0.051 C 
ENDROOT
BRANCH   7  12
HETATM   12  C   UNL     1     -42.550  54.279 -50.622  1.00  0.00     0.236 C 
BRANCH  12  13
HETATM   13  C   UNL     1     -41.119  54.733 -50.327  1.00  0.00     0.240 C 
HETATM   14  N   UNL     1     -40.071  53.992 -50.809  1.00  0.00    -0.326 N 
HETATM   15  H   UNL     1     -39.219  54.534 -50.912  1.00  0.00     0.169 HD
HETATM   16  O   UNL     1     -40.888  55.845 -49.846  1.00  0.00    -0.271 OA
BRANCH  14  17
HETATM   17  C   UNL     1     -39.997  52.633 -51.152  1.00  0.00     0.035 A 
HETATM   18  C   UNL     1     -39.910  52.188 -52.474  1.00  0.00     0.045 A 
HETATM   19  C   UNL     1     -39.876  50.814 -52.770  1.00  0.00     0.050 A 
HETATM   20  C   UNL     1     -39.934  49.889 -51.717  1.00  0.00     0.016 A 
HETATM   21  C   UNL     1     -40.060  50.329 -50.401  1.00  0.00     0.003 A 
HETATM   22  C   UNL     1     -40.115  51.696 -50.123  1.00  0.00     0.029 A 
BRANCH  19  23
HETATM   23  C   UNL     1     -39.801  50.324 -54.197  1.00  0.00     0.417 C 
HETATM   24  F   UNL     1     -39.680  51.326 -55.111  1.00  0.00    -0.166 F 
HETATM   25  F   UNL     1     -38.736  49.502 -54.405  1.00  0.00    -0.166 F 
HETATM   26  F   UNL     1     -40.903  49.615 -54.566  1.00  0.00    -0.166 F 
ENDBRANCH  19  23
ENDBRANCH  14  17
ENDBRANCH  12  13
ENDBRANCH   7  12
BRANCH   1  27
HETATM   27  C   UNL     1     -44.143  57.940 -56.933  1.00  0.00     0.259 C 
HETATM   28  N   UNL     1     -45.186  57.567 -57.764  1.00  0.00    -0.355 N 
HETATM   29  H   UNL     1     -46.000  57.154 -57.321  1.00  0.00     0.162 HD
HETATM   30  O   UNL     1     -43.315  58.753 -57.346  1.00  0.00    -0.267 OA
BRANCH  28  31
HETATM   31  C   UNL     1     -45.308  58.139 -59.093  1.00  0.00     0.150 C 
BRANCH  31  32
HETATM   32  C   UNL     1     -44.639  57.266 -60.179  1.00  0.00     0.254 C 
BRANCH  32  33
HETATM   33  N   UNL     1     -45.584  56.293 -60.874  1.00  0.00    -0.070 N 
HETATM   34  H   UNL     1     -45.528  56.543 -61.871  1.00  0.00     0.279 HD
BRANCH  33  35
HETATM   35  C   UNL     1     -47.048  56.471 -60.506  1.00  0.00     0.230 C 
HETATM   36  C   UNL     1     -47.912  56.688 -61.734  1.00  0.00     0.034 C 
ENDBRANCH  33  35
BRANCH  33  37
HETATM   37  C   UNL     1     -45.176  54.835 -60.799  1.00  0.00     0.230 C 
HETATM   38  C   UNL     1     -44.213  54.582 -59.653  1.00  0.00     0.034 C 
ENDBRANCH  33  37
ENDBRANCH  32  33
ENDBRANCH  31  32
ENDBRANCH  28  31
ENDBRANCH   1  27
TORSDOF 10
ENDMDL
MODEL 2
REMARK VINA RESULT:      -8.5      1.134      1.618
REMARK  10 active torsions:
REMARK  status: ('A' for Active; 'I' for Inactive)
REMARK    1  A    between atoms: C_2  and  N_3 
REMARK    2  A    between atoms: N_3  and  C_5 
REMARK    3  A    between atoms: N_3  and  C_35 
REMARK    4  A    between atoms: C_5  and  C_6 
REMARK    5  A    between atoms: C_6  and  N_7 
REMARK       I    between atoms: N_7  and  C_8 
REMARK    6  A    between atoms: C_8  and  C_9 
REMARK    7  A    between atoms: N_15  and  C_16 
REMARK    8  A    between atoms: C_16  and  C_17 
REMARK       I    between atoms: C_17  and  N_18 
REMARK    9  A    between atoms: N_18  and  C_19 
REMARK   10  A    between atoms: C_21  and  C_22 
ROOT
HETATM    1  C   UNL     1     -43.821  57.480 -55.660  1.00  0.00     0.081 A 
HETATM    2  S   UNL     1     -44.224  58.572 -54.399  1.00  0.00    -0.063 SA
HETATM    3  C   UNL     1     -43.985  57.401 -53.196  1.00  0.00     0.116 A 
HETATM    4  C   UNL     1     -43.628  56.182 -53.727  1.00  0.00     0.075 A 
HETATM    5  C   UNL     1     -43.332  55.110 -52.782  1.00  0.00     0.262 C 
HETATM    6  O   UNL     1     -43.070  53.962 -53.135  1.00  0.00    -0.267 OA
HETATM    7  N   UNL     1     -43.330  55.512 -51.451  1.00  0.00    -0.299 N 
HETATM    8  C   UNL     1     -43.771  56.764 -51.073  1.00  0.00     0.214 C 
HETATM    9  N   UNL     1     -44.110  57.714 -51.883  1.00  0.00    -0.235 NA
HETATM   10  C   UNL     1     -43.549  56.200 -55.174  1.00  0.00    -0.021 A 
HETATM   11  C   UNL     1     -43.146  55.017 -56.001  1.00  0.00     0.051 C 
ENDROOT
BRANCH   7  12
HETATM   12  C   UNL     1     -42.849  54.574 -50.449  1.00  0.00     0.236 C 
BRANCH  12  13
HETATM   13  C   UNL     1     -41.451  54.949 -49.956  1.00  0.00     0.240 C 
HETATM   14  N   UNL     1     -40.356  54.535 -50.671  1.00  0.00    -0.326 N 
HETATM   15  H   UNL     1     -39.541  55.120 -50.520  1.00  0.00     0.169 HD
HETATM   16  O   UNL     1     -41.292  55.777 -49.055  1.00  0.00    -0.271 OA
BRANCH  14  17
HETATM   17  C   UNL     1     -40.195  53.444 -51.539  1.00  0.00     0.035 A 
HETATM   18  C   UNL     1     -39.994  52.137 -51.085  1.00  0.00     0.045 A 
HETATM   19  C   UNL     1     -39.801  51.082 -51.993  1.00  0.00     0.050 A 
HETATM   20  C   UNL     1     -39.809  51.357 -53.369  1.00  0.00     0.016 A 
HETATM   21  C   UNL     1     -39.971  52.664 -53.824  1.00  0.00     0.003 A 
HETATM   22  C   UNL     1     -40.139  53.707 -52.910  1.00  0.00     0.029 A 
BRANCH  19  23
HETATM   23  C   UNL     1     -39.564  49.670 -51.511  1.00  0.00     0.417 C 
HETATM   24  F   UNL     1     -39.341  48.781 -52.519  1.00  0.00    -0.166 F 
HETATM   25  F   UNL     1     -38.481  49.579 -50.692  1.00  0.00    -0.166 F 
HETATM   26  F   UNL     1     -40.615  49.174 -50.803  1.00  0.00    -0.166 F 
ENDBRANCH  19  23
ENDBRANCH  14  17
ENDBRANCH  12  13
ENDBRANCH   7  12
BRANCH   1  27
HETATM   27  C   UNL     1     -43.756  58.030 -57.007  1.00  0.00     0.259 C 
HETATM   28  N   UNL     1     -44.778  57.670 -57.868  1.00  0.00    -0.355 N 
HETATM   29  H   UNL     1     -45.642  57.346 -57.445  1.00  0.00     0.162 HD
HETATM   30  O   UNL     1     -42.851  58.753 -57.426  1.00  0.00    -0.267 OA
BRANCH  28  31
HETATM   31  C   UNL     1     -44.789  58.151 -59.238  1.00  0.00     0.150 C 
BRANCH  31  32
HETATM   32  C   UNL     1     -44.256  57.102 -60.240  1.00  0.00     0.254 C 
BRANCH  32  33
HETATM   33  N   UNL     1     -45.336  56.247 -60.891  1.00  0.00    -0.070 N 
HETATM   34  H   UNL     1     -45.302  56.500 -61.889  1.00  0.00     0.279 HD
BRANCH  33  35
HETATM   35  C   UNL     1     -46.751  56.583 -60.449  1.00  0.00     0.230 C 
HETATM   36  C   UNL     1     -47.713  56.615 -61.623  1.00  0.00     0.034 C 
ENDBRANCH  33  35
BRANCH  33  37
HETATM   37  C   UNL     1     -45.091  54.752 -60.843  1.00  0.00     0.230 C 
HETATM   38  C   UNL     1     -44.411  54.338 -59.551  1.00  0.00     0.034 C 
ENDBRANCH  33  37
ENDBRANCH  32  33
ENDBRANCH  31  32
ENDBRANCH  28  31
ENDBRANCH   1  27
TORSDOF 10
ENDMDL
MODEL 3
REMARK VINA RESULT:      -8.5      1.656      2.496
REMARK  10 active torsions:
REMARK  status: ('A' for Active; 'I' for Inactive)
REMARK    1  A    between atoms: C_2  and  N_3 
REMARK    2  A    between atoms: N_3  and  C_5 
REMARK    3  A    between atoms: N_3  and  C_35 
REMARK    4  A    between atoms: C_5  and  C_6 
REMARK    5  A    between atoms: C_6  and  N_7 
REMARK       I    between atoms: N_7  and  C_8 
REMARK    6  A    between atoms: C_8  and  C_9 
REMARK    7  A    between atoms: N_15  and  C_16 
REMARK    8  A    between atoms: C_16  and  C_17 
REMARK       I    between atoms: C_17  and  N_18 
REMARK    9  A    between atoms: N_18  and  C_19 
REMARK   10  A    between atoms: C_21  and  C_22 
ROOT
HETATM    1  C   UNL     1     -43.060  58.583 -55.456  1.00  0.00     0.081 A 
HETATM    2  S   UNL     1     -43.048  59.446 -53.972  1.00  0.00    -0.063 SA
HETATM    3  C   UNL     1     -43.261  58.035 -53.055  1.00  0.00     0.116 A 
HETATM    4  C   UNL     1     -43.368  56.915 -53.849  1.00  0.00     0.075 A 
HETATM    5  C   UNL     1     -43.490  55.631 -53.167  1.00  0.00     0.262 C 
HETATM    6  O   UNL     1     -43.661  54.571 -53.765  1.00  0.00    -0.267 OA
HETATM    7  N   UNL     1     -43.353  55.707 -51.786  1.00  0.00    -0.299 N 
HETATM    8  C   UNL     1     -43.310  56.920 -51.128  1.00  0.00     0.214 C 
HETATM    9  N   UNL     1     -43.274  58.080 -51.700  1.00  0.00    -0.235 NA
HETATM   10  C   UNL     1     -43.277  57.217 -55.263  1.00  0.00    -0.021 A 
HETATM   11  C   UNL     1     -43.326  56.178 -56.341  1.00  0.00     0.051 C 
ENDROOT
BRANCH   7  12
HETATM   12  C   UNL     1     -43.254  54.466 -51.033  1.00  0.00     0.236 C 
BRANCH  12  13
HETATM   13  C   UNL     1     -41.921  54.366 -50.290  1.00  0.00     0.240 C 
HETATM   14  N   UNL     1     -40.767  54.187 -51.008  1.00  0.00    -0.326 N 
HETATM   15  H   UNL     1     -39.941  54.512 -50.517  1.00  0.00     0.169 HD
HETATM   16  O   UNL     1     -41.836  54.643 -49.090  1.00  0.00    -0.271 OA
BRANCH  14  17
HETATM   17  C   UNL     1     -40.562  53.620 -52.276  1.00  0.00     0.035 A 
HETATM   18  C   UNL     1     -40.399  52.246 -52.474  1.00  0.00     0.045 A 
HETATM   19  C   UNL     1     -40.159  51.727 -53.759  1.00  0.00     0.050 A 
HETATM   20  C   UNL     1     -40.081  52.611 -54.846  1.00  0.00     0.016 A 
HETATM   21  C   UNL     1     -40.204  53.985 -54.646  1.00  0.00     0.003 A 
HETATM   22  C   UNL     1     -40.419  54.488 -53.361  1.00  0.00     0.029 A 
BRANCH  19  23
HETATM   23  C   UNL     1     -39.963  50.246 -53.980  1.00  0.00     0.417 C 
HETATM   24  F   UNL     1     -40.962  49.667 -54.702  1.00  0.00    -0.166 F 
HETATM   25  F   UNL     1     -38.813  49.972 -54.654  1.00  0.00    -0.166 F 
HETATM   26  F   UNL     1     -39.893  49.547 -52.814  1.00  0.00    -0.166 F 
ENDBRANCH  19  23
ENDBRANCH  14  17
ENDBRANCH  12  13
ENDBRANCH   7  12
BRANCH   1  27
HETATM   27  C   UNL     1     -42.789  59.351 -56.663  1.00  0.00     0.259 C 
HETATM   28  N   UNL     1     -43.881  59.647 -57.462  1.00  0.00    -0.355 N 
HETATM   29  H   UNL     1     -44.794  59.616 -57.020  1.00  0.00     0.162 HD
HETATM   30  O   UNL     1     -41.670  59.717 -57.024  1.00  0.00    -0.267 OA
BRANCH  28  31
HETATM   31  C   UNL     1     -43.707  60.391 -58.697  1.00  0.00     0.150 C 
BRANCH  31  32
HETATM   32  C   UNL     1     -43.747  59.484 -59.947  1.00  0.00     0.254 C 
BRANCH  32  33
HETATM   33  N   UNL     1     -44.239  58.066 -59.681  1.00  0.00    -0.070 N 
HETATM   34  H   UNL     1     -44.259  57.985 -58.655  1.00  0.00     0.279 HD
BRANCH  33  35
HETATM   35  C   UNL     1     -43.284  56.976 -60.142  1.00  0.00     0.230 C 
HETATM   36  C   UNL     1     -41.843  57.452 -60.127  1.00  0.00     0.034 C 
ENDBRANCH  33  35
BRANCH  33  37
HETATM   37  C   UNL     1     -45.655  57.778 -60.139  1.00  0.00     0.230 C 
HETATM   38  C   UNL     1     -46.621  57.723 -58.969  1.00  0.00     0.034 C 
ENDBRANCH  33  37
ENDBRANCH  32  33
ENDBRANCH  31  32
ENDBRANCH  28  31
ENDBRANCH   1  27
TORSDOF 10
ENDMDL
MODEL 4
REMARK VINA RESULT:      -8.4      2.195      2.831
REMARK  10 active torsions:
REMARK  status: ('A' for Active; 'I' for Inactive)
REMARK    1  A    between atoms: C_2  and  N_3 
REMARK    2  A    between atoms: N_3  and  C_5 
REMARK    3  A    between atoms: N_3  and  C_35 
REMARK    4  A    between atoms: C_5  and  C_6 
REMARK    5  A    between atoms: C_6  and  N_7 
REMARK       I    between atoms: N_7  and  C_8 
REMARK    6  A    between atoms: C_8  and  C_9 
REMARK    7  A    between atoms: N_15  and  C_16 
REMARK    8  A    between atoms: C_16  and  C_17 
REMARK       I    between atoms: C_17  and  N_18 
REMARK    9  A    between atoms: N_18  and  C_19 
REMARK   10  A    between atoms: C_21  and  C_22 
ROOT
HETATM    1  C   UNL     1     -42.102  58.454 -54.442  1.00  0.00     0.081 A 
HETATM    2  S   UNL     1     -41.043  59.052 -53.231  1.00  0.00    -0.063 SA
HETATM    3  C   UNL     1     -41.483  57.839 -52.131  1.00  0.00     0.116 A 
HETATM    4  C   UNL     1     -42.441  56.996 -52.649  1.00  0.00     0.075 A 
HETATM    5  C   UNL     1     -42.854  55.871 -51.815  1.00  0.00     0.262 C 
HETATM    6  O   UNL     1     -43.747  55.093 -52.139  1.00  0.00    -0.267 OA
HETATM    7  N   UNL     1     -42.118  55.734 -50.644  1.00  0.00    -0.299 N 
HETATM    8  C   UNL     1     -41.224  56.703 -50.233  1.00  0.00     0.214 C 
HETATM    9  N   UNL     1     -40.889  57.750 -50.916  1.00  0.00    -0.235 NA
HETATM   10  C   UNL     1     -42.836  57.354 -53.997  1.00  0.00    -0.021 A 
HETATM   11  C   UNL     1     -43.833  56.581 -54.806  1.00  0.00     0.051 C 
ENDROOT
BRANCH   7  12
HETATM   12  C   UNL     1     -42.310  54.533 -49.846  1.00  0.00     0.236 C 
BRANCH  12  13
HETATM   13  C   UNL     1     -41.006  54.087 -49.183  1.00  0.00     0.240 C 
HETATM   14  N   UNL     1     -39.972  53.648 -49.971  1.00  0.00    -0.326 N 
HETATM   15  H   UNL     1     -39.067  53.746 -49.523  1.00  0.00     0.169 HD
HETATM   16  O   UNL     1     -40.791  54.300 -47.987  1.00  0.00    -0.271 OA
BRANCH  14  17
HETATM   17  C   UNL     1     -39.982  53.084 -51.256  1.00  0.00     0.035 A 
HETATM   18  C   UNL     1     -40.310  53.814 -52.402  1.00  0.00     0.045 A 
HETATM   19  C   UNL     1     -40.341  53.196 -53.664  1.00  0.00     0.050 A 
HETATM   20  C   UNL     1     -40.043  51.829 -53.760  1.00  0.00     0.016 A 
HETATM   21  C   UNL     1     -39.754  51.089 -52.614  1.00  0.00     0.003 A 
HETATM   22  C   UNL     1     -39.748  51.712 -51.364  1.00  0.00     0.029 A 
BRANCH  19  23
HETATM   23  C   UNL     1     -40.712  53.973 -54.905  1.00  0.00     0.417 C 
HETATM   24  F   UNL     1     -40.034  53.577 -56.018  1.00  0.00    -0.166 F 
HETATM   25  F   UNL     1     -42.032  53.852 -55.215  1.00  0.00    -0.166 F 
HETATM   26  F   UNL     1     -40.475  55.307 -54.779  1.00  0.00    -0.166 F 
ENDBRANCH  19  23
ENDBRANCH  14  17
ENDBRANCH  12  13
ENDBRANCH   7  12
BRANCH   1  27
HETATM   27  C   UNL     1     -42.047  59.110 -55.742  1.00  0.00     0.259 C 
HETATM   28  N   UNL     1     -42.155  58.287 -56.850  1.00  0.00    -0.355 N 
HETATM   29  H   UNL     1     -42.585  57.379 -56.707  1.00  0.00     0.162 HD
HETATM   30  O   UNL     1     -41.882  60.318 -55.911  1.00  0.00    -0.267 OA
BRANCH  28  31
HETATM   31  C   UNL     1     -42.091  58.845 -58.189  1.00  0.00     0.150 C 
BRANCH  31  32
HETATM   32  C   UNL     1     -43.489  59.129 -58.782  1.00  0.00     0.254 C 
BRANCH  32  33
HETATM   33  N   UNL     1     -44.096  57.962 -59.552  1.00  0.00    -0.070 N 
HETATM   34  H   UNL     1     -44.468  58.383 -60.414  1.00  0.00     0.279 HD
BRANCH  33  35
HETATM   35  C   UNL     1     -45.299  57.325 -58.875  1.00  0.00     0.230 C 
HETATM   36  C   UNL     1     -45.848  58.203 -57.766  1.00  0.00     0.034 C 
ENDBRANCH  33  35
BRANCH  33  37
HETATM   37  C   UNL     1     -43.107  56.908 -60.010  1.00  0.00     0.230 C 
HETATM   38  C   UNL     1     -43.663  55.506 -59.834  1.00  0.00     0.034 C 
ENDBRANCH  33  37
ENDBRANCH  32  33
ENDBRANCH  31  32
ENDBRANCH  28  31
ENDBRANCH   1  27
TORSDOF 10
ENDMDL
MODEL 5
REMARK VINA RESULT:      -8.4      1.253      2.037
REMARK  10 active torsions:
REMARK  status: ('A' for Active; 'I' for Inactive)
REMARK    1  A    between atoms: C_2  and  N_3 
REMARK    2  A    between atoms: N_3  and  C_5 
REMARK    3  A    between atoms: N_3  and  C_35 
REMARK    4  A    between atoms: C_5  and  C_6 
REMARK    5  A    between atoms: C_6  and  N_7 
REMARK       I    between atoms: N_7  and  C_8 
REMARK    6  A    between atoms: C_8  and  C_9 
REMARK    7  A    between atoms: N_15  and  C_16 
REMARK    8  A    between atoms: C_16  and  C_17 
REMARK       I    between atoms: C_17  and  N_18 
REMARK    9  A    between atoms: N_18  and  C_19 
REMARK   10  A    between atoms: C_21  and  C_22 
ROOT
HETATM    1  C   UNL     1     -43.820  57.606 -55.397  1.00  0.00     0.081 A 
HETATM    2  S   UNL     1     -44.484  58.428 -54.045  1.00  0.00    -0.063 SA
HETATM    3  C   UNL     1     -44.132  57.147 -52.990  1.00  0.00     0.116 A 
HETATM    4  C   UNL     1     -43.541  56.089 -53.643  1.00  0.00     0.075 A 
HETATM    5  C   UNL     1     -43.133  54.951 -52.825  1.00  0.00     0.262 C 
HETATM    6  O   UNL     1     -42.659  53.922 -53.301  1.00  0.00    -0.267 OA
HETATM    7  N   UNL     1     -43.287  55.152 -51.458  1.00  0.00    -0.299 N 
HETATM    8  C   UNL     1     -43.956  56.251 -50.959  1.00  0.00     0.214 C 
HETATM    9  N   UNL     1     -44.395  57.244 -51.664  1.00  0.00    -0.235 NA
HETATM   10  C   UNL     1     -43.371  56.328 -55.062  1.00  0.00    -0.021 A 
HETATM   11  C   UNL     1     -42.721  55.355 -55.999  1.00  0.00     0.051 C 
ENDROOT
BRANCH   7  12
HETATM   12  C   UNL     1     -42.723  54.166 -50.549  1.00  0.00     0.236 C 
BRANCH  12  13
HETATM   13  C   UNL     1     -41.339  54.588 -50.054  1.00  0.00     0.240 C 
HETATM   14  N   UNL     1     -40.234  53.903 -50.491  1.00  0.00    -0.326 N 
HETATM   15  H   UNL     1     -39.383  54.454 -50.444  1.00  0.00     0.169 HD
HETATM   16  O   UNL     1     -41.176  55.645 -49.438  1.00  0.00    -0.271 OA
BRANCH  14  17
HETATM   17  C   UNL     1     -40.106  52.587 -50.963  1.00  0.00     0.035 A 
HETATM   18  C   UNL     1     -40.038  52.272 -52.323  1.00  0.00     0.045 A 
HETATM   19  C   UNL     1     -39.947  50.936 -52.748  1.00  0.00     0.050 A 
HETATM   20  C   UNL     1     -39.929  49.915 -51.786  1.00  0.00     0.016 A 
HETATM   21  C   UNL     1     -40.037  50.223 -50.431  1.00  0.00     0.003 A 
HETATM   22  C   UNL     1     -40.150  51.554 -50.024  1.00  0.00     0.029 A 
BRANCH  19  23
HETATM   23  C   UNL     1     -39.891  50.585 -54.216  1.00  0.00     0.417 C 
HETATM   24  F   UNL     1     -39.877  51.672 -55.036  1.00  0.00    -0.166 F 
HETATM   25  F   UNL     1     -38.778  49.868 -54.534  1.00  0.00    -0.166 F 
HETATM   26  F   UNL     1     -40.952  49.831 -54.615  1.00  0.00    -0.166 F 
ENDBRANCH  19  23
ENDBRANCH  14  17
ENDBRANCH  12  13
ENDBRANCH   7  12
BRANCH   1  27
HETATM   27  C   UNL     1     -43.759  58.348 -56.649  1.00  0.00     0.259 C 
HETATM   28  N   UNL     1     -44.878  58.275 -57.463  1.00  0.00    -0.355 N 
HETATM   29  H   UNL     1     -45.751  58.012 -57.019  1.00  0.00     0.162 HD
HETATM   30  O   UNL     1     -42.784  58.995 -57.034  1.00  0.00    -0.267 OA
BRANCH  28  31
HETATM   31  C   UNL     1     -44.903  58.965 -58.740  1.00  0.00     0.150 C 
BRANCH  31  32
HETATM   32  C   UNL     1     -44.511  58.045 -59.919  1.00  0.00     0.254 C 
BRANCH  32  33
HETATM   33  N   UNL     1     -43.138  58.332 -60.513  1.00  0.00    -0.070 N 
HETATM   34  H   UNL     1     -43.272  58.254 -61.531  1.00  0.00     0.279 HD
BRANCH  33  35
HETATM   35  C   UNL     1     -42.081  57.292 -60.176  1.00  0.00     0.230 C 
HETATM   36  C   UNL     1     -42.702  56.017 -59.635  1.00  0.00     0.034 C 
ENDBRANCH  33  35
BRANCH  33  37
HETATM   37  C   UNL     1     -42.614  59.736 -60.279  1.00  0.00     0.230 C 
HETATM   38  C   UNL     1     -41.959  60.303 -61.525  1.00  0.00     0.034 C 
ENDBRANCH  33  37
ENDBRANCH  32  33
ENDBRANCH  31  32
ENDBRANCH  28  31
ENDBRANCH   1  27
TORSDOF 10
ENDMDL
MODEL 6
REMARK VINA RESULT:      -8.1      4.512      8.548
REMARK  10 active torsions:
REMARK  status: ('A' for Active; 'I' for Inactive)
REMARK    1  A    between atoms: C_2  and  N_3 
REMARK    2  A    between atoms: N_3  and  C_5 
REMARK    3  A    between atoms: N_3  and  C_35 
REMARK    4  A    between atoms: C_5  and  C_6 
REMARK    5  A    between atoms: C_6  and  N_7 
REMARK       I    between atoms: N_7  and  C_8 
REMARK    6  A    between atoms: C_8  and  C_9 
REMARK    7  A    between atoms: N_15  and  C_16 
REMARK    8  A    between atoms: C_16  and  C_17 
REMARK       I    between atoms: C_17  and  N_18 
REMARK    9  A    between atoms: N_18  and  C_19 
REMARK   10  A    between atoms: C_21  and  C_22 
ROOT
HETATM    1  C   UNL     1     -44.791  59.593 -51.647  1.00  0.00     0.081 A 
HETATM    2  S   UNL     1     -45.720  59.960 -53.043  1.00  0.00    -0.063 SA
HETATM    3  C   UNL     1     -44.614  59.200 -54.080  1.00  0.00     0.116 A 
HETATM    4  C   UNL     1     -43.532  58.691 -53.396  1.00  0.00     0.075 A 
HETATM    5  C   UNL     1     -42.542  57.956 -54.177  1.00  0.00     0.262 C 
HETATM    6  O   UNL     1     -41.503  57.515 -53.693  1.00  0.00    -0.267 OA
HETATM    7  N   UNL     1     -42.899  57.763 -55.507  1.00  0.00    -0.299 N 
HETATM    8  C   UNL     1     -43.996  58.393 -56.061  1.00  0.00     0.214 C 
HETATM    9  N   UNL     1     -44.854  59.110 -55.411  1.00  0.00    -0.235 NA
HETATM   10  C   UNL     1     -43.605  58.931 -51.969  1.00  0.00    -0.021 A 
HETATM   11  C   UNL     1     -42.578  58.450 -50.990  1.00  0.00     0.051 C 
ENDROOT
BRANCH   7  12
HETATM   12  C   UNL     1     -42.083  56.872 -56.317  1.00  0.00     0.236 C 
BRANCH  12  13
HETATM   13  C   UNL     1     -42.892  55.677 -56.823  1.00  0.00     0.240 C 
HETATM   14  N   UNL     1     -43.307  54.723 -55.930  1.00  0.00    -0.326 N 
HETATM   15  H   UNL     1     -44.123  54.211 -56.249  1.00  0.00     0.169 HD
HETATM   16  O   UNL     1     -43.350  55.655 -57.969  1.00  0.00    -0.271 OA
BRANCH  14  17
HETATM   17  C   UNL     1     -42.775  54.348 -54.686  1.00  0.00     0.035 A 
HETATM   18  C   UNL     1     -43.441  54.571 -53.478  1.00  0.00     0.045 A 
HETATM   19  C   UNL     1     -42.851  54.210 -52.254  1.00  0.00     0.050 A 
HETATM   20  C   UNL     1     -41.577  53.624 -52.259  1.00  0.00     0.016 A 
HETATM   21  C   UNL     1     -40.894  53.435 -53.459  1.00  0.00     0.003 A 
HETATM   22  C   UNL     1     -41.482  53.819 -54.666  1.00  0.00     0.029 A 
BRANCH  19  23
HETATM   23  C   UNL     1     -43.556  54.465 -50.942  1.00  0.00     0.417 C 
HETATM   24  F   UNL     1     -42.722  54.454 -49.865  1.00  0.00    -0.166 F 
HETATM   25  F   UNL     1     -44.177  55.676 -50.916  1.00  0.00    -0.166 F 
HETATM   26  F   UNL     1     -44.520  53.541 -50.677  1.00  0.00    -0.166 F 
ENDBRANCH  19  23
ENDBRANCH  14  17
ENDBRANCH  12  13
ENDBRANCH   7  12
BRANCH   1  27
HETATM   27  C   UNL     1     -45.373  59.949 -50.360  1.00  0.00     0.259 C 
HETATM   28  N   UNL     1     -45.145  61.241 -49.919  1.00  0.00    -0.355 N 
HETATM   29  H   UNL     1     -44.896  61.929 -50.622  1.00  0.00     0.162 HD
HETATM   30  O   UNL     1     -46.014  59.180 -49.644  1.00  0.00    -0.267 OA
BRANCH  28  31
HETATM   31  C   UNL     1     -45.667  61.683 -48.638  1.00  0.00     0.150 C 
BRANCH  31  32
HETATM   32  C   UNL     1     -44.709  61.372 -47.467  1.00  0.00     0.254 C 
BRANCH  32  33
HETATM   33  N   UNL     1     -45.372  61.362 -46.095  1.00  0.00    -0.070 N 
HETATM   34  H   UNL     1     -45.520  62.356 -45.870  1.00  0.00     0.279 HD
BRANCH  33  35
HETATM   35  C   UNL     1     -44.489  60.833 -44.976  1.00  0.00     0.230 C 
HETATM   36  C   UNL     1     -44.146  61.918 -43.972  1.00  0.00     0.034 C 
ENDBRANCH  33  35
BRANCH  33  37
HETATM   37  C   UNL     1     -46.749  60.728 -46.049  1.00  0.00     0.230 C 
HETATM   38  C   UNL     1     -46.665  59.223 -45.868  1.00  0.00     0.034 C 
ENDBRANCH  33  37
ENDBRANCH  32  33
ENDBRANCH  31  32
ENDBRANCH  28  31
ENDBRANCH   1  27
TORSDOF 10
ENDMDL
MODEL 7
REMARK VINA RESULT:      -7.6      2.869      3.808
REMARK  10 active torsions:
REMARK  status: ('A' for Active; 'I' for Inactive)
REMARK    1  A    between atoms: C_2  and  N_3 
REMARK    2  A    between atoms: N_3  and  C_5 
REMARK    3  A    between atoms: N_3  and  C_35 
REMARK    4  A    between atoms: C_5  and  C_6 
REMARK    5  A    between atoms: C_6  and  N_7 
REMARK       I    between atoms: N_7  and  C_8 
REMARK    6  A    between atoms: C_8  and  C_9 
REMARK    7  A    between atoms: N_15  and  C_16 
REMARK    8  A    between atoms: C_16  and  C_17 
REMARK       I    between atoms: C_17  and  N_18 
REMARK    9  A    between atoms: N_18  and  C_19 
REMARK   10  A    between atoms: C_21  and  C_22 
ROOT
HETATM    1  C   UNL     1     -43.257  58.344 -55.768  1.00  0.00     0.081 A 
HETATM    2  S   UNL     1     -43.324  59.303 -54.346  1.00  0.00    -0.063 SA
HETATM    3  C   UNL     1     -43.455  57.945 -53.338  1.00  0.00     0.116 A 
HETATM    4  C   UNL     1     -43.476  56.770 -54.055  1.00  0.00     0.075 A 
HETATM    5  C   UNL     1     -43.521  55.529 -53.290  1.00  0.00     0.262 C 
HETATM    6  O   UNL     1     -43.613  54.422 -53.817  1.00  0.00    -0.267 OA
HETATM    7  N   UNL     1     -43.409  55.706 -51.916  1.00  0.00    -0.299 N 
HETATM    8  C   UNL     1     -43.458  56.960 -51.341  1.00  0.00     0.214 C 
HETATM    9  N   UNL     1     -43.491  58.079 -51.990  1.00  0.00    -0.235 NA
HETATM   10  C   UNL     1     -43.384  56.983 -55.486  1.00  0.00    -0.021 A 
HETATM   11  C   UNL     1     -43.348  55.873 -56.492  1.00  0.00     0.051 C 
ENDROOT
BRANCH   7  12
HETATM   12  C   UNL     1     -43.239  54.527 -51.080  1.00  0.00     0.236 C 
BRANCH  12  13
HETATM   13  C   UNL     1     -41.868  54.514 -50.403  1.00  0.00     0.240 C 
HETATM   14  N   UNL     1     -40.743  54.362 -51.173  1.00  0.00    -0.326 N 
HETATM   15  H   UNL     1     -39.910  54.742 -50.735  1.00  0.00     0.169 HD
HETATM   16  O   UNL     1     -41.737  54.837 -49.219  1.00  0.00    -0.271 OA
BRANCH  14  17
HETATM   17  C   UNL     1     -40.575  53.760 -52.430  1.00  0.00     0.035 A 
HETATM   18  C   UNL     1     -40.464  52.377 -52.600  1.00  0.00     0.045 A 
HETATM   19  C   UNL     1     -40.260  51.822 -53.875  1.00  0.00     0.050 A 
HETATM   20  C   UNL     1     -40.164  52.678 -54.982  1.00  0.00     0.016 A 
HETATM   21  C   UNL     1     -40.234  54.060 -54.811  1.00  0.00     0.003 A 
HETATM   22  C   UNL     1     -40.415  54.598 -53.536  1.00  0.00     0.029 A 
BRANCH  19  23
HETATM   23  C   UNL     1     -40.121  50.330 -54.065  1.00  0.00     0.417 C 
HETATM   24  F   UNL     1     -39.023  49.973 -54.787  1.00  0.00    -0.166 F 
HETATM   25  F   UNL     1     -40.017  49.666 -52.881  1.00  0.00    -0.166 F 
HETATM   26  F   UNL     1     -41.186  49.783 -54.713  1.00  0.00    -0.166 F 
ENDBRANCH  19  23
ENDBRANCH  14  17
ENDBRANCH  12  13
ENDBRANCH   7  12
BRANCH   1  27
HETATM   27  C   UNL     1     -43.019  59.046 -57.022  1.00  0.00     0.259 C 
HETATM   28  N   UNL     1     -41.736  59.526 -57.225  1.00  0.00    -0.355 N 
HETATM   29  H   UNL     1     -40.994  59.093 -56.685  1.00  0.00     0.162 HD
HETATM   30  O   UNL     1     -43.878  59.262 -57.878  1.00  0.00    -0.267 OA
BRANCH  28  31
HETATM   31  C   UNL     1     -41.408  60.258 -58.435  1.00  0.00     0.150 C 
BRANCH  31  32
HETATM   32  C   UNL     1     -41.460  61.789 -58.236  1.00  0.00     0.254 C 
BRANCH  32  33
HETATM   33  N   UNL     1     -41.926  62.569 -59.459  1.00  0.00    -0.070 N 
HETATM   34  H   UNL     1     -42.429  63.381 -59.075  1.00  0.00     0.279 HD
BRANCH  33  35
HETATM   35  C   UNL     1     -42.950  61.839 -60.313  1.00  0.00     0.230 C 
HETATM   36  C   UNL     1     -44.370  62.213 -59.928  1.00  0.00     0.034 C 
ENDBRANCH  33  35
BRANCH  33  37
HETATM   37  C   UNL     1     -40.816  63.148 -60.315  1.00  0.00     0.230 C 
HETATM   38  C   UNL     1     -39.485  63.136 -59.587  1.00  0.00     0.034 C 
ENDBRANCH  33  37
ENDBRANCH  32  33
ENDBRANCH  31  32
ENDBRANCH  28  31
ENDBRANCH   1  27
TORSDOF 10
ENDMDL
MODEL 8
REMARK VINA RESULT:      -7.6      3.358      8.998
REMARK  10 active torsions:
REMARK  status: ('A' for Active; 'I' for Inactive)
REMARK    1  A    between atoms: C_2  and  N_3 
REMARK    2  A    between atoms: N_3  and  C_5 
REMARK    3  A    between atoms: N_3  and  C_35 
REMARK    4  A    between atoms: C_5  and  C_6 
REMARK    5  A    between atoms: C_6  and  N_7 
REMARK       I    between atoms: N_7  and  C_8 
REMARK    6  A    between atoms: C_8  and  C_9 
REMARK    7  A    between atoms: N_15  and  C_16 
REMARK    8  A    between atoms: C_16  and  C_17 
REMARK       I    between atoms: C_17  and  N_18 
REMARK    9  A    between atoms: N_18  and  C_19 
REMARK   10  A    between atoms: C_21  and  C_22 
ROOT
HETATM    1  C   UNL     1     -42.129  57.438 -53.470  1.00  0.00     0.081 A 
HETATM    2  S   UNL     1     -41.187  58.838 -53.785  1.00  0.00    -0.063 SA
HETATM    3  C   UNL     1     -42.121  59.263 -55.135  1.00  0.00     0.116 A 
HETATM    4  C   UNL     1     -43.125  58.351 -55.375  1.00  0.00     0.075 A 
HETATM    5  C   UNL     1     -44.036  58.646 -56.476  1.00  0.00     0.262 C 
HETATM    6  O   UNL     1     -44.926  57.876 -56.830  1.00  0.00    -0.267 OA
HETATM    7  N   UNL     1     -43.836  59.891 -57.060  1.00  0.00    -0.299 N 
HETATM    8  C   UNL     1     -42.741  60.671 -56.746  1.00  0.00     0.214 C 
HETATM    9  N   UNL     1     -41.873  60.404 -55.824  1.00  0.00    -0.235 NA
HETATM   10  C   UNL     1     -43.132  57.259 -54.423  1.00  0.00    -0.021 A 
HETATM   11  C   UNL     1     -44.142  56.151 -54.434  1.00  0.00     0.051 C 
ENDROOT
BRANCH   7  12
HETATM   12  C   UNL     1     -44.816  60.366 -58.025  1.00  0.00     0.236 C 
BRANCH  12  13
HETATM   13  C   UNL     1     -44.145  60.872 -59.302  1.00  0.00     0.240 C 
HETATM   14  N   UNL     1     -43.772  59.969 -60.265  1.00  0.00    -0.326 N 
HETATM   15  H   UNL     1     -43.708  60.382 -61.189  1.00  0.00     0.169 HD
HETATM   16  O   UNL     1     -44.115  62.076 -59.574  1.00  0.00    -0.271 OA
BRANCH  14  17
HETATM   17  C   UNL     1     -43.457  58.606 -60.161  1.00  0.00     0.035 A 
HETATM   18  C   UNL     1     -44.406  57.593 -60.329  1.00  0.00     0.045 A 
HETATM   19  C   UNL     1     -44.051  56.241 -60.179  1.00  0.00     0.050 A 
HETATM   20  C   UNL     1     -42.725  55.918 -59.853  1.00  0.00     0.016 A 
HETATM   21  C   UNL     1     -41.786  56.927 -59.646  1.00  0.00     0.003 A 
HETATM   22  C   UNL     1     -42.158  58.266 -59.776  1.00  0.00     0.029 A 
BRANCH  19  23
HETATM   23  C   UNL     1     -45.074  55.142 -60.341  1.00  0.00     0.417 C 
HETATM   24  F   UNL     1     -45.073  54.575 -61.579  1.00  0.00    -0.166 F 
HETATM   25  F   UNL     1     -44.875  54.119 -59.466  1.00  0.00    -0.166 F 
HETATM   26  F   UNL     1     -46.347  55.576 -60.131  1.00  0.00    -0.166 F 
ENDBRANCH  19  23
ENDBRANCH  14  17
ENDBRANCH  12  13
ENDBRANCH   7  12
BRANCH   1  27
HETATM   27  C   UNL     1     -41.808  56.691 -52.261  1.00  0.00     0.259 C 
HETATM   28  N   UNL     1     -41.112  55.507 -52.437  1.00  0.00    -0.355 N 
HETATM   29  H   UNL     1     -40.597  55.402 -53.305  1.00  0.00     0.162 HD
HETATM   30  O   UNL     1     -42.137  57.025 -51.123  1.00  0.00    -0.267 OA
BRANCH  28  31
HETATM   31  C   UNL     1     -40.765  54.682 -51.293  1.00  0.00     0.150 C 
BRANCH  31  32
HETATM   32  C   UNL     1     -41.185  53.206 -51.476  1.00  0.00     0.254 C 
BRANCH  32  33
HETATM   33  N   UNL     1     -40.034  52.210 -51.405  1.00  0.00    -0.070 N 
HETATM   34  H   UNL     1     -39.228  52.766 -51.088  1.00  0.00     0.279 HD
BRANCH  33  35
HETATM   35  C   UNL     1     -39.615  51.641 -52.751  1.00  0.00     0.230 C 
HETATM   36  C   UNL     1     -40.468  52.189 -53.880  1.00  0.00     0.034 C 
ENDBRANCH  33  35
BRANCH  33  37
HETATM   37  C   UNL     1     -40.198  51.109 -50.375  1.00  0.00     0.230 C 
HETATM   38  C   UNL     1     -39.603  49.799 -50.858  1.00  0.00     0.034 C 
ENDBRANCH  33  37
ENDBRANCH  32  33
ENDBRANCH  31  32
ENDBRANCH  28  31
ENDBRANCH   1  27
TORSDOF 10
ENDMDL
MODEL 9
REMARK VINA RESULT:      -7.5      2.595      3.490
REMARK  10 active torsions:
REMARK  status: ('A' for Active; 'I' for Inactive)
REMARK    1  A    between atoms: C_2  and  N_3 
REMARK    2  A    between atoms: N_3  and  C_5 
REMARK    3  A    between atoms: N_3  and  C_35 
REMARK    4  A    between atoms: C_5  and  C_6 
REMARK    5  A    between atoms: C_6  and  N_7 
REMARK       I    between atoms: N_7  and  C_8 
REMARK    6  A    between atoms: C_8  and  C_9 
REMARK    7  A    between atoms: N_15  and  C_16 
REMARK    8  A    between atoms: C_16  and  C_17 
REMARK       I    between atoms: C_17  and  N_18 
REMARK    9  A    between atoms: N_18  and  C_19 
REMARK   10  A    between atoms: C_21  and  C_22 
ROOT
HETATM    1  C   UNL     1     -43.185  58.386 -57.141  1.00  0.00     0.081 A 
HETATM    2  S   UNL     1     -43.454  59.941 -56.465  1.00  0.00    -0.063 SA
HETATM    3  C   UNL     1     -42.669  59.538 -55.017  1.00  0.00     0.116 A 
HETATM    4  C   UNL     1     -42.223  58.235 -55.017  1.00  0.00     0.075 A 
HETATM    5  C   UNL     1     -41.473  57.793 -53.846  1.00  0.00     0.262 C 
HETATM    6  O   UNL     1     -41.084  56.636 -53.700  1.00  0.00    -0.267 OA
HETATM    7  N   UNL     1     -41.201  58.804 -52.932  1.00  0.00    -0.299 N 
HETATM    8  C   UNL     1     -41.773  60.056 -53.045  1.00  0.00     0.214 C 
HETATM    9  N   UNL     1     -42.503  60.458 -54.035  1.00  0.00    -0.235 NA
HETATM   10  C   UNL     1     -42.537  57.534 -56.245  1.00  0.00    -0.021 A 
HETATM   11  C   UNL     1     -42.134  56.117 -56.522  1.00  0.00     0.051 C 
ENDROOT
BRANCH   7  12
HETATM   12  C   UNL     1     -40.289  58.515 -51.836  1.00  0.00     0.236 C 
BRANCH  12  13
HETATM   13  C   UNL     1     -40.988  58.628 -50.481  1.00  0.00     0.240 C 
HETATM   14  N   UNL     1     -41.422  57.487 -49.856  1.00  0.00    -0.326 N 
HETATM   15  H   UNL     1     -41.506  57.595 -48.850  1.00  0.00     0.169 HD
HETATM   16  O   UNL     1     -40.990  59.688 -49.848  1.00  0.00    -0.271 OA
BRANCH  14  17
HETATM   17  C   UNL     1     -41.775  56.236 -50.386  1.00  0.00     0.035 A 
HETATM   18  C   UNL     1     -40.870  55.178 -50.499  1.00  0.00     0.045 A 
HETATM   19  C   UNL     1     -41.261  53.954 -51.071  1.00  0.00     0.050 A 
HETATM   20  C   UNL     1     -42.577  53.809 -51.533  1.00  0.00     0.016 A 
HETATM   21  C   UNL     1     -43.471  54.875 -51.457  1.00  0.00     0.003 A 
HETATM   22  C   UNL     1     -43.063  56.092 -50.907  1.00  0.00     0.029 A 
BRANCH  19  23
HETATM   23  C   UNL     1     -40.284  52.811 -51.214  1.00  0.00     0.417 C 
HETATM   24  F   UNL     1     -40.306  52.228 -52.444  1.00  0.00    -0.166 F 
HETATM   25  F   UNL     1     -38.996  53.204 -51.013  1.00  0.00    -0.166 F 
HETATM   26  F   UNL     1     -40.516  51.809 -50.323  1.00  0.00    -0.166 F 
ENDBRANCH  19  23
ENDBRANCH  14  17
ENDBRANCH  12  13
ENDBRANCH   7  12
BRANCH   1  27
HETATM   27  C   UNL     1     -43.594  58.193 -58.525  1.00  0.00     0.259 C 
HETATM   28  N   UNL     1     -44.622  59.001 -58.980  1.00  0.00    -0.355 N 
HETATM   29  H   UNL     1     -44.791  59.861 -58.469  1.00  0.00     0.162 HD
HETATM   30  O   UNL     1     -43.113  57.354 -59.288  1.00  0.00    -0.267 OA
BRANCH  28  31
HETATM   31  C   UNL     1     -45.114  58.868 -60.340  1.00  0.00     0.150 C 
BRANCH  31  32
HETATM   32  C   UNL     1     -46.568  58.349 -60.398  1.00  0.00     0.254 C 
BRANCH  32  33
HETATM   33  N   UNL     1     -46.731  57.007 -61.103  1.00  0.00    -0.070 N 
HETATM   34  H   UNL     1     -46.200  57.107 -61.979  1.00  0.00     0.279 HD
BRANCH  33  35
HETATM   35  C   UNL     1     -48.154  56.699 -61.539  1.00  0.00     0.230 C 
HETATM   36  C   UNL     1     -48.312  56.793 -63.045  1.00  0.00     0.034 C 
ENDBRANCH  33  35
BRANCH  33  37
HETATM   37  C   UNL     1     -46.112  55.823 -60.386  1.00  0.00     0.230 C 
HETATM   38  C   UNL     1     -45.126  55.085 -61.273  1.00  0.00     0.034 C 
ENDBRANCH  33  37
ENDBRANCH  32  33
ENDBRANCH  31  32
ENDBRANCH  28  31
ENDBRANCH   1  27
TORSDOF 10
ENDMDL
MODEL 10
REMARK VINA RESULT:      -7.4      3.674      5.066
REMARK  10 active torsions:
REMARK  status: ('A' for Active; 'I' for Inactive)
REMARK    1  A    between atoms: C_2  and  N_3 
REMARK    2  A    between atoms: N_3  and  C_5 
REMARK    3  A    between atoms: N_3  and  C_35 
REMARK    4  A    between atoms: C_5  and  C_6 
REMARK    5  A    between atoms: C_6  and  N_7 
REMARK       I    between atoms: N_7  and  C_8 
REMARK    6  A    between atoms: C_8  and  C_9 
REMARK    7  A    between atoms: N_15  and  C_16 
REMARK    8  A    between atoms: C_16  and  C_17 
REMARK       I    between atoms: C_17  and  N_18 
REMARK    9  A    between atoms: N_18  and  C_19 
REMARK   10  A    between atoms: C_21  and  C_22 
ROOT
HETATM    1  C   UNL     1     -42.662  58.946 -59.000  1.00  0.00     0.081 A 
HETATM    2  S   UNL     1     -42.968  57.260 -58.897  1.00  0.00    -0.063 SA
HETATM    3  C   UNL     1     -42.601  57.211 -57.242  1.00  0.00     0.116 A 
HETATM    4  C   UNL     1     -42.224  58.445 -56.761  1.00  0.00     0.075 A 
HETATM    5  C   UNL     1     -41.946  58.541 -55.332  1.00  0.00     0.262 C 
HETATM    6  O   UNL     1     -41.536  59.569 -54.799  1.00  0.00    -0.267 OA
HETATM    7  N   UNL     1     -42.227  57.380 -54.621  1.00  0.00    -0.299 N 
HETATM    8  C   UNL     1     -42.544  56.198 -55.260  1.00  0.00     0.214 C 
HETATM    9  N   UNL     1     -42.727  56.063 -56.534  1.00  0.00    -0.235 NA
HETATM   10  C   UNL     1     -42.231  59.473 -57.782  1.00  0.00    -0.021 A 
HETATM   11  C   UNL     1     -41.897  60.911 -57.520  1.00  0.00     0.051 C 
ENDROOT
BRANCH   7  12
HETATM   12  C   UNL     1     -42.180  57.433 -53.168  1.00  0.00     0.236 C 
BRANCH  12  13
HETATM   13  C   UNL     1     -43.373  56.710 -52.542  1.00  0.00     0.240 C 
HETATM   14  N   UNL     1     -43.150  55.602 -51.764  1.00  0.00    -0.326 N 
HETATM   15  H   UNL     1     -43.898  55.428 -51.101  1.00  0.00     0.169 HD
HETATM   16  O   UNL     1     -44.501  57.210 -52.552  1.00  0.00    -0.271 OA
BRANCH  14  17
HETATM   17  C   UNL     1     -42.083  54.691 -51.762  1.00  0.00     0.035 A 
HETATM   18  C   UNL     1     -41.698  53.971 -52.897  1.00  0.00     0.045 A 
HETATM   19  C   UNL     1     -40.645  53.042 -52.837  1.00  0.00     0.050 A 
HETATM   20  C   UNL     1     -39.984  52.840 -51.617  1.00  0.00     0.016 A 
HETATM   21  C   UNL     1     -40.391  53.526 -50.474  1.00  0.00     0.003 A 
HETATM   22  C   UNL     1     -41.452  54.431 -50.543  1.00  0.00     0.029 A 
BRANCH  19  23
HETATM   23  C   UNL     1     -40.235  52.246 -54.054  1.00  0.00     0.417 C 
HETATM   24  F   UNL     1     -39.064  51.570 -53.893  1.00  0.00    -0.166 F 
HETATM   25  F   UNL     1     -41.160  51.308 -54.394  1.00  0.00    -0.166 F 
HETATM   26  F   UNL     1     -40.066  53.026 -55.157  1.00  0.00    -0.166 F 
ENDBRANCH  19  23
ENDBRANCH  14  17
ENDBRANCH  12  13
ENDBRANCH   7  12
BRANCH   1  27
HETATM   27  C   UNL     1     -42.946  59.587 -60.277  1.00  0.00     0.259 C 
HETATM   28  N   UNL     1     -41.924  60.342 -60.827  1.00  0.00    -0.355 N 
HETATM   29  H   UNL     1     -40.983  60.142 -60.506  1.00  0.00     0.162 HD
HETATM   30  O   UNL     1     -44.025  59.524 -60.869  1.00  0.00    -0.267 OA
BRANCH  28  31
HETATM   31  C   UNL     1     -42.120  61.036 -62.087  1.00  0.00     0.150 C 
BRANCH  31  32
HETATM   32  C   UNL     1     -42.131  62.573 -61.924  1.00  0.00     0.254 C 
BRANCH  32  33
HETATM   33  N   UNL     1     -41.852  63.058 -60.507  1.00  0.00    -0.070 N 
HETATM   34  H   UNL     1     -41.792  62.198 -59.944  1.00  0.00     0.279 HD
BRANCH  33  35
HETATM   35  C   UNL     1     -42.986  63.857 -59.885  1.00  0.00     0.230 C 
HETATM   36  C   UNL     1     -44.243  63.021 -59.733  1.00  0.00     0.034 C 
ENDBRANCH  33  35
BRANCH  33  37
HETATM   37  C   UNL     1     -40.521  63.760 -60.316  1.00  0.00     0.230 C 
HETATM   38  C   UNL     1     -39.536  62.894 -59.553  1.00  0.00     0.034 C 
ENDBRANCH  33  37
ENDBRANCH  32  33
ENDBRANCH  31  32
ENDBRANCH  28  31
ENDBRANCH   1  27
TORSDOF 10
ENDMDL
