MODEL 1
REMARK VINA RESULT:      -7.4      0.000      0.000
REMARK  4 active torsions:
REMARK  status: ('A' for Active; 'I' for Inactive)
REMARK    1  A    between atoms: C_6  and  C_7 
REMARK       I    between atoms: C_7  and  N_8 
REMARK    2  A    between atoms: N_8  and  C_9 
REMARK    3  A    between atoms: C_10  and  O_11 
REMARK    4  A    between atoms: N_13  and  C_15 
ROOT
HETATM    1  C   UNL     1     -40.745  54.776 -54.637  1.00  0.00     0.252 C 
HETATM    2  N   UNL     1     -41.884  54.737 -55.418  1.00  0.00    -0.348 N 
HETATM    3  O   UNL     1     -39.975  55.730 -54.700  1.00  0.00    -0.268 OA
HETATM    4  H   UNL     1     -42.414  53.876 -55.488  1.00  0.00     0.163 HD
ENDROOT
BRANCH   2   5
HETATM    5  C   UNL     1     -42.221  55.826 -56.332  1.00  0.00     0.141 C 
HETATM    6  C   UNL     1     -42.904  57.027 -55.652  1.00  0.00     0.168 C 
HETATM    7  C   UNL     1     -44.262  57.159 -56.342  1.00  0.00     0.269 C 
HETATM    8  N   UNL     1     -44.037  56.638 -57.760  1.00  0.00    -0.063 N 
HETATM    9  H   UNL     1     -44.946  56.317 -58.118  1.00  0.00     0.280 HD
HETATM   10  C   UNL     1     -43.162  55.425 -57.489  1.00  0.00     0.263 C 
BRANCH   6  11
HETATM   11  O   UNL     1     -42.130  58.209 -55.893  1.00  0.00    -0.392 OA
HETATM   12  H   UNL     1     -42.617  58.969 -55.519  1.00  0.00     0.210 HD
ENDBRANCH   6  11
BRANCH   8  13
HETATM   13  C   UNL     1     -43.461  57.636 -58.764  1.00  0.00     0.180 C 
HETATM   14  C   UNL     1     -42.727  56.867 -59.867  1.00  0.00     0.039 C 
HETATM   15  C   UNL     1     -44.580  58.460 -59.402  1.00  0.00     0.039 C 
ENDBRANCH   8  13
ENDBRANCH   2   5
BRANCH   1  16
HETATM   16  C   UNL     1     -40.474  53.625 -53.731  1.00  0.00     0.035 A 
HETATM   17  C   UNL     1     -40.523  53.732 -52.340  1.00  0.00     0.041 A 
HETATM   18  C   UNL     1     -40.238  52.619 -51.536  1.00  0.00     0.042 A 
HETATM   19  C   UNL     1     -39.902  51.375 -52.097  1.00  0.00    -0.018 A 
HETATM   20 CL   UNL     1     -40.297  52.871 -49.826  1.00  0.00    -0.084 Cl
HETATM   21  C   UNL     1     -39.564  50.187 -51.234  1.00  0.00     0.052 C 
HETATM   22  C   UNL     1     -39.818  51.299 -53.499  1.00  0.00     0.042 A 
HETATM   23  C   UNL     1     -40.106  52.406 -54.305  1.00  0.00     0.041 A 
HETATM   24 CL   UNL     1     -39.334  49.850 -54.309  1.00  0.00    -0.084 Cl
ENDBRANCH   1  16
TORSDOF 4
ENDMDL
MODEL 2
REMARK VINA RESULT:      -7.4      0.217      2.005
REMARK  4 active torsions:
REMARK  status: ('A' for Active; 'I' for Inactive)
REMARK    1  A    between atoms: C_6  and  C_7 
REMARK       I    between atoms: C_7  and  N_8 
REMARK    2  A    between atoms: N_8  and  C_9 
REMARK    3  A    between atoms: C_10  and  O_11 
REMARK    4  A    between atoms: N_13  and  C_15 
ROOT
HETATM    1  C   UNL     1     -40.806  54.869 -54.522  1.00  0.00     0.252 C 
HETATM    2  N   UNL     1     -41.777  54.755 -55.497  1.00  0.00    -0.348 N 
HETATM    3  O   UNL     1     -40.247  55.942 -54.317  1.00  0.00    -0.268 OA
HETATM    4  H   UNL     1     -42.103  53.837 -55.775  1.00  0.00     0.163 HD
ENDROOT
BRANCH   2   5
HETATM    5  C   UNL     1     -42.184  55.901 -56.307  1.00  0.00     0.141 C 
HETATM    6  C   UNL     1     -42.883  57.017 -55.508  1.00  0.00     0.168 C 
HETATM    7  C   UNL     1     -44.269  57.154 -56.140  1.00  0.00     0.269 C 
HETATM    8  N   UNL     1     -44.078  56.758 -57.602  1.00  0.00    -0.063 N 
HETATM    9  H   UNL     1     -44.987  56.434 -57.955  1.00  0.00     0.280 HD
HETATM   10  C   UNL     1     -43.152  55.560 -57.461  1.00  0.00     0.263 C 
BRANCH   6  11
HETATM   11  O   UNL     1     -42.160  58.242 -55.676  1.00  0.00    -0.392 OA
HETATM   12  H   UNL     1     -41.417  58.071 -56.288  1.00  0.00     0.210 HD
ENDBRANCH   6  11
BRANCH   8  13
HETATM   13  C   UNL     1     -43.573  57.855 -58.539  1.00  0.00     0.180 C 
HETATM   14  C   UNL     1     -42.849  57.206 -59.723  1.00  0.00     0.039 C 
HETATM   15  C   UNL     1     -44.743  58.683 -59.074  1.00  0.00     0.039 C 
ENDBRANCH   8  13
ENDBRANCH   2   5
BRANCH   1  16
HETATM   16  C   UNL     1     -40.448  53.652 -53.740  1.00  0.00     0.035 A 
HETATM   17  C   UNL     1     -40.114  52.439 -54.344  1.00  0.00     0.041 A 
HETATM   18  C   UNL     1     -39.805  51.320 -53.558  1.00  0.00     0.042 A 
HETATM   19  C   UNL     1     -39.819  51.384 -52.154  1.00  0.00    -0.018 A 
HETATM   20 CL   UNL     1     -39.437  49.860 -54.409  1.00  0.00    -0.084 Cl
HETATM   21  C   UNL     1     -39.519  50.173 -51.308  1.00  0.00     0.052 C 
HETATM   22  C   UNL     1     -40.198  52.604 -51.565  1.00  0.00     0.042 A 
HETATM   23  C   UNL     1     -40.501  53.724 -52.346  1.00  0.00     0.041 A 
HETATM   24 CL   UNL     1     -40.334  52.788 -49.851  1.00  0.00    -0.084 Cl
ENDBRANCH   1  16
TORSDOF 4
ENDMDL
MODEL 3
REMARK VINA RESULT:      -7.3      1.758      2.993
REMARK  4 active torsions:
REMARK  status: ('A' for Active; 'I' for Inactive)
REMARK    1  A    between atoms: C_6  and  C_7 
REMARK       I    between atoms: C_7  and  N_8 
REMARK    2  A    between atoms: N_8  and  C_9 
REMARK    3  A    between atoms: C_10  and  O_11 
REMARK    4  A    between atoms: N_13  and  C_15 
ROOT
HETATM    1  C   UNL     1     -42.612  54.837 -55.062  1.00  0.00     0.252 C 
HETATM    2  N   UNL     1     -42.162  55.249 -56.302  1.00  0.00    -0.348 N 
HETATM    3  O   UNL     1     -43.704  55.202 -54.639  1.00  0.00    -0.268 OA
HETATM    4  H   UNL     1     -41.196  55.089 -56.564  1.00  0.00     0.163 HD
ENDROOT
BRANCH   2   5
HETATM    5  C   UNL     1     -42.969  56.118 -57.156  1.00  0.00     0.141 C 
HETATM    6  C   UNL     1     -43.132  55.602 -58.598  1.00  0.00     0.168 C 
HETATM    7  C   UNL     1     -42.540  56.699 -59.485  1.00  0.00     0.269 C 
HETATM    8  N   UNL     1     -42.768  57.997 -58.714  1.00  0.00    -0.063 N 
HETATM    9  H   UNL     1     -42.060  58.672 -59.030  1.00  0.00     0.280 HD
HETATM   10  C   UNL     1     -42.430  57.558 -57.298  1.00  0.00     0.263 C 
BRANCH   6  11
HETATM   11  O   UNL     1     -44.527  55.455 -58.891  1.00  0.00    -0.392 OA
HETATM   12  H   UNL     1     -44.959  56.318 -58.740  1.00  0.00     0.210 HD
ENDBRANCH   6  11
BRANCH   8  13
HETATM   13  C   UNL     1     -44.142  58.647 -58.876  1.00  0.00     0.180 C 
HETATM   14  C   UNL     1     -44.097  60.061 -58.287  1.00  0.00     0.039 C 
HETATM   15  C   UNL     1     -44.518  58.744 -60.355  1.00  0.00     0.039 C 
ENDBRANCH   8  13
ENDBRANCH   2   5
BRANCH   1  16
HETATM   16  C   UNL     1     -41.728  53.952 -54.253  1.00  0.00     0.035 A 
HETATM   17  C   UNL     1     -41.287  52.708 -54.706  1.00  0.00     0.041 A 
HETATM   18  C   UNL     1     -40.473  51.908 -53.892  1.00  0.00     0.042 A 
HETATM   19  C   UNL     1     -40.076  52.329 -52.611  1.00  0.00    -0.018 A 
HETATM   20 CL   UNL     1     -40.011  50.372 -54.540  1.00  0.00    -0.084 Cl
HETATM   21  C   UNL     1     -39.227  51.456 -51.723  1.00  0.00     0.052 C 
HETATM   22  C   UNL     1     -40.564  53.568 -52.157  1.00  0.00     0.042 A 
HETATM   23  C   UNL     1     -41.373  54.371 -52.968  1.00  0.00     0.041 A 
HETATM   24 CL   UNL     1     -40.217  54.161 -50.570  1.00  0.00    -0.084 Cl
ENDBRANCH   1  16
TORSDOF 4
ENDMDL
MODEL 4
REMARK VINA RESULT:      -7.2      3.205      4.110
REMARK  4 active torsions:
REMARK  status: ('A' for Active; 'I' for Inactive)
REMARK    1  A    between atoms: C_6  and  C_7 
REMARK       I    between atoms: C_7  and  N_8 
REMARK    2  A    between atoms: N_8  and  C_9 
REMARK    3  A    between atoms: C_10  and  O_11 
REMARK    4  A    between atoms: N_13  and  C_15 
ROOT
HETATM    1  C   UNL     1     -40.919  55.106 -53.516  1.00  0.00     0.252 C 
HETATM    2  N   UNL     1     -41.418  56.050 -52.639  1.00  0.00    -0.348 N 
HETATM    3  O   UNL     1     -40.819  55.355 -54.713  1.00  0.00    -0.268 OA
HETATM    4  H   UNL     1     -41.659  55.778 -51.693  1.00  0.00     0.163 HD
ENDROOT
BRANCH   2   5
HETATM    5  C   UNL     1     -41.831  57.375 -53.097  1.00  0.00     0.141 C 
HETATM    6  C   UNL     1     -40.986  58.528 -52.524  1.00  0.00     0.168 C 
HETATM    7  C   UNL     1     -41.977  59.411 -51.766  1.00  0.00     0.269 C 
HETATM    8  N   UNL     1     -43.305  59.237 -52.500  1.00  0.00    -0.063 N 
HETATM    9  H   UNL     1     -44.056  59.449 -51.831  1.00  0.00     0.280 HD
HETATM   10  C   UNL     1     -43.294  57.741 -52.768  1.00  0.00     0.263 C 
BRANCH   6  11
HETATM   11  O   UNL     1     -40.412  59.274 -53.604  1.00  0.00    -0.392 OA
HETATM   12  H   UNL     1     -40.609  60.220 -53.454  1.00  0.00     0.210 HD
ENDBRANCH   6  11
BRANCH   8  13
HETATM   13  C   UNL     1     -43.514  60.112 -53.736  1.00  0.00     0.180 C 
HETATM   14  C   UNL     1     -44.981  60.022 -54.168  1.00  0.00     0.039 C 
HETATM   15  C   UNL     1     -43.183  61.571 -53.422  1.00  0.00     0.039 C 
ENDBRANCH   8  13
ENDBRANCH   2   5
BRANCH   1  16
HETATM   16  C   UNL     1     -40.522  53.779 -52.968  1.00  0.00     0.035 A 
HETATM   17  C   UNL     1     -40.133  52.714 -53.781  1.00  0.00     0.041 A 
HETATM   18  C   UNL     1     -39.788  51.479 -53.211  1.00  0.00     0.042 A 
HETATM   19  C   UNL     1     -39.820  51.279 -51.820  1.00  0.00    -0.018 A 
HETATM   20 CL   UNL     1     -39.352  50.219 -54.313  1.00  0.00    -0.084 Cl
HETATM   21  C   UNL     1     -39.481  49.944 -51.209  1.00  0.00     0.052 C 
HETATM   22  C   UNL     1     -40.254  52.352 -51.022  1.00  0.00     0.042 A 
HETATM   23  C   UNL     1     -40.594  53.587 -51.586  1.00  0.00     0.041 A 
HETATM   24 CL   UNL     1     -40.417  52.208 -49.306  1.00  0.00    -0.084 Cl
ENDBRANCH   1  16
TORSDOF 4
ENDMDL
MODEL 5
REMARK VINA RESULT:      -7.2      1.776      2.290
REMARK  4 active torsions:
REMARK  status: ('A' for Active; 'I' for Inactive)
REMARK    1  A    between atoms: C_6  and  C_7 
REMARK       I    between atoms: C_7  and  N_8 
REMARK    2  A    between atoms: N_8  and  C_9 
REMARK    3  A    between atoms: C_10  and  O_11 
REMARK    4  A    between atoms: N_13  and  C_15 
ROOT
HETATM    1  C   UNL     1     -42.699  54.866 -55.037  1.00  0.00     0.252 C 
HETATM    2  N   UNL     1     -42.197  55.249 -56.265  1.00  0.00    -0.348 N 
HETATM    3  O   UNL     1     -43.821  55.214 -54.683  1.00  0.00    -0.268 OA
HETATM    4  H   UNL     1     -41.215  55.107 -56.472  1.00  0.00     0.163 HD
ENDROOT
BRANCH   2   5
HETATM    5  C   UNL     1     -42.980  56.067 -57.189  1.00  0.00     0.141 C 
HETATM    6  C   UNL     1     -43.154  55.442 -58.586  1.00  0.00     0.168 C 
HETATM    7  C   UNL     1     -42.533  56.450 -59.555  1.00  0.00     0.269 C 
HETATM    8  N   UNL     1     -42.730  57.811 -58.890  1.00  0.00    -0.063 N 
HETATM    9  H   UNL     1     -42.004  58.440 -59.256  1.00  0.00     0.280 HD
HETATM   10  C   UNL     1     -42.405  57.477 -57.443  1.00  0.00     0.263 C 
BRANCH   6  11
HETATM   11  O   UNL     1     -44.551  55.307 -58.871  1.00  0.00    -0.392 OA
HETATM   12  H   UNL     1     -44.761  54.352 -58.902  1.00  0.00     0.210 HD
ENDBRANCH   6  11
BRANCH   8  13
HETATM   13  C   UNL     1     -44.087  58.480 -59.108  1.00  0.00     0.180 C 
HETATM   14  C   UNL     1     -44.285  59.565 -58.044  1.00  0.00     0.039 C 
HETATM   15  C   UNL     1     -44.147  59.132 -60.490  1.00  0.00     0.039 C 
ENDBRANCH   8  13
ENDBRANCH   2   5
BRANCH   1  16
HETATM   16  C   UNL     1     -41.836  54.033 -54.154  1.00  0.00     0.035 A 
HETATM   17  C   UNL     1     -41.432  54.449 -52.884  1.00  0.00     0.041 A 
HETATM   18  C   UNL     1     -40.602  53.631 -52.104  1.00  0.00     0.042 A 
HETATM   19  C   UNL     1     -40.159  52.380 -52.568  1.00  0.00    -0.018 A 
HETATM   20 CL   UNL     1     -40.137  54.258 -50.560  1.00  0.00    -0.084 Cl
HETATM   21  C   UNL     1     -39.240  51.515 -51.743  1.00  0.00     0.052 C 
HETATM   22  C   UNL     1     -40.543  51.998 -53.866  1.00  0.00     0.042 A 
HETATM   23  C   UNL     1     -41.376  52.809 -54.645  1.00  0.00     0.041 A 
HETATM   24 CL   UNL     1     -39.997  50.523 -54.584  1.00  0.00    -0.084 Cl
ENDBRANCH   1  16
TORSDOF 4
ENDMDL
MODEL 6
REMARK VINA RESULT:      -7.0      2.083      2.568
REMARK  4 active torsions:
REMARK  status: ('A' for Active; 'I' for Inactive)
REMARK    1  A    between atoms: C_6  and  C_7 
REMARK       I    between atoms: C_7  and  N_8 
REMARK    2  A    between atoms: N_8  and  C_9 
REMARK    3  A    between atoms: C_10  and  O_11 
REMARK    4  A    between atoms: N_13  and  C_15 
ROOT
HETATM    1  C   UNL     1     -40.769  55.002 -53.998  1.00  0.00     0.252 C 
HETATM    2  N   UNL     1     -41.401  56.041 -53.344  1.00  0.00    -0.348 N 
HETATM    3  O   UNL     1     -40.458  55.104 -55.181  1.00  0.00    -0.268 OA
HETATM    4  H   UNL     1     -41.807  55.884 -52.428  1.00  0.00     0.163 HD
ENDROOT
BRANCH   2   5
HETATM    5  C   UNL     1     -41.710  57.297 -54.024  1.00  0.00     0.141 C 
HETATM    6  C   UNL     1     -41.572  58.545 -53.132  1.00  0.00     0.168 C 
HETATM    7  C   UNL     1     -42.959  59.188 -53.126  1.00  0.00     0.269 C 
HETATM    8  N   UNL     1     -43.570  58.825 -54.477  1.00  0.00    -0.063 N 
HETATM    9  H   UNL     1     -44.592  58.857 -54.372  1.00  0.00     0.280 HD
HETATM   10  C   UNL     1     -43.136  57.374 -54.612  1.00  0.00     0.263 C 
BRANCH   6  11
HETATM   11  O   UNL     1     -40.631  59.447 -53.726  1.00  0.00    -0.392 OA
HETATM   12  H   UNL     1     -39.842  59.482 -53.150  1.00  0.00     0.210 HD
ENDBRANCH   6  11
BRANCH   8  13
HETATM   13  C   UNL     1     -43.190  59.723 -55.654  1.00  0.00     0.180 C 
HETATM   14  C   UNL     1     -44.178  59.486 -56.802  1.00  0.00     0.039 C 
HETATM   15  C   UNL     1     -43.255  61.195 -55.247  1.00  0.00     0.039 C 
ENDBRANCH   8  13
ENDBRANCH   2   5
BRANCH   1  16
HETATM   16  C   UNL     1     -40.490  53.755 -53.232  1.00  0.00     0.035 A 
HETATM   17  C   UNL     1     -40.551  53.696 -51.839  1.00  0.00     0.041 A 
HETATM   18  C   UNL     1     -40.258  52.499 -51.170  1.00  0.00     0.042 A 
HETATM   19  C   UNL     1     -39.903  51.334 -51.871  1.00  0.00    -0.018 A 
HETATM   20 CL   UNL     1     -40.333  52.547 -49.442  1.00  0.00    -0.084 Cl
HETATM   21  C   UNL     1     -39.556  50.056 -51.151  1.00  0.00     0.052 C 
HETATM   22  C   UNL     1     -39.807  51.425 -53.272  1.00  0.00     0.042 A 
HETATM   23  C   UNL     1     -40.103  52.617 -53.944  1.00  0.00     0.041 A 
HETATM   24 CL   UNL     1     -39.299  50.088 -54.243  1.00  0.00    -0.084 Cl
ENDBRANCH   1  16
TORSDOF 4
ENDMDL
MODEL 7
REMARK VINA RESULT:      -6.6      1.801      3.162
REMARK  4 active torsions:
REMARK  status: ('A' for Active; 'I' for Inactive)
REMARK    1  A    between atoms: C_6  and  C_7 
REMARK       I    between atoms: C_7  and  N_8 
REMARK    2  A    between atoms: N_8  and  C_9 
REMARK    3  A    between atoms: C_10  and  O_11 
REMARK    4  A    between atoms: N_13  and  C_15 
ROOT
HETATM    1  C   UNL     1     -41.035  54.916 -53.927  1.00  0.00     0.252 C 
HETATM    2  N   UNL     1     -42.283  55.413 -53.603  1.00  0.00    -0.348 N 
HETATM    3  O   UNL     1     -40.322  55.496 -54.740  1.00  0.00    -0.268 OA
HETATM    4  H   UNL     1     -42.928  54.841 -53.071  1.00  0.00     0.163 HD
ENDROOT
BRANCH   2   5
HETATM    5  C   UNL     1     -42.792  56.646 -54.200  1.00  0.00     0.141 C 
HETATM    6  C   UNL     1     -43.315  56.476 -55.639  1.00  0.00     0.168 C 
HETATM    7  C   UNL     1     -42.461  57.416 -56.489  1.00  0.00     0.269 C 
HETATM    8  N   UNL     1     -42.078  58.560 -55.552  1.00  0.00    -0.063 N 
HETATM    9  H   UNL     1     -41.209  58.975 -55.911  1.00  0.00     0.280 HD
HETATM   10  C   UNL     1     -41.764  57.795 -54.275  1.00  0.00     0.263 C 
BRANCH   6  11
HETATM   11  O   UNL     1     -44.684  56.894 -55.696  1.00  0.00    -0.392 OA
HETATM   12  H   UNL     1     -45.120  56.400 -56.417  1.00  0.00     0.210 HD
ENDBRANCH   6  11
BRANCH   8  13
HETATM   13  C   UNL     1     -43.106  59.679 -55.396  1.00  0.00     0.180 C 
HETATM   14  C   UNL     1     -42.601  60.678 -54.348  1.00  0.00     0.039 C 
HETATM   15  C   UNL     1     -43.300  60.417 -56.721  1.00  0.00     0.039 C 
ENDBRANCH   8  13
ENDBRANCH   2   5
BRANCH   1  16
HETATM   16  C   UNL     1     -40.591  53.653 -53.274  1.00  0.00     0.035 A 
HETATM   17  C   UNL     1     -40.193  52.529 -53.999  1.00  0.00     0.041 A 
HETATM   18  C   UNL     1     -39.803  51.359 -53.330  1.00  0.00     0.042 A 
HETATM   19  C   UNL     1     -39.797  51.284 -51.927  1.00  0.00    -0.018 A 
HETATM   20 CL   UNL     1     -39.359  50.017 -54.326  1.00  0.00    -0.084 Cl
HETATM   21  C   UNL     1     -39.410  50.017 -51.208  1.00  0.00     0.052 C 
HETATM   22  C   UNL     1     -40.241  52.414 -51.216  1.00  0.00     0.042 A 
HETATM   23  C   UNL     1     -40.626  53.584 -51.879  1.00  0.00     0.041 A 
HETATM   24 CL   UNL     1     -40.360  52.420 -49.491  1.00  0.00    -0.084 Cl
ENDBRANCH   1  16
TORSDOF 4
ENDMDL
MODEL 8
REMARK VINA RESULT:      -6.5      1.562      1.829
REMARK  4 active torsions:
REMARK  status: ('A' for Active; 'I' for Inactive)
REMARK    1  A    between atoms: C_6  and  C_7 
REMARK       I    between atoms: C_7  and  N_8 
REMARK    2  A    between atoms: N_8  and  C_9 
REMARK    3  A    between atoms: C_10  and  O_11 
REMARK    4  A    between atoms: N_13  and  C_15 
ROOT
HETATM    1  C   UNL     1     -41.548  56.499 -54.415  1.00  0.00     0.252 C 
HETATM    2  N   UNL     1     -42.164  56.115 -55.590  1.00  0.00    -0.348 N 
HETATM    3  O   UNL     1     -41.232  57.671 -54.227  1.00  0.00    -0.268 OA
HETATM    4  H   UNL     1     -42.259  55.130 -55.807  1.00  0.00     0.163 HD
ENDROOT
BRANCH   2   5
HETATM    5  C   UNL     1     -42.474  57.081 -56.641  1.00  0.00     0.141 C 
HETATM    6  C   UNL     1     -43.685  57.980 -56.329  1.00  0.00     0.168 C 
HETATM    7  C   UNL     1     -44.685  57.710 -57.454  1.00  0.00     0.269 C 
HETATM    8  N   UNL     1     -43.828  57.345 -58.665  1.00  0.00    -0.063 N 
HETATM    9  H   UNL     1     -44.408  56.772 -59.291  1.00  0.00     0.280 HD
HETATM   10  C   UNL     1     -42.778  56.455 -58.019  1.00  0.00     0.263 C 
BRANCH   6  11
HETATM   11  O   UNL     1     -43.278  59.353 -56.373  1.00  0.00    -0.392 OA
HETATM   12  H   UNL     1     -43.983  59.862 -56.819  1.00  0.00     0.210 HD
ENDBRANCH   6  11
BRANCH   8  13
HETATM   13  C   UNL     1     -43.272  58.514 -59.477  1.00  0.00     0.180 C 
HETATM   14  C   UNL     1     -42.051  58.033 -60.270  1.00  0.00     0.039 C 
HETATM   15  C   UNL     1     -44.322  59.031 -60.460  1.00  0.00     0.039 C 
ENDBRANCH   8  13
ENDBRANCH   2   5
BRANCH   1  16
HETATM   16  C   UNL     1     -41.265  55.452 -53.394  1.00  0.00     0.035 A 
HETATM   17  C   UNL     1     -41.416  55.675 -52.024  1.00  0.00     0.041 A 
HETATM   18  C   UNL     1     -41.115  54.658 -51.106  1.00  0.00     0.042 A 
HETATM   19  C   UNL     1     -40.663  53.396 -51.531  1.00  0.00    -0.018 A 
HETATM   20 CL   UNL     1     -41.307  55.052 -49.433  1.00  0.00    -0.084 Cl
HETATM   21  C   UNL     1     -40.310  52.314 -50.544  1.00  0.00     0.052 C 
HETATM   22  C   UNL     1     -40.480  53.206 -52.912  1.00  0.00     0.042 A 
HETATM   23  C   UNL     1     -40.783  54.217 -53.832  1.00  0.00     0.041 A 
HETATM   24 CL   UNL     1     -39.850  51.730 -53.556  1.00  0.00    -0.084 Cl
ENDBRANCH   1  16
TORSDOF 4
ENDMDL
MODEL 9
REMARK VINA RESULT:      -6.4      3.948      7.818
REMARK  4 active torsions:
REMARK  status: ('A' for Active; 'I' for Inactive)
REMARK    1  A    between atoms: C_6  and  C_7 
REMARK       I    between atoms: C_7  and  N_8 
REMARK    2  A    between atoms: N_8  and  C_9 
REMARK    3  A    between atoms: C_10  and  O_11 
REMARK    4  A    between atoms: N_13  and  C_15 
ROOT
HETATM    1  C   UNL     1     -42.699  55.147 -55.256  1.00  0.00     0.252 C 
HETATM    2  N   UNL     1     -42.623  55.924 -54.117  1.00  0.00    -0.348 N 
HETATM    3  O   UNL     1     -42.639  53.923 -55.186  1.00  0.00    -0.268 OA
HETATM    4  H   UNL     1     -42.496  56.926 -54.200  1.00  0.00     0.163 HD
ENDROOT
BRANCH   2   5
HETATM    5  C   UNL     1     -42.483  55.324 -52.792  1.00  0.00     0.141 C 
HETATM    6  C   UNL     1     -43.200  56.102 -51.672  1.00  0.00     0.168 C 
HETATM    7  C   UNL     1     -42.097  56.486 -50.684  1.00  0.00     0.269 C 
HETATM    8  N   UNL     1     -41.055  55.377 -50.803  1.00  0.00    -0.063 N 
HETATM    9  H   UNL     1     -40.152  55.770 -50.506  1.00  0.00     0.280 HD
HETATM   10  C   UNL     1     -41.025  55.167 -52.309  1.00  0.00     0.263 C 
BRANCH   6  11
HETATM   11  O   UNL     1     -44.140  55.238 -51.024  1.00  0.00    -0.392 OA
HETATM   12  H   UNL     1     -43.673  54.415 -50.778  1.00  0.00     0.210 HD
ENDBRANCH   6  11
BRANCH   8  13
HETATM   13  C   UNL     1     -41.313  54.115 -49.981  1.00  0.00     0.180 C 
HETATM   14  C   UNL     1     -40.603  52.932 -50.647  1.00  0.00     0.039 C 
HETATM   15  C   UNL     1     -40.766  54.279 -48.562  1.00  0.00     0.039 C 
ENDBRANCH   8  13
ENDBRANCH   2   5
BRANCH   1  16
HETATM   16  C   UNL     1     -42.840  55.837 -56.569  1.00  0.00     0.035 A 
HETATM   17  C   UNL     1     -43.385  55.215 -57.693  1.00  0.00     0.041 A 
HETATM   18  C   UNL     1     -43.474  55.907 -58.910  1.00  0.00     0.042 A 
HETATM   19  C   UNL     1     -43.026  57.234 -59.034  1.00  0.00    -0.018 A 
HETATM   20 CL   UNL     1     -44.136  55.031 -60.246  1.00  0.00    -0.084 Cl
HETATM   21  C   UNL     1     -43.092  57.968 -60.349  1.00  0.00     0.052 C 
HETATM   22  C   UNL     1     -42.443  57.829 -57.900  1.00  0.00     0.042 A 
HETATM   23  C   UNL     1     -42.357  57.143 -56.683  1.00  0.00     0.041 A 
HETATM   24 CL   UNL     1     -41.779  59.424 -57.945  1.00  0.00    -0.084 Cl
ENDBRANCH   1  16
TORSDOF 4
ENDMDL
MODEL 10
REMARK VINA RESULT:      -6.4     14.940     17.392
REMARK  4 active torsions:
REMARK  status: ('A' for Active; 'I' for Inactive)
REMARK    1  A    between atoms: C_6  and  C_7 
REMARK       I    between atoms: C_7  and  N_8 
REMARK    2  A    between atoms: N_8  and  C_9 
REMARK    3  A    between atoms: C_10  and  O_11 
REMARK    4  A    between atoms: N_13  and  C_15 
ROOT
HETATM    1  C   UNL     1     -35.240  41.051 -56.268  1.00  0.00     0.252 C 
HETATM    2  N   UNL     1     -34.697  40.060 -55.474  1.00  0.00    -0.348 N 
HETATM    3  O   UNL     1     -35.209  42.225 -55.912  1.00  0.00    -0.268 OA
HETATM    4  H   UNL     1     -34.882  39.087 -55.690  1.00  0.00     0.163 HD
ENDROOT
BRANCH   2   5
HETATM    5  C   UNL     1     -34.058  40.369 -54.196  1.00  0.00     0.141 C 
HETATM    6  C   UNL     1     -32.635  39.798 -54.053  1.00  0.00     0.168 C 
HETATM    7  C   UNL     1     -32.695  38.875 -52.835  1.00  0.00     0.269 C 
HETATM    8  N   UNL     1     -33.769  39.480 -51.932  1.00  0.00    -0.063 N 
HETATM    9  H   UNL     1     -34.137  38.723 -51.342  1.00  0.00     0.280 HD
HETATM   10  C   UNL     1     -34.826  39.863 -52.956  1.00  0.00     0.263 C 
BRANCH   6  11
HETATM   11  O   UNL     1     -31.720  40.870 -53.793  1.00  0.00    -0.392 OA
HETATM   12  H   UNL     1     -30.946  40.499 -53.326  1.00  0.00     0.210 HD
ENDBRANCH   6  11
BRANCH   8  13
HETATM   13  C   UNL     1     -33.319  40.616 -51.015  1.00  0.00     0.180 C 
HETATM   14  C   UNL     1     -34.482  41.596 -50.827  1.00  0.00     0.039 C 
HETATM   15  C   UNL     1     -32.913  40.070 -49.645  1.00  0.00     0.039 C 
ENDBRANCH   8  13
ENDBRANCH   2   5
BRANCH   1  16
HETATM   16  C   UNL     1     -35.874  40.652 -57.556  1.00  0.00     0.035 A 
HETATM   17  C   UNL     1     -35.903  39.331 -58.003  1.00  0.00     0.041 A 
HETATM   18  C   UNL     1     -36.496  39.016 -59.235  1.00  0.00     0.042 A 
HETATM   19  C   UNL     1     -37.075  40.008 -60.045  1.00  0.00    -0.018 A 
HETATM   20 CL   UNL     1     -36.449  37.352 -59.707  1.00  0.00    -0.084 Cl
HETATM   21  C   UNL     1     -37.684  39.675 -61.383  1.00  0.00     0.052 C 
HETATM   22  C   UNL     1     -36.999  41.338 -59.595  1.00  0.00     0.042 A 
HETATM   23  C   UNL     1     -36.412  41.655 -58.364  1.00  0.00     0.041 A 
HETATM   24 CL   UNL     1     -37.598  42.658 -60.536  1.00  0.00    -0.084 Cl
ENDBRANCH   1  16
TORSDOF 4
ENDMDL
