MODEL 1
REMARK VINA RESULT:      -8.0      0.000      0.000
REMARK  4 active torsions:
REMARK  status: ('A' for Active; 'I' for Inactive)
REMARK    1  A    between atoms: C_2  and  C_3 
REMARK    2  A    between atoms: C_6  and  C_7 
REMARK       I    between atoms: C_7  and  N_8 
REMARK    3  A    between atoms: N_8  and  C_9 
REMARK    4  A    between atoms: C_11  and  C_12 
ROOT
HETATM    1  C   UNL     1     -42.529  54.768 -55.694  1.00  0.00     0.257 C 
HETATM    2  N   UNL     1     -41.264  54.724 -55.131  1.00  0.00    -0.323 N 
HETATM    3  O   UNL     1     -43.480  54.048 -55.414  1.00  0.00    -0.267 OA
HETATM    4  H   UNL     1     -40.541  55.272 -55.577  1.00  0.00     0.169 HD
ENDROOT
BRANCH   2   5
HETATM    5  C   UNL     1     -40.833  53.918 -54.055  1.00  0.00     0.035 A 
HETATM    6  C   UNL     1     -40.955  54.280 -52.709  1.00  0.00     0.042 A 
HETATM    7  C   UNL     1     -40.504  53.433 -51.680  1.00  0.00    -0.021 A 
HETATM    8  C   UNL     1     -39.914  52.211 -52.030  1.00  0.00     0.012 A 
HETATM    9  C   UNL     1     -39.778  51.844 -53.369  1.00  0.00     0.003 A 
HETATM   10  C   UNL     1     -40.236  52.695 -54.375  1.00  0.00     0.029 A 
BRANCH   7  11
HETATM   11  C   UNL     1     -40.633  53.808 -50.278  1.00  0.00     0.010 A 
HETATM   12  C   UNL     1     -41.011  55.034 -49.676  1.00  0.00     0.152 A 
HETATM   13  N   UNL     1     -41.001  54.986 -48.341  1.00  0.00    -0.187 NA
HETATM   14  N   UNL     1     -40.617  53.727 -48.078  1.00  0.00    -0.289 N 
HETATM   15  H   UNL     1     -40.535  53.441 -47.109  1.00  0.00     0.188 HD
HETATM   16  C   UNL     1     -40.381  52.985 -49.199  1.00  0.00     0.123 A 
ENDBRANCH   7  11
ENDBRANCH   2   5
BRANCH   1  17
HETATM   17  C   UNL     1     -42.708  55.775 -56.769  1.00  0.00     0.049 A 
HETATM   18  C   UNL     1     -42.404  57.102 -56.502  1.00  0.00     0.134 A 
HETATM   19  N   UNL     1     -42.528  58.104 -57.409  1.00  0.00    -0.264 NA
HETATM   20  C   UNL     1     -42.965  57.780 -58.651  1.00  0.00     0.037 A 
HETATM   21  C   UNL     1     -43.264  56.466 -59.009  1.00  0.00     0.028 A 
HETATM   22  C   UNL     1     -43.133  55.452 -58.059  1.00  0.00     0.020 A 
BRANCH  20  23
HETATM   23  C   UNL     1     -43.061  58.890 -59.681  1.00  0.00     0.029 C 
HETATM   24  C   UNL     1     -44.404  58.820 -60.407  1.00  0.00     0.016 C 
HETATM   25  C   UNL     1     -41.901  58.843 -60.679  1.00  0.00     0.016 C 
ENDBRANCH  20  23
ENDBRANCH   1  17
TORSDOF 4
ENDMDL
MODEL 2
REMARK VINA RESULT:      -7.7      2.446      3.430
REMARK  4 active torsions:
REMARK  status: ('A' for Active; 'I' for Inactive)
REMARK    1  A    between atoms: C_2  and  C_3 
REMARK    2  A    between atoms: C_6  and  C_7 
REMARK       I    between atoms: C_7  and  N_8 
REMARK    3  A    between atoms: N_8  and  C_9 
REMARK    4  A    between atoms: C_11  and  C_12 
ROOT
HETATM    1  C   UNL     1     -42.504  55.512 -56.539  1.00  0.00     0.257 C 
HETATM    2  N   UNL     1     -41.460  55.687 -55.646  1.00  0.00    -0.323 N 
HETATM    3  O   UNL     1     -43.317  54.596 -56.545  1.00  0.00    -0.267 OA
HETATM    4  H   UNL     1     -40.778  56.399 -55.867  1.00  0.00     0.169 HD
ENDROOT
BRANCH   2   5
HETATM    5  C   UNL     1     -41.175  54.912 -54.501  1.00  0.00     0.035 A 
HETATM    6  C   UNL     1     -40.764  53.575 -54.542  1.00  0.00     0.042 A 
HETATM    7  C   UNL     1     -40.498  52.855 -53.363  1.00  0.00    -0.021 A 
HETATM    8  C   UNL     1     -40.661  53.503 -52.131  1.00  0.00     0.012 A 
HETATM    9  C   UNL     1     -41.079  54.833 -52.078  1.00  0.00     0.003 A 
HETATM   10  C   UNL     1     -41.335  55.532 -53.257  1.00  0.00     0.029 A 
BRANCH   7  11
HETATM   11  C   UNL     1     -40.067  51.464 -53.406  1.00  0.00     0.010 A 
HETATM   12  C   UNL     1     -39.990  50.549 -54.485  1.00  0.00     0.152 A 
HETATM   13  N   UNL     1     -39.548  49.342 -54.118  1.00  0.00    -0.187 NA
HETATM   14  N   UNL     1     -39.339  49.477 -52.800  1.00  0.00    -0.289 N 
HETATM   15  H   UNL     1     -38.992  48.676 -52.282  1.00  0.00     0.188 HD
HETATM   16  C   UNL     1     -39.637  50.721 -52.325  1.00  0.00     0.123 A 
ENDBRANCH   7  11
ENDBRANCH   2   5
BRANCH   1  17
HETATM   17  C   UNL     1     -42.596  56.533 -57.611  1.00  0.00     0.049 A 
HETATM   18  C   UNL     1     -43.040  56.148 -58.868  1.00  0.00     0.134 A 
HETATM   19  N   UNL     1     -43.165  56.997 -59.919  1.00  0.00    -0.264 NA
HETATM   20  C   UNL     1     -42.847  58.300 -59.720  1.00  0.00     0.037 A 
HETATM   21  C   UNL     1     -42.421  58.774 -58.479  1.00  0.00     0.028 A 
HETATM   22  C   UNL     1     -42.296  57.882 -57.413  1.00  0.00     0.020 A 
BRANCH  20  23
HETATM   23  C   UNL     1     -43.029  59.260 -60.880  1.00  0.00     0.029 C 
HETATM   24  C   UNL     1     -41.984  60.374 -60.811  1.00  0.00     0.016 C 
HETATM   25  C   UNL     1     -44.443  59.845 -60.919  1.00  0.00     0.016 C 
ENDBRANCH  20  23
ENDBRANCH   1  17
TORSDOF 4
ENDMDL
MODEL 3
REMARK VINA RESULT:      -7.6      4.294      5.927
REMARK  4 active torsions:
REMARK  status: ('A' for Active; 'I' for Inactive)
REMARK    1  A    between atoms: C_2  and  C_3 
REMARK    2  A    between atoms: C_6  and  C_7 
REMARK       I    between atoms: C_7  and  N_8 
REMARK    3  A    between atoms: N_8  and  C_9 
REMARK    4  A    between atoms: C_11  and  C_12 
ROOT
HETATM    1  C   UNL     1     -42.964  56.457 -52.868  1.00  0.00     0.257 C 
HETATM    2  N   UNL     1     -41.674  55.985 -52.689  1.00  0.00    -0.323 N 
HETATM    3  O   UNL     1     -43.810  56.004 -53.629  1.00  0.00    -0.267 OA
HETATM    4  H   UNL     1     -41.044  56.560 -52.147  1.00  0.00     0.169 HD
ENDROOT
BRANCH   2   5
HETATM    5  C   UNL     1     -41.098  54.831 -53.263  1.00  0.00     0.035 A 
HETATM    6  C   UNL     1     -40.809  53.663 -52.549  1.00  0.00     0.042 A 
HETATM    7  C   UNL     1     -40.231  52.546 -53.179  1.00  0.00    -0.021 A 
HETATM    8  C   UNL     1     -39.936  52.625 -54.546  1.00  0.00     0.012 A 
HETATM    9  C   UNL     1     -40.211  53.788 -55.266  1.00  0.00     0.003 A 
HETATM   10  C   UNL     1     -40.788  54.885 -54.626  1.00  0.00     0.029 A 
BRANCH   7  11
HETATM   11  C   UNL     1     -39.932  51.328 -52.437  1.00  0.00     0.010 A 
HETATM   12  C   UNL     1     -39.799  51.099 -51.044  1.00  0.00     0.152 A 
HETATM   13  N   UNL     1     -39.507  49.828 -50.748  1.00  0.00    -0.187 NA
HETATM   14  N   UNL     1     -39.452  49.235 -51.951  1.00  0.00    -0.289 N 
HETATM   15  H   UNL     1     -39.242  48.243 -51.990  1.00  0.00     0.188 HD
HETATM   16  C   UNL     1     -39.694  50.086 -52.990  1.00  0.00     0.123 A 
ENDBRANCH   7  11
ENDBRANCH   2   5
BRANCH   1  17
HETATM   17  C   UNL     1     -43.314  57.658 -52.070  1.00  0.00     0.049 A 
HETATM   18  C   UNL     1     -42.309  58.551 -51.727  1.00  0.00     0.134 A 
HETATM   19  N   UNL     1     -42.515  59.681 -51.004  1.00  0.00    -0.264 NA
HETATM   20  C   UNL     1     -43.782  59.952 -50.606  1.00  0.00     0.037 A 
HETATM   21  C   UNL     1     -44.853  59.122 -50.933  1.00  0.00     0.028 A 
HETATM   22  C   UNL     1     -44.617  57.964 -51.675  1.00  0.00     0.020 A 
BRANCH  20  23
HETATM   23  C   UNL     1     -44.023  61.238 -49.836  1.00  0.00     0.029 C 
HETATM   24  C   UNL     1     -45.522  61.524 -49.745  1.00  0.00     0.016 C 
HETATM   25  C   UNL     1     -43.282  62.423 -50.460  1.00  0.00     0.016 C 
ENDBRANCH  20  23
ENDBRANCH   1  17
TORSDOF 4
ENDMDL
MODEL 4
REMARK VINA RESULT:      -7.6      2.350      9.032
REMARK  4 active torsions:
REMARK  status: ('A' for Active; 'I' for Inactive)
REMARK    1  A    between atoms: C_2  and  C_3 
REMARK    2  A    between atoms: C_6  and  C_7 
REMARK       I    between atoms: C_7  and  N_8 
REMARK    3  A    between atoms: N_8  and  C_9 
REMARK    4  A    between atoms: C_11  and  C_12 
ROOT
HETATM    1  C   UNL     1     -42.268  55.015 -54.511  1.00  0.00     0.257 C 
HETATM    2  N   UNL     1     -41.925  55.283 -55.826  1.00  0.00    -0.323 N 
HETATM    3  O   UNL     1     -43.098  55.610 -53.835  1.00  0.00    -0.267 OA
HETATM    4  H   UNL     1     -41.111  54.812 -56.196  1.00  0.00     0.169 HD
ENDROOT
BRANCH   2   5
HETATM    5  C   UNL     1     -42.525  56.222 -56.693  1.00  0.00     0.035 A 
HETATM    6  C   UNL     1     -43.442  55.888 -57.695  1.00  0.00     0.042 A 
HETATM    7  C   UNL     1     -44.004  56.873 -58.529  1.00  0.00    -0.021 A 
HETATM    8  C   UNL     1     -43.618  58.207 -58.345  1.00  0.00     0.012 A 
HETATM    9  C   UNL     1     -42.697  58.550 -57.355  1.00  0.00     0.003 A 
HETATM   10  C   UNL     1     -42.153  57.562 -56.535  1.00  0.00     0.029 A 
BRANCH   7  11
HETATM   11  C   UNL     1     -44.961  56.526 -59.571  1.00  0.00     0.010 A 
HETATM   12  C   UNL     1     -46.355  56.762 -59.667  1.00  0.00     0.152 A 
HETATM   13  N   UNL     1     -46.893  56.275 -60.790  1.00  0.00    -0.187 NA
HETATM   14  N   UNL     1     -45.845  55.724 -61.422  1.00  0.00    -0.289 N 
HETATM   15  H   UNL     1     -46.002  55.280 -62.320  1.00  0.00     0.188 HD
HETATM   16  C   UNL     1     -44.671  55.842 -60.735  1.00  0.00     0.123 A 
ENDBRANCH   7  11
ENDBRANCH   2   5
BRANCH   1  17
HETATM   17  C   UNL     1     -41.507  53.913 -53.872  1.00  0.00     0.049 A 
HETATM   18  C   UNL     1     -41.443  53.859 -52.487  1.00  0.00     0.134 A 
HETATM   19  N   UNL     1     -40.778  52.897 -51.798  1.00  0.00    -0.264 NA
HETATM   20  C   UNL     1     -40.152  51.929 -52.510  1.00  0.00     0.037 A 
HETATM   21  C   UNL     1     -40.192  51.895 -53.904  1.00  0.00     0.028 A 
HETATM   22  C   UNL     1     -40.878  52.896 -54.592  1.00  0.00     0.020 A 
BRANCH  20  23
HETATM   23  C   UNL     1     -39.446  50.827 -51.741  1.00  0.00     0.029 C 
HETATM   24  C   UNL     1     -39.494  49.520 -52.533  1.00  0.00     0.016 C 
HETATM   25  C   UNL     1     -40.041  50.637 -50.344  1.00  0.00     0.016 C 
ENDBRANCH  20  23
ENDBRANCH   1  17
TORSDOF 4
ENDMDL
MODEL 5
REMARK VINA RESULT:      -7.5      4.290      7.806
REMARK  4 active torsions:
REMARK  status: ('A' for Active; 'I' for Inactive)
REMARK    1  A    between atoms: C_2  and  C_3 
REMARK    2  A    between atoms: C_6  and  C_7 
REMARK       I    between atoms: C_7  and  N_8 
REMARK    3  A    between atoms: N_8  and  C_9 
REMARK    4  A    between atoms: C_11  and  C_12 
ROOT
HETATM    1  C   UNL     1     -41.297  56.012 -53.131  1.00  0.00     0.257 C 
HETATM    2  N   UNL     1     -41.513  56.461 -51.839  1.00  0.00    -0.323 N 
HETATM    3  O   UNL     1     -41.508  56.633 -54.166  1.00  0.00    -0.267 OA
HETATM    4  H   UNL     1     -41.444  55.778 -51.096  1.00  0.00     0.169 HD
ENDROOT
BRANCH   2   5
HETATM    5  C   UNL     1     -41.919  57.752 -51.437  1.00  0.00     0.035 A 
HETATM    6  C   UNL     1     -43.161  58.314 -51.752  1.00  0.00     0.042 A 
HETATM    7  C   UNL     1     -43.506  59.610 -51.323  1.00  0.00    -0.021 A 
HETATM    8  C   UNL     1     -42.572  60.339 -50.576  1.00  0.00     0.012 A 
HETATM    9  C   UNL     1     -41.327  59.791 -50.264  1.00  0.00     0.003 A 
HETATM   10  C   UNL     1     -41.004  58.505 -50.694  1.00  0.00     0.029 A 
BRANCH   7  11
HETATM   11  C   UNL     1     -44.800  60.195 -51.648  1.00  0.00     0.010 A 
HETATM   12  C   UNL     1     -45.696  60.962 -50.862  1.00  0.00     0.152 A 
HETATM   13  N   UNL     1     -46.803  61.314 -51.523  1.00  0.00    -0.187 NA
HETATM   14  N   UNL     1     -46.623  60.775 -52.739  1.00  0.00    -0.289 N 
HETATM   15  H   UNL     1     -47.345  60.909 -53.438  1.00  0.00     0.188 HD
HETATM   16  C   UNL     1     -45.446  60.094 -52.864  1.00  0.00     0.123 A 
ENDBRANCH   7  11
ENDBRANCH   2   5
BRANCH   1  17
HETATM   17  C   UNL     1     -40.796  54.620 -53.242  1.00  0.00     0.049 A 
HETATM   18  C   UNL     1     -40.535  53.908 -52.082  1.00  0.00     0.134 A 
HETATM   19  N   UNL     1     -40.077  52.630 -52.065  1.00  0.00    -0.264 NA
HETATM   20  C   UNL     1     -39.876  52.017 -53.257  1.00  0.00     0.037 A 
HETATM   21  C   UNL     1     -40.141  52.653 -54.469  1.00  0.00     0.028 A 
HETATM   22  C   UNL     1     -40.609  53.968 -54.462  1.00  0.00     0.020 A 
BRANCH  20  23
HETATM   23  C   UNL     1     -39.407  50.573 -53.241  1.00  0.00     0.029 C 
HETATM   24  C   UNL     1     -40.050  49.799 -54.392  1.00  0.00     0.016 C 
HETATM   25  C   UNL     1     -39.699  49.894 -51.901  1.00  0.00     0.016 C 
ENDBRANCH  20  23
ENDBRANCH   1  17
TORSDOF 4
ENDMDL
MODEL 6
REMARK VINA RESULT:      -7.4      1.684      2.081
REMARK  4 active torsions:
REMARK  status: ('A' for Active; 'I' for Inactive)
REMARK    1  A    between atoms: C_2  and  C_3 
REMARK    2  A    between atoms: C_6  and  C_7 
REMARK       I    between atoms: C_7  and  N_8 
REMARK    3  A    between atoms: N_8  and  C_9 
REMARK    4  A    between atoms: C_11  and  C_12 
ROOT
HETATM    1  C   UNL     1     -42.351  56.200 -55.306  1.00  0.00     0.257 C 
HETATM    2  N   UNL     1     -42.540  54.889 -54.904  1.00  0.00    -0.323 N 
HETATM    3  O   UNL     1     -41.521  56.988 -54.868  1.00  0.00    -0.267 OA
HETATM    4  H   UNL     1     -43.367  54.417 -55.242  1.00  0.00     0.169 HD
ENDROOT
BRANCH   2   5
HETATM    5  C   UNL     1     -41.758  54.153 -53.986  1.00  0.00     0.035 A 
HETATM    6  C   UNL     1     -41.708  54.416 -52.613  1.00  0.00     0.042 A 
HETATM    7  C   UNL     1     -40.906  53.647 -51.750  1.00  0.00    -0.021 A 
HETATM    8  C   UNL     1     -40.141  52.608 -52.296  1.00  0.00     0.012 A 
HETATM    9  C   UNL     1     -40.175  52.343 -53.665  1.00  0.00     0.003 A 
HETATM   10  C   UNL     1     -40.979  53.113 -54.504  1.00  0.00     0.029 A 
BRANCH   7  11
HETATM   11  C   UNL     1     -40.856  53.919 -50.320  1.00  0.00     0.010 A 
HETATM   12  C   UNL     1     -41.253  55.059 -49.577  1.00  0.00     0.152 A 
HETATM   13  N   UNL     1     -41.037  54.930 -48.264  1.00  0.00    -0.187 NA
HETATM   14  N   UNL     1     -40.500  53.704 -48.157  1.00  0.00    -0.289 N 
HETATM   15  H   UNL     1     -40.245  53.368 -47.235  1.00  0.00     0.188 HD
HETATM   16  C   UNL     1     -40.368  53.062 -49.354  1.00  0.00     0.123 A 
ENDBRANCH   7  11
ENDBRANCH   2   5
BRANCH   1  17
HETATM   17  C   UNL     1     -43.290  56.684 -56.347  1.00  0.00     0.049 A 
HETATM   18  C   UNL     1     -43.227  56.130 -57.616  1.00  0.00     0.134 A 
HETATM   19  N   UNL     1     -44.037  56.494 -58.643  1.00  0.00    -0.264 NA
HETATM   20  C   UNL     1     -44.968  57.449 -58.403  1.00  0.00     0.037 A 
HETATM   21  C   UNL     1     -45.117  58.036 -57.147  1.00  0.00     0.028 A 
HETATM   22  C   UNL     1     -44.271  57.648 -56.107  1.00  0.00     0.020 A 
BRANCH  20  23
HETATM   23  C   UNL     1     -45.906  57.826 -59.535  1.00  0.00     0.029 C 
HETATM   24  C   UNL     1     -46.851  58.940 -59.087  1.00  0.00     0.016 C 
HETATM   25  C   UNL     1     -46.695  56.618 -60.046  1.00  0.00     0.016 C 
ENDBRANCH  20  23
ENDBRANCH   1  17
TORSDOF 4
ENDMDL
MODEL 7
REMARK VINA RESULT:      -7.3      2.382      9.077
REMARK  4 active torsions:
REMARK  status: ('A' for Active; 'I' for Inactive)
REMARK    1  A    between atoms: C_2  and  C_3 
REMARK    2  A    between atoms: C_6  and  C_7 
REMARK       I    between atoms: C_7  and  N_8 
REMARK    3  A    between atoms: N_8  and  C_9 
REMARK    4  A    between atoms: C_11  and  C_12 
ROOT
HETATM    1  C   UNL     1     -42.658  55.626 -55.207  1.00  0.00     0.257 C 
HETATM    2  N   UNL     1     -42.124  56.118 -56.386  1.00  0.00    -0.323 N 
HETATM    3  O   UNL     1     -43.721  55.953 -54.692  1.00  0.00    -0.267 OA
HETATM    4  H   UNL     1     -41.167  55.872 -56.597  1.00  0.00     0.169 HD
ENDROOT
BRANCH   2   5
HETATM    5  C   UNL     1     -42.731  57.016 -57.292  1.00  0.00     0.035 A 
HETATM    6  C   UNL     1     -43.792  56.676 -58.137  1.00  0.00     0.042 A 
HETATM    7  C   UNL     1     -44.353  57.617 -59.021  1.00  0.00    -0.021 A 
HETATM    8  C   UNL     1     -43.819  58.912 -59.047  1.00  0.00     0.012 A 
HETATM    9  C   UNL     1     -42.754  59.259 -58.215  1.00  0.00     0.003 A 
HETATM   10  C   UNL     1     -42.214  58.315 -57.343  1.00  0.00     0.029 A 
BRANCH   7  11
HETATM   11  C   UNL     1     -45.460  57.264 -59.900  1.00  0.00     0.010 A 
HETATM   12  C   UNL     1     -46.621  57.989 -60.267  1.00  0.00     0.152 A 
HETATM   13  N   UNL     1     -47.418  57.314 -61.100  1.00  0.00    -0.187 NA
HETATM   14  N   UNL     1     -46.772  56.151 -61.274  1.00  0.00    -0.289 N 
HETATM   15  H   UNL     1     -47.188  55.454 -61.882  1.00  0.00     0.188 HD
HETATM   16  C   UNL     1     -45.601  56.070 -60.577  1.00  0.00     0.123 A 
ENDBRANCH   7  11
ENDBRANCH   2   5
BRANCH   1  17
HETATM   17  C   UNL     1     -41.816  54.632 -54.498  1.00  0.00     0.049 A 
HETATM   18  C   UNL     1     -42.070  54.371 -53.159  1.00  0.00     0.134 A 
HETATM   19  N   UNL     1     -41.365  53.482 -52.415  1.00  0.00    -0.264 NA
HETATM   20  C   UNL     1     -40.362  52.804 -53.024  1.00  0.00     0.037 A 
HETATM   21  C   UNL     1     -40.060  52.987 -54.373  1.00  0.00     0.028 A 
HETATM   22  C   UNL     1     -40.796  53.909 -55.118  1.00  0.00     0.020 A 
BRANCH  20  23
HETATM   23  C   UNL     1     -39.602  51.776 -52.206  1.00  0.00     0.029 C 
HETATM   24  C   UNL     1     -39.625  50.420 -52.912  1.00  0.00     0.016 C 
HETATM   25  C   UNL     1     -40.155  51.657 -50.785  1.00  0.00     0.016 C 
ENDBRANCH  20  23
ENDBRANCH   1  17
TORSDOF 4
ENDMDL
MODEL 8
REMARK VINA RESULT:      -7.3     14.605     16.190
REMARK  4 active torsions:
REMARK  status: ('A' for Active; 'I' for Inactive)
REMARK    1  A    between atoms: C_2  and  C_3 
REMARK    2  A    between atoms: C_6  and  C_7 
REMARK       I    between atoms: C_7  and  N_8 
REMARK    3  A    between atoms: N_8  and  C_9 
REMARK    4  A    between atoms: C_11  and  C_12 
ROOT
HETATM    1  C   UNL     1     -36.372  41.458 -53.844  1.00  0.00     0.257 C 
HETATM    2  N   UNL     1     -36.473  40.213 -53.245  1.00  0.00    -0.323 N 
HETATM    3  O   UNL     1     -36.120  42.520 -53.288  1.00  0.00    -0.267 OA
HETATM    4  H   UNL     1     -36.845  39.460 -53.806  1.00  0.00     0.169 HD
ENDROOT
BRANCH   2   5
HETATM    5  C   UNL     1     -36.209  39.889 -51.896  1.00  0.00     0.035 A 
HETATM    6  C   UNL     1     -34.924  39.793 -51.352  1.00  0.00     0.042 A 
HETATM    7  C   UNL     1     -34.726  39.463 -49.998  1.00  0.00    -0.021 A 
HETATM    8  C   UNL     1     -35.849  39.218 -49.198  1.00  0.00     0.012 A 
HETATM    9  C   UNL     1     -37.135  39.300 -49.733  1.00  0.00     0.003 A 
HETATM   10  C   UNL     1     -37.312  39.633 -51.075  1.00  0.00     0.029 A 
BRANCH   7  11
HETATM   11  C   UNL     1     -33.388  39.366 -49.430  1.00  0.00     0.010 A 
HETATM   12  C   UNL     1     -32.166  39.966 -49.825  1.00  0.00     0.152 A 
HETATM   13  N   UNL     1     -31.137  39.621 -49.045  1.00  0.00    -0.187 NA
HETATM   14  N   UNL     1     -31.694  38.797 -48.144  1.00  0.00    -0.289 N 
HETATM   15  H   UNL     1     -31.100  38.395 -47.426  1.00  0.00     0.188 HD
HETATM   16  C   UNL     1     -33.033  38.609 -48.332  1.00  0.00     0.123 A 
ENDBRANCH   7  11
ENDBRANCH   2   5
BRANCH   1  17
HETATM   17  C   UNL     1     -36.640  41.480 -55.303  1.00  0.00     0.049 A 
HETATM   18  C   UNL     1     -37.786  40.864 -55.784  1.00  0.00     0.134 A 
HETATM   19  N   UNL     1     -38.131  40.825 -57.096  1.00  0.00    -0.264 NA
HETATM   20  C   UNL     1     -37.308  41.436 -57.983  1.00  0.00     0.037 A 
HETATM   21  C   UNL     1     -36.151  42.103 -57.579  1.00  0.00     0.028 A 
HETATM   22  C   UNL     1     -35.815  42.127 -56.225  1.00  0.00     0.020 A 
BRANCH  20  23
HETATM   23  C   UNL     1     -37.714  41.434 -59.445  1.00  0.00     0.029 C 
HETATM   24  C   UNL     1     -37.108  40.225 -60.158  1.00  0.00     0.016 C 
HETATM   25  C   UNL     1     -37.315  42.734 -60.148  1.00  0.00     0.016 C 
ENDBRANCH  20  23
ENDBRANCH   1  17
TORSDOF 4
ENDMDL
MODEL 9
REMARK VINA RESULT:      -7.2     14.662     16.122
REMARK  4 active torsions:
REMARK  status: ('A' for Active; 'I' for Inactive)
REMARK    1  A    between atoms: C_2  and  C_3 
REMARK    2  A    between atoms: C_6  and  C_7 
REMARK       I    between atoms: C_7  and  N_8 
REMARK    3  A    between atoms: N_8  and  C_9 
REMARK    4  A    between atoms: C_11  and  C_12 
ROOT
HETATM    1  C   UNL     1     -35.646  41.633 -54.036  1.00  0.00     0.257 C 
HETATM    2  N   UNL     1     -35.074  40.456 -53.582  1.00  0.00    -0.323 N 
HETATM    3  O   UNL     1     -35.842  42.651 -53.384  1.00  0.00    -0.267 OA
HETATM    4  H   UNL     1     -35.127  39.652 -54.192  1.00  0.00     0.169 HD
ENDROOT
BRANCH   2   5
HETATM    5  C   UNL     1     -34.506  40.215 -52.312  1.00  0.00     0.035 A 
HETATM    6  C   UNL     1     -35.209  39.675 -51.230  1.00  0.00     0.042 A 
HETATM    7  C   UNL     1     -34.585  39.461 -49.987  1.00  0.00    -0.021 A 
HETATM    8  C   UNL     1     -33.236  39.811 -49.845  1.00  0.00     0.012 A 
HETATM    9  C   UNL     1     -32.528  40.359 -50.915  1.00  0.00     0.003 A 
HETATM   10  C   UNL     1     -33.161  40.561 -52.141  1.00  0.00     0.029 A 
BRANCH   7  11
HETATM   11  C   UNL     1     -35.316  38.896 -48.860  1.00  0.00     0.010 A 
HETATM   12  C   UNL     1     -36.684  38.984 -48.503  1.00  0.00     0.152 A 
HETATM   13  N   UNL     1     -36.975  38.327 -47.376  1.00  0.00    -0.187 NA
HETATM   14  N   UNL     1     -35.793  37.812 -47.004  1.00  0.00    -0.289 N 
HETATM   15  H   UNL     1     -35.754  37.256 -46.157  1.00  0.00     0.188 HD
HETATM   16  C   UNL     1     -34.771  38.125 -47.853  1.00  0.00     0.123 A 
ENDBRANCH   7  11
ENDBRANCH   2   5
BRANCH   1  17
HETATM   17  C   UNL     1     -36.093  41.614 -55.451  1.00  0.00     0.049 A 
HETATM   18  C   UNL     1     -37.352  41.114 -55.749  1.00  0.00     0.134 A 
HETATM   19  N   UNL     1     -37.862  41.050 -57.005  1.00  0.00    -0.264 NA
HETATM   20  C   UNL     1     -37.095  41.514 -58.022  1.00  0.00     0.037 A 
HETATM   21  C   UNL     1     -35.830  42.059 -57.804  1.00  0.00     0.028 A 
HETATM   22  C   UNL     1     -35.324  42.111 -56.505  1.00  0.00     0.020 A 
BRANCH  20  23
HETATM   23  C   UNL     1     -37.681  41.487 -59.422  1.00  0.00     0.029 C 
HETATM   24  C   UNL     1     -37.186  40.253 -60.176  1.00  0.00     0.016 C 
HETATM   25  C   UNL     1     -37.356  42.764 -60.200  1.00  0.00     0.016 C 
ENDBRANCH  20  23
ENDBRANCH   1  17
TORSDOF 4
ENDMDL
MODEL 10
REMARK VINA RESULT:      -7.1      2.448      8.939
REMARK  4 active torsions:
REMARK  status: ('A' for Active; 'I' for Inactive)
REMARK    1  A    between atoms: C_2  and  C_3 
REMARK    2  A    between atoms: C_6  and  C_7 
REMARK       I    between atoms: C_7  and  N_8 
REMARK    3  A    between atoms: N_8  and  C_9 
REMARK    4  A    between atoms: C_11  and  C_12 
ROOT
HETATM    1  C   UNL     1     -41.530  55.437 -53.827  1.00  0.00     0.257 C 
HETATM    2  N   UNL     1     -42.625  55.270 -54.658  1.00  0.00    -0.323 N 
HETATM    3  O   UNL     1     -40.975  56.493 -53.549  1.00  0.00    -0.267 OA
HETATM    4  H   UNL     1     -42.868  54.324 -54.917  1.00  0.00     0.169 HD
ENDROOT
BRANCH   2   5
HETATM    5  C   UNL     1     -43.392  56.282 -55.277  1.00  0.00     0.035 A 
HETATM    6  C   UNL     1     -43.264  56.650 -56.621  1.00  0.00     0.042 A 
HETATM    7  C   UNL     1     -44.057  57.670 -57.178  1.00  0.00    -0.021 A 
HETATM    8  C   UNL     1     -44.981  58.326 -56.354  1.00  0.00     0.012 A 
HETATM    9  C   UNL     1     -45.110  57.974 -55.010  1.00  0.00     0.003 A 
HETATM   10  C   UNL     1     -44.318  56.958 -54.476  1.00  0.00     0.029 A 
BRANCH   7  11
HETATM   11  C   UNL     1     -43.926  58.051 -58.578  1.00  0.00     0.010 A 
HETATM   12  C   UNL     1     -42.863  58.677 -59.275  1.00  0.00     0.152 A 
HETATM   13  N   UNL     1     -43.128  58.872 -60.570  1.00  0.00    -0.187 NA
HETATM   14  N   UNL     1     -44.364  58.370 -60.712  1.00  0.00    -0.289 N 
HETATM   15  H   UNL     1     -44.795  58.401 -61.630  1.00  0.00     0.188 HD
HETATM   16  C   UNL     1     -44.886  57.872 -59.554  1.00  0.00     0.123 A 
ENDBRANCH   7  11
ENDBRANCH   2   5
BRANCH   1  17
HETATM   17  C   UNL     1     -40.972  54.185 -53.259  1.00  0.00     0.049 A 
HETATM   18  C   UNL     1     -40.661  53.141 -54.117  1.00  0.00     0.134 A 
HETATM   19  N   UNL     1     -40.144  51.954 -53.709  1.00  0.00    -0.264 NA
HETATM   20  C   UNL     1     -39.910  51.790 -52.384  1.00  0.00     0.037 A 
HETATM   21  C   UNL     1     -40.168  52.801 -51.458  1.00  0.00     0.028 A 
HETATM   22  C   UNL     1     -40.703  54.012 -51.900  1.00  0.00     0.020 A 
BRANCH  20  23
HETATM   23  C   UNL     1     -39.290  50.482 -51.929  1.00  0.00     0.029 C 
HETATM   24  C   UNL     1     -39.483  49.408 -53.000  1.00  0.00     0.016 C 
HETATM   25  C   UNL     1     -39.860  50.018 -50.587  1.00  0.00     0.016 C 
ENDBRANCH  20  23
ENDBRANCH   1  17
TORSDOF 4
ENDMDL
