MODEL 1
REMARK VINA RESULT:      -8.1      0.000      0.000
REMARK  6 active torsions:
REMARK  status: ('A' for Active; 'I' for Inactive)
REMARK    1  A    between atoms: C_4  and  O_5 
REMARK    2  A    between atoms: O_5  and  C_6 
REMARK    3  A    between atoms: C_7  and  N_8 
REMARK       I    between atoms: N_8  and  C_9 
REMARK       I    between atoms: C_9  and  N_10 
REMARK    4  A    between atoms: N_10  and  C_11 
REMARK    5  A    between atoms: C_11  and  C_12 
REMARK    6  A    between atoms: C_12  and  C_13 
ROOT
HETATM    1  C   UNL     1     -40.526  53.861 -51.475  1.00  0.00     0.106 C 
HETATM    2  C   UNL     1     -41.859  54.286 -51.439  1.00  0.00     0.109 C 
HETATM    3  C   UNL     1     -42.319  54.914 -50.278  1.00  0.00     0.145 C 
HETATM    4  F   UNL     1     -43.569  55.399 -50.233  1.00  0.00    -0.204 F 
HETATM    5  C   UNL     1     -41.523  55.012 -49.138  1.00  0.00     0.045 C 
HETATM    6  C   UNL     1     -40.230  54.492 -49.153  1.00  0.00     0.006 C 
HETATM    7  C   UNL     1     -39.730  53.919 -50.322  1.00  0.00     0.040 C 
ENDROOT
BRANCH   2   8
HETATM    8  N   UNL     1     -42.759  54.169 -52.521  1.00  0.00    -0.304 N 
HETATM    9  C   UNL     1     -42.942  55.031 -53.567  1.00  0.00     0.320 C 
HETATM   10  N   UNL     1     -42.176  56.157 -53.598  1.00  0.00    -0.342 N 
HETATM   11  O   UNL     1     -43.656  54.686 -54.508  1.00  0.00    -0.247 OA
HETATM   12  H   UNL     1     -41.981  56.606 -52.711  1.00  0.00     0.164 HD
HETATM   13  H   UNL     1     -42.980  53.225 -52.818  1.00  0.00     0.171 HD
BRANCH  10  14
HETATM   14  C   UNL     1     -42.118  57.018 -54.767  1.00  0.00     0.132 C 
BRANCH  14  15
HETATM   15  C   UNL     1     -41.915  58.491 -54.424  1.00  0.00     0.102 C 
BRANCH  15  16
HETATM   16  C   UNL     1     -41.230  58.677 -53.115  1.00  0.00     0.148 A 
HETATM   17  N   UNL     1     -39.936  59.011 -53.017  1.00  0.00    -0.158 NA
HETATM   18  N   UNL     1     -39.765  59.049 -51.687  1.00  0.00    -0.270 N 
HETATM   19  H   UNL     1     -38.855  59.286 -51.309  1.00  0.00     0.190 HD
HETATM   20  C   UNL     1     -40.916  58.745 -51.034  1.00  0.00     0.227 A 
HETATM   21  N   UNL     1     -41.864  58.505 -51.909  1.00  0.00    -0.226 NA
ENDBRANCH  15  16
ENDBRANCH  14  15
ENDBRANCH  10  14
ENDBRANCH   2   8
BRANCH   1  22
HETATM   22  O   UNL     1     -39.996  53.393 -52.657  1.00  0.00    -0.309 OA
BRANCH  22  23
HETATM   23  C   UNL     1     -39.870  52.026 -52.815  1.00  0.00     0.076 A 
HETATM   24  C   UNL     1     -40.011  51.552 -54.121  1.00  0.00     0.037 A 
HETATM   25  C   UNL     1     -39.912  50.186 -54.392  1.00  0.00     0.003 A 
HETATM   26  C   UNL     1     -39.660  49.287 -53.357  1.00  0.00     0.000 A 
HETATM   27  C   UNL     1     -39.487  49.756 -52.057  1.00  0.00     0.003 A 
HETATM   28  C   UNL     1     -39.580  51.124 -51.786  1.00  0.00     0.037 A 
ENDBRANCH  22  23
ENDBRANCH   1  22
TORSDOF 6
ENDMDL
MODEL 2
REMARK VINA RESULT:      -8.0      2.228      4.825
REMARK  6 active torsions:
REMARK  status: ('A' for Active; 'I' for Inactive)
REMARK    1  A    between atoms: C_4  and  O_5 
REMARK    2  A    between atoms: O_5  and  C_6 
REMARK    3  A    between atoms: C_7  and  N_8 
REMARK       I    between atoms: N_8  and  C_9 
REMARK       I    between atoms: C_9  and  N_10 
REMARK    4  A    between atoms: N_10  and  C_11 
REMARK    5  A    between atoms: C_11  and  C_12 
REMARK    6  A    between atoms: C_12  and  C_13 
ROOT
HETATM    1  C   UNL     1     -39.895  52.250 -53.402  1.00  0.00     0.106 C 
HETATM    2  C   UNL     1     -39.613  51.829 -52.097  1.00  0.00     0.109 C 
HETATM    3  C   UNL     1     -39.493  50.457 -51.861  1.00  0.00     0.145 C 
HETATM    4  F   UNL     1     -39.152  50.019 -50.638  1.00  0.00    -0.204 F 
HETATM    5  C   UNL     1     -39.764  49.519 -52.855  1.00  0.00     0.045 C 
HETATM    6  C   UNL     1     -40.144  49.949 -54.124  1.00  0.00     0.006 C 
HETATM    7  C   UNL     1     -40.207  51.316 -54.400  1.00  0.00     0.040 C 
ENDROOT
BRANCH   2   8
HETATM    8  N   UNL     1     -39.390  52.703 -51.012  1.00  0.00    -0.304 N 
HETATM    9  C   UNL     1     -40.268  53.578 -50.434  1.00  0.00     0.320 C 
HETATM   10  N   UNL     1     -41.528  53.640 -50.950  1.00  0.00    -0.342 N 
HETATM   11  O   UNL     1     -39.948  54.144 -49.389  1.00  0.00    -0.247 OA
HETATM   12  H   UNL     1     -41.619  53.554 -51.955  1.00  0.00     0.164 HD
HETATM   13  H   UNL     1     -38.717  52.393 -50.320  1.00  0.00     0.171 HD
BRANCH  10  14
HETATM   14  C   UNL     1     -42.601  54.352 -50.277  1.00  0.00     0.132 C 
BRANCH  14  15
HETATM   15  C   UNL     1     -43.553  55.059 -51.239  1.00  0.00     0.102 C 
BRANCH  15  16
HETATM   16  C   UNL     1     -42.984  56.330 -51.764  1.00  0.00     0.148 A 
HETATM   17  N   UNL     1     -43.712  57.218 -52.455  1.00  0.00    -0.158 NA
HETATM   18  N   UNL     1     -42.802  58.167 -52.724  1.00  0.00    -0.270 N 
HETATM   19  H   UNL     1     -43.079  58.988 -53.249  1.00  0.00     0.190 HD
HETATM   20  C   UNL     1     -41.587  57.841 -52.213  1.00  0.00     0.227 A 
HETATM   21  N   UNL     1     -41.667  56.685 -51.598  1.00  0.00    -0.226 NA
ENDBRANCH  15  16
ENDBRANCH  14  15
ENDBRANCH  10  14
ENDBRANCH   2   8
BRANCH   1  22
HETATM   22  O   UNL     1     -39.854  53.593 -53.704  1.00  0.00    -0.309 OA
BRANCH  22  23
HETATM   23  C   UNL     1     -40.963  54.157 -54.306  1.00  0.00     0.076 A 
HETATM   24  C   UNL     1     -40.760  55.402 -54.905  1.00  0.00     0.037 A 
HETATM   25  C   UNL     1     -41.815  56.065 -55.534  1.00  0.00     0.003 A 
HETATM   26  C   UNL     1     -43.080  55.480 -55.575  1.00  0.00     0.000 A 
HETATM   27  C   UNL     1     -43.283  54.224 -55.007  1.00  0.00     0.003 A 
HETATM   28  C   UNL     1     -42.224  53.557 -54.383  1.00  0.00     0.037 A 
ENDBRANCH  22  23
ENDBRANCH   1  22
TORSDOF 6
ENDMDL
MODEL 3
REMARK VINA RESULT:      -7.9      1.661      3.228
REMARK  6 active torsions:
REMARK  status: ('A' for Active; 'I' for Inactive)
REMARK    1  A    between atoms: C_4  and  O_5 
REMARK    2  A    between atoms: O_5  and  C_6 
REMARK    3  A    between atoms: C_7  and  N_8 
REMARK       I    between atoms: N_8  and  C_9 
REMARK       I    between atoms: C_9  and  N_10 
REMARK    4  A    between atoms: N_10  and  C_11 
REMARK    5  A    between atoms: C_11  and  C_12 
REMARK    6  A    between atoms: C_12  and  C_13 
ROOT
HETATM    1  C   UNL     1     -41.113  54.059 -53.318  1.00  0.00     0.106 C 
HETATM    2  C   UNL     1     -41.964  54.632 -52.366  1.00  0.00     0.109 C 
HETATM    3  C   UNL     1     -43.242  55.023 -52.777  1.00  0.00     0.145 C 
HETATM    4  F   UNL     1     -44.112  55.509 -51.877  1.00  0.00    -0.204 F 
HETATM    5  C   UNL     1     -43.628  54.964 -54.114  1.00  0.00     0.045 C 
HETATM    6  C   UNL     1     -42.734  54.487 -55.070  1.00  0.00     0.006 C 
HETATM    7  C   UNL     1     -41.476  54.031 -54.672  1.00  0.00     0.040 C 
ENDROOT
BRANCH   2   8
HETATM    8  N   UNL     1     -41.636  54.793 -51.003  1.00  0.00    -0.304 N 
HETATM    9  C   UNL     1     -41.174  55.914 -50.370  1.00  0.00     0.320 C 
HETATM   10  N   UNL     1     -40.994  57.035 -51.123  1.00  0.00    -0.342 N 
HETATM   11  O   UNL     1     -41.097  55.918 -49.142  1.00  0.00    -0.247 OA
HETATM   12  H   UNL     1     -40.640  56.906 -52.064  1.00  0.00     0.164 HD
HETATM   13  H   UNL     1     -42.163  54.227 -50.347  1.00  0.00     0.171 HD
BRANCH  10  14
HETATM   14  C   UNL     1     -40.734  58.332 -50.524  1.00  0.00     0.132 C 
BRANCH  14  15
HETATM   15  C   UNL     1     -41.487  59.474 -51.202  1.00  0.00     0.102 C 
BRANCH  15  16
HETATM   16  C   UNL     1     -41.789  59.181 -52.630  1.00  0.00     0.148 A 
HETATM   17  N   UNL     1     -40.916  59.418 -53.618  1.00  0.00    -0.158 NA
HETATM   18  N   UNL     1     -41.611  59.023 -54.696  1.00  0.00    -0.270 N 
HETATM   19  H   UNL     1     -41.185  59.087 -55.614  1.00  0.00     0.190 HD
HETATM   20  C   UNL     1     -42.845  58.576 -54.349  1.00  0.00     0.227 A 
HETATM   21  N   UNL     1     -42.991  58.661 -53.048  1.00  0.00    -0.226 NA
ENDBRANCH  15  16
ENDBRANCH  14  15
ENDBRANCH  10  14
ENDBRANCH   2   8
BRANCH   1  22
HETATM   22  O   UNL     1     -39.916  53.511 -52.914  1.00  0.00    -0.309 OA
BRANCH  22  23
HETATM   23  C   UNL     1     -39.830  52.134 -52.828  1.00  0.00     0.076 A 
HETATM   24  C   UNL     1     -39.682  51.616 -51.540  1.00  0.00     0.037 A 
HETATM   25  C   UNL     1     -39.575  50.239 -51.339  1.00  0.00     0.003 A 
HETATM   26  C   UNL     1     -39.628  49.370 -52.428  1.00  0.00     0.000 A 
HETATM   27  C   UNL     1     -39.807  49.878 -53.713  1.00  0.00     0.003 A 
HETATM   28  C   UNL     1     -39.920  51.257 -53.914  1.00  0.00     0.037 A 
ENDBRANCH  22  23
ENDBRANCH   1  22
TORSDOF 6
ENDMDL
MODEL 4
REMARK VINA RESULT:      -7.8      2.634      4.077
REMARK  6 active torsions:
REMARK  status: ('A' for Active; 'I' for Inactive)
REMARK    1  A    between atoms: C_4  and  O_5 
REMARK    2  A    between atoms: O_5  and  C_6 
REMARK    3  A    between atoms: C_7  and  N_8 
REMARK       I    between atoms: N_8  and  C_9 
REMARK       I    between atoms: C_9  and  N_10 
REMARK    4  A    between atoms: N_10  and  C_11 
REMARK    5  A    between atoms: C_11  and  C_12 
REMARK    6  A    between atoms: C_12  and  C_13 
ROOT
HETATM    1  C   UNL     1     -41.565  55.584 -53.081  1.00  0.00     0.106 C 
HETATM    2  C   UNL     1     -42.948  55.382 -53.155  1.00  0.00     0.109 C 
HETATM    3  C   UNL     1     -43.464  54.782 -54.307  1.00  0.00     0.145 C 
HETATM    4  F   UNL     1     -44.776  54.506 -54.385  1.00  0.00    -0.204 F 
HETATM    5  C   UNL     1     -42.656  54.500 -55.407  1.00  0.00     0.045 C 
HETATM    6  C   UNL     1     -41.296  54.801 -55.359  1.00  0.00     0.006 C 
HETATM    7  C   UNL     1     -40.749  55.340 -54.195  1.00  0.00     0.040 C 
ENDROOT
BRANCH   2   8
HETATM    8  N   UNL     1     -43.853  55.696 -52.119  1.00  0.00    -0.304 N 
HETATM    9  C   UNL     1     -44.194  56.930 -51.638  1.00  0.00     0.320 C 
HETATM   10  N   UNL     1     -43.601  58.016 -52.209  1.00  0.00    -0.342 N 
HETATM   11  O   UNL     1     -45.126  57.024 -50.840  1.00  0.00    -0.247 OA
HETATM   12  H   UNL     1     -42.628  57.922 -52.476  1.00  0.00     0.164 HD
HETATM   13  H   UNL     1     -44.632  55.059 -51.998  1.00  0.00     0.171 HD
BRANCH  10  14
HETATM   14  C   UNL     1     -44.054  59.370 -51.943  1.00  0.00     0.132 C 
BRANCH  14  15
HETATM   15  C   UNL     1     -42.965  60.270 -51.365  1.00  0.00     0.102 C 
BRANCH  15  16
HETATM   16  C   UNL     1     -41.607  59.680 -51.514  1.00  0.00     0.148 A 
HETATM   17  N   UNL     1     -40.915  59.186 -50.478  1.00  0.00    -0.158 NA
HETATM   18  N   UNL     1     -39.779  58.790 -51.074  1.00  0.00    -0.270 N 
HETATM   19  H   UNL     1     -39.048  58.362 -50.518  1.00  0.00     0.190 HD
HETATM   20  C   UNL     1     -39.808  59.048 -52.407  1.00  0.00     0.227 A 
HETATM   21  N   UNL     1     -40.951  59.610 -52.719  1.00  0.00    -0.226 NA
ENDBRANCH  15  16
ENDBRANCH  14  15
ENDBRANCH  10  14
ENDBRANCH   2   8
BRANCH   1  22
HETATM   22  O   UNL     1     -41.006  56.015 -51.898  1.00  0.00    -0.309 OA
BRANCH  22  23
HETATM   23  C   UNL     1     -40.830  55.087 -50.889  1.00  0.00     0.076 A 
HETATM   24  C   UNL     1     -41.094  55.542 -49.595  1.00  0.00     0.037 A 
HETATM   25  C   UNL     1     -40.939  54.691 -48.500  1.00  0.00     0.003 A 
HETATM   26  C   UNL     1     -40.528  53.373 -48.695  1.00  0.00     0.000 A 
HETATM   27  C   UNL     1     -40.293  52.903 -49.985  1.00  0.00     0.003 A 
HETATM   28  C   UNL     1     -40.455  53.754 -51.083  1.00  0.00     0.037 A 
ENDBRANCH  22  23
ENDBRANCH   1  22
TORSDOF 6
ENDMDL
MODEL 5
REMARK VINA RESULT:      -7.7      2.561      3.907
REMARK  6 active torsions:
REMARK  status: ('A' for Active; 'I' for Inactive)
REMARK    1  A    between atoms: C_4  and  O_5 
REMARK    2  A    between atoms: O_5  and  C_6 
REMARK    3  A    between atoms: C_7  and  N_8 
REMARK       I    between atoms: N_8  and  C_9 
REMARK       I    between atoms: C_9  and  N_10 
REMARK    4  A    between atoms: N_10  and  C_11 
REMARK    5  A    between atoms: C_11  and  C_12 
REMARK    6  A    between atoms: C_12  and  C_13 
ROOT
HETATM    1  C   UNL     1     -41.772  54.863 -52.336  1.00  0.00     0.106 C 
HETATM    2  C   UNL     1     -41.972  56.223 -52.069  1.00  0.00     0.109 C 
HETATM    3  C   UNL     1     -43.009  56.576 -51.200  1.00  0.00     0.145 C 
HETATM    4  F   UNL     1     -43.186  57.864 -50.863  1.00  0.00    -0.204 F 
HETATM    5  C   UNL     1     -43.901  55.627 -50.705  1.00  0.00     0.045 C 
HETATM    6  C   UNL     1     -43.752  54.288 -51.061  1.00  0.00     0.006 C 
HETATM    7  C   UNL     1     -42.686  53.905 -51.875  1.00  0.00     0.040 C 
ENDROOT
BRANCH   2   8
HETATM    8  N   UNL     1     -41.161  57.260 -52.578  1.00  0.00    -0.304 N 
HETATM    9  C   UNL     1     -41.375  58.038 -53.682  1.00  0.00     0.320 C 
HETATM   10  N   UNL     1     -42.505  57.807 -54.407  1.00  0.00    -0.342 N 
HETATM   11  O   UNL     1     -40.643  59.006 -53.882  1.00  0.00    -0.247 OA
HETATM   12  H   UNL     1     -42.799  56.842 -54.508  1.00  0.00     0.164 HD
HETATM   13  H   UNL     1     -40.624  57.782 -51.895  1.00  0.00     0.171 HD
BRANCH  10  14
HETATM   14  C   UNL     1     -42.949  58.714 -55.451  1.00  0.00     0.132 C 
BRANCH  14  15
HETATM   15  C   UNL     1     -42.324  58.420 -56.813  1.00  0.00     0.102 C 
BRANCH  15  16
HETATM   16  C   UNL     1     -42.935  57.232 -57.470  1.00  0.00     0.148 A 
HETATM   17  N   UNL     1     -42.960  56.021 -56.897  1.00  0.00    -0.158 NA
HETATM   18  N   UNL     1     -43.577  55.288 -57.836  1.00  0.00    -0.270 N 
HETATM   19  H   UNL     1     -43.741  54.302 -57.669  1.00  0.00     0.190 HD
HETATM   20  C   UNL     1     -43.894  56.043 -58.919  1.00  0.00     0.227 A 
HETATM   21  N   UNL     1     -43.503  57.279 -58.721  1.00  0.00    -0.226 NA
ENDBRANCH  15  16
ENDBRANCH  14  15
ENDBRANCH  10  14
ENDBRANCH   2   8
BRANCH   1  22
HETATM   22  O   UNL     1     -40.661  54.470 -53.050  1.00  0.00    -0.309 OA
BRANCH  22  23
HETATM   23  C   UNL     1     -40.320  53.132 -53.031  1.00  0.00     0.076 A 
HETATM   24  C   UNL     1     -40.495  52.445 -54.235  1.00  0.00     0.037 A 
HETATM   25  C   UNL     1     -40.190  51.086 -54.325  1.00  0.00     0.003 A 
HETATM   26  C   UNL     1     -39.696  50.408 -53.212  1.00  0.00     0.000 A 
HETATM   27  C   UNL     1     -39.488  51.093 -52.017  1.00  0.00     0.003 A 
HETATM   28  C   UNL     1     -39.788  52.455 -51.928  1.00  0.00     0.037 A 
ENDBRANCH  22  23
ENDBRANCH   1  22
TORSDOF 6
ENDMDL
MODEL 6
REMARK VINA RESULT:      -7.5      2.167      3.784
REMARK  6 active torsions:
REMARK  status: ('A' for Active; 'I' for Inactive)
REMARK    1  A    between atoms: C_4  and  O_5 
REMARK    2  A    between atoms: O_5  and  C_6 
REMARK    3  A    between atoms: C_7  and  N_8 
REMARK       I    between atoms: N_8  and  C_9 
REMARK       I    between atoms: C_9  and  N_10 
REMARK    4  A    between atoms: N_10  and  C_11 
REMARK    5  A    between atoms: C_11  and  C_12 
REMARK    6  A    between atoms: C_12  and  C_13 
ROOT
HETATM    1  C   UNL     1     -42.003  55.563 -53.721  1.00  0.00     0.106 C 
HETATM    2  C   UNL     1     -43.315  56.018 -53.540  1.00  0.00     0.109 C 
HETATM    3  C   UNL     1     -44.015  56.469 -54.663  1.00  0.00     0.145 C 
HETATM    4  F   UNL     1     -45.299  56.844 -54.541  1.00  0.00    -0.204 F 
HETATM    5  C   UNL     1     -43.401  56.584 -55.908  1.00  0.00     0.045 C 
HETATM    6  C   UNL     1     -42.062  56.225 -56.053  1.00  0.00     0.006 C 
HETATM    7  C   UNL     1     -41.363  55.711 -54.960  1.00  0.00     0.040 C 
ENDROOT
BRANCH   2   8
HETATM    8  N   UNL     1     -43.997  56.001 -52.305  1.00  0.00    -0.304 N 
HETATM    9  C   UNL     1     -44.209  57.039 -51.440  1.00  0.00     0.320 C 
HETATM   10  N   UNL     1     -43.708  58.259 -51.784  1.00  0.00    -0.342 N 
HETATM   11  O   UNL     1     -44.969  56.877 -50.486  1.00  0.00    -0.247 OA
HETATM   12  H   UNL     1     -42.807  58.273 -52.246  1.00  0.00     0.164 HD
HETATM   13  H   UNL     1     -44.755  55.332 -52.222  1.00  0.00     0.171 HD
BRANCH  10  14
HETATM   14  C   UNL     1     -44.068  59.469 -51.066  1.00  0.00     0.132 C 
BRANCH  14  15
HETATM   15  C   UNL     1     -42.889  60.413 -50.844  1.00  0.00     0.102 C 
BRANCH  15  16
HETATM   16  C   UNL     1     -41.580  59.754 -51.105  1.00  0.00     0.148 A 
HETATM   17  N   UNL     1     -40.863  59.160 -50.141  1.00  0.00    -0.158 NA
HETATM   18  N   UNL     1     -39.790  58.734 -50.823  1.00  0.00    -0.270 N 
HETATM   19  H   UNL     1     -39.057  58.232 -50.335  1.00  0.00     0.190 HD
HETATM   20  C   UNL     1     -39.876  59.070 -52.136  1.00  0.00     0.227 A 
HETATM   21  N   UNL     1     -40.998  59.716 -52.349  1.00  0.00    -0.226 NA
ENDBRANCH  15  16
ENDBRANCH  14  15
ENDBRANCH  10  14
ENDBRANCH   2   8
BRANCH   1  22
HETATM   22  O   UNL     1     -41.346  54.958 -52.673  1.00  0.00    -0.309 OA
BRANCH  22  23
HETATM   23  C   UNL     1     -40.812  53.701 -52.882  1.00  0.00     0.076 A 
HETATM   24  C   UNL     1     -40.092  53.162 -51.814  1.00  0.00     0.037 A 
HETATM   25  C   UNL     1     -39.502  51.902 -51.921  1.00  0.00     0.003 A 
HETATM   26  C   UNL     1     -39.640  51.167 -53.097  1.00  0.00     0.000 A 
HETATM   27  C   UNL     1     -40.384  51.683 -54.156  1.00  0.00     0.003 A 
HETATM   28  C   UNL     1     -40.980  52.943 -54.047  1.00  0.00     0.037 A 
ENDBRANCH  22  23
ENDBRANCH   1  22
TORSDOF 6
ENDMDL
MODEL 7
REMARK VINA RESULT:      -7.4      2.196      4.702
REMARK  6 active torsions:
REMARK  status: ('A' for Active; 'I' for Inactive)
REMARK    1  A    between atoms: C_4  and  O_5 
REMARK    2  A    between atoms: O_5  and  C_6 
REMARK    3  A    between atoms: C_7  and  N_8 
REMARK       I    between atoms: N_8  and  C_9 
REMARK       I    between atoms: C_9  and  N_10 
REMARK    4  A    between atoms: N_10  and  C_11 
REMARK    5  A    between atoms: C_11  and  C_12 
REMARK    6  A    between atoms: C_12  and  C_13 
ROOT
HETATM    1  C   UNL     1     -42.600  54.299 -53.898  1.00  0.00     0.106 C 
HETATM    2  C   UNL     1     -42.579  54.303 -52.499  1.00  0.00     0.109 C 
HETATM    3  C   UNL     1     -41.468  53.750 -51.856  1.00  0.00     0.145 C 
HETATM    4  F   UNL     1     -41.378  53.801 -50.518  1.00  0.00    -0.204 F 
HETATM    5  C   UNL     1     -40.462  53.100 -52.569  1.00  0.00     0.045 C 
HETATM    6  C   UNL     1     -40.546  53.012 -53.957  1.00  0.00     0.006 C 
HETATM    7  C   UNL     1     -41.614  53.614 -54.623  1.00  0.00     0.040 C 
ENDROOT
BRANCH   2   8
HETATM    8  N   UNL     1     -43.583  54.879 -51.692  1.00  0.00    -0.304 N 
HETATM    9  C   UNL     1     -43.678  56.169 -51.247  1.00  0.00     0.320 C 
HETATM   10  N   UNL     1     -42.690  57.034 -51.610  1.00  0.00    -0.342 N 
HETATM   11  O   UNL     1     -44.711  56.535 -50.688  1.00  0.00    -0.247 OA
HETATM   12  H   UNL     1     -41.746  56.669 -51.644  1.00  0.00     0.164 HD
HETATM   13  H   UNL     1     -44.513  54.486 -51.788  1.00  0.00     0.171 HD
BRANCH  10  14
HETATM   14  C   UNL     1     -42.804  58.467 -51.395  1.00  0.00     0.132 C 
BRANCH  14  15
HETATM   15  C   UNL     1     -41.941  59.292 -52.346  1.00  0.00     0.102 C 
BRANCH  15  16
HETATM   16  C   UNL     1     -40.509  59.305 -51.941  1.00  0.00     0.148 A 
HETATM   17  N   UNL     1     -39.506  59.194 -52.823  1.00  0.00    -0.158 NA
HETATM   18  N   UNL     1     -38.431  59.241 -52.021  1.00  0.00    -0.270 N 
HETATM   19  H   UNL     1     -37.505  59.180 -52.427  1.00  0.00     0.190 HD
HETATM   20  C   UNL     1     -38.795  59.370 -50.719  1.00  0.00     0.227 A 
HETATM   21  N   UNL     1     -40.103  59.415 -50.633  1.00  0.00    -0.226 NA
ENDBRANCH  15  16
ENDBRANCH  14  15
ENDBRANCH  10  14
ENDBRANCH   2   8
BRANCH   1  22
HETATM   22  O   UNL     1     -43.594  54.983 -54.563  1.00  0.00    -0.309 OA
BRANCH  22  23
HETATM   23  C   UNL     1     -43.217  55.926 -55.499  1.00  0.00     0.076 A 
HETATM   24  C   UNL     1     -43.231  55.500 -56.829  1.00  0.00     0.037 A 
HETATM   25  C   UNL     1     -42.859  56.369 -57.855  1.00  0.00     0.003 A 
HETATM   26  C   UNL     1     -42.480  57.677 -57.557  1.00  0.00     0.000 A 
HETATM   27  C   UNL     1     -42.494  58.120 -56.236  1.00  0.00     0.003 A 
HETATM   28  C   UNL     1     -42.873  57.251 -55.208  1.00  0.00     0.037 A 
ENDBRANCH  22  23
ENDBRANCH   1  22
TORSDOF 6
ENDMDL
MODEL 8
REMARK VINA RESULT:      -7.4      2.517      4.387
REMARK  6 active torsions:
REMARK  status: ('A' for Active; 'I' for Inactive)
REMARK    1  A    between atoms: C_4  and  O_5 
REMARK    2  A    between atoms: O_5  and  C_6 
REMARK    3  A    between atoms: C_7  and  N_8 
REMARK       I    between atoms: N_8  and  C_9 
REMARK       I    between atoms: C_9  and  N_10 
REMARK    4  A    between atoms: N_10  and  C_11 
REMARK    5  A    between atoms: C_11  and  C_12 
REMARK    6  A    between atoms: C_12  and  C_13 
ROOT
HETATM    1  C   UNL     1     -42.834  54.552 -53.421  1.00  0.00     0.106 C 
HETATM    2  C   UNL     1     -43.558  55.725 -53.666  1.00  0.00     0.109 C 
HETATM    3  C   UNL     1     -43.514  56.268 -54.953  1.00  0.00     0.145 C 
HETATM    4  F   UNL     1     -44.252  57.351 -55.245  1.00  0.00    -0.204 F 
HETATM    5  C   UNL     1     -42.684  55.740 -55.940  1.00  0.00     0.045 C 
HETATM    6  C   UNL     1     -41.890  54.632 -55.653  1.00  0.00     0.006 C 
HETATM    7  C   UNL     1     -41.966  54.035 -54.394  1.00  0.00     0.040 C 
ENDROOT
BRANCH   2   8
HETATM    8  N   UNL     1     -44.373  56.368 -52.710  1.00  0.00    -0.304 N 
HETATM    9  C   UNL     1     -44.017  57.325 -51.800  1.00  0.00     0.320 C 
HETATM   10  N   UNL     1     -42.716  57.730 -51.786  1.00  0.00    -0.342 N 
HETATM   11  O   UNL     1     -44.897  57.893 -51.155  1.00  0.00    -0.247 OA
HETATM   12  H   UNL     1     -42.011  57.020 -51.949  1.00  0.00     0.164 HD
HETATM   13  H   UNL     1     -45.348  56.488 -52.963  1.00  0.00     0.171 HD
BRANCH  10  14
HETATM   14  C   UNL     1     -42.279  58.892 -51.032  1.00  0.00     0.132 C 
BRANCH  14  15
HETATM   15  C   UNL     1     -41.367  59.822 -51.829  1.00  0.00     0.102 C 
BRANCH  15  16
HETATM   16  C   UNL     1     -41.760  59.906 -53.262  1.00  0.00     0.148 A 
HETATM   17  N   UNL     1     -41.247  59.100 -54.202  1.00  0.00    -0.158 NA
HETATM   18  N   UNL     1     -41.868  59.542 -55.307  1.00  0.00    -0.270 N 
HETATM   19  H   UNL     1     -41.670  59.101 -56.198  1.00  0.00     0.190 HD
HETATM   20  C   UNL     1     -42.707  60.570 -55.022  1.00  0.00     0.227 A 
HETATM   21  N   UNL     1     -42.665  60.826 -53.736  1.00  0.00    -0.226 NA
ENDBRANCH  15  16
ENDBRANCH  14  15
ENDBRANCH  10  14
ENDBRANCH   2   8
BRANCH   1  22
HETATM   22  O   UNL     1     -42.988  53.900 -52.218  1.00  0.00    -0.309 OA
BRANCH  22  23
HETATM   23  C   UNL     1     -41.954  53.973 -51.304  1.00  0.00     0.076 A 
HETATM   24  C   UNL     1     -42.241  54.653 -50.119  1.00  0.00     0.037 A 
HETATM   25  C   UNL     1     -41.265  54.794 -49.130  1.00  0.00     0.003 A 
HETATM   26  C   UNL     1     -39.998  54.245 -49.319  1.00  0.00     0.000 A 
HETATM   27  C   UNL     1     -39.714  53.538 -50.485  1.00  0.00     0.003 A 
HETATM   28  C   UNL     1     -40.693  53.391 -51.473  1.00  0.00     0.037 A 
ENDBRANCH  22  23
ENDBRANCH   1  22
TORSDOF 6
ENDMDL
MODEL 9
REMARK VINA RESULT:      -7.4      3.986      5.744
REMARK  6 active torsions:
REMARK  status: ('A' for Active; 'I' for Inactive)
REMARK    1  A    between atoms: C_4  and  O_5 
REMARK    2  A    between atoms: O_5  and  C_6 
REMARK    3  A    between atoms: C_7  and  N_8 
REMARK       I    between atoms: N_8  and  C_9 
REMARK       I    between atoms: C_9  and  N_10 
REMARK    4  A    between atoms: N_10  and  C_11 
REMARK    5  A    between atoms: C_11  and  C_12 
REMARK    6  A    between atoms: C_12  and  C_13 
ROOT
HETATM    1  C   UNL     1     -42.210  56.948 -53.716  1.00  0.00     0.106 C 
HETATM    2  C   UNL     1     -43.369  56.662 -54.447  1.00  0.00     0.109 C 
HETATM    3  C   UNL     1     -44.534  57.368 -54.134  1.00  0.00     0.145 C 
HETATM    4  F   UNL     1     -45.646  57.174 -54.861  1.00  0.00    -0.204 F 
HETATM    5  C   UNL     1     -44.589  58.242 -53.050  1.00  0.00     0.045 C 
HETATM    6  C   UNL     1     -43.454  58.440 -52.266  1.00  0.00     0.006 C 
HETATM    7  C   UNL     1     -42.263  57.795 -52.600  1.00  0.00     0.040 C 
ENDROOT
BRANCH   2   8
HETATM    8  N   UNL     1     -43.426  55.745 -55.518  1.00  0.00    -0.304 N 
HETATM    9  C   UNL     1     -43.201  55.978 -56.846  1.00  0.00     0.320 C 
HETATM   10  N   UNL     1     -42.882  57.249 -57.218  1.00  0.00    -0.342 N 
HETATM   11  O   UNL     1     -43.134  55.023 -57.618  1.00  0.00    -0.247 OA
HETATM   12  H   UNL     1     -43.351  58.004 -56.731  1.00  0.00     0.164 HD
HETATM   13  H   UNL     1     -43.182  54.785 -55.297  1.00  0.00     0.171 HD
BRANCH  10  14
HETATM   14  C   UNL     1     -42.399  57.564 -58.552  1.00  0.00     0.132 C 
BRANCH  14  15
HETATM   15  C   UNL     1     -43.499  58.045 -59.495  1.00  0.00     0.102 C 
BRANCH  15  16
HETATM   16  C   UNL     1     -44.447  56.957 -59.859  1.00  0.00     0.148 A 
HETATM   17  N   UNL     1     -45.649  56.822 -59.281  1.00  0.00    -0.158 NA
HETATM   18  N   UNL     1     -46.126  55.730 -59.899  1.00  0.00    -0.270 N 
HETATM   19  H   UNL     1     -47.047  55.384 -59.657  1.00  0.00     0.190 HD
HETATM   20  C   UNL     1     -45.233  55.245 -60.799  1.00  0.00     0.227 A 
HETATM   21  N   UNL     1     -44.159  55.999 -60.800  1.00  0.00    -0.226 NA
ENDBRANCH  15  16
ENDBRANCH  14  15
ENDBRANCH  10  14
ENDBRANCH   2   8
BRANCH   1  22
HETATM   22  O   UNL     1     -41.010  56.397 -54.107  1.00  0.00    -0.309 OA
BRANCH  22  23
HETATM   23  C   UNL     1     -40.772  55.072 -53.793  1.00  0.00     0.076 A 
HETATM   24  C   UNL     1     -40.291  54.279 -54.836  1.00  0.00     0.037 A 
HETATM   25  C   UNL     1     -40.025  52.924 -54.631  1.00  0.00     0.003 A 
HETATM   26  C   UNL     1     -40.230  52.357 -53.375  1.00  0.00     0.000 A 
HETATM   27  C   UNL     1     -40.679  53.149 -52.320  1.00  0.00     0.003 A 
HETATM   28  C   UNL     1     -40.939  54.507 -52.524  1.00  0.00     0.037 A 
ENDBRANCH  22  23
ENDBRANCH   1  22
TORSDOF 6
ENDMDL
MODEL 10
REMARK VINA RESULT:      -7.3      2.643      6.765
REMARK  6 active torsions:
REMARK  status: ('A' for Active; 'I' for Inactive)
REMARK    1  A    between atoms: C_4  and  O_5 
REMARK    2  A    between atoms: O_5  and  C_6 
REMARK    3  A    between atoms: C_7  and  N_8 
REMARK       I    between atoms: N_8  and  C_9 
REMARK       I    between atoms: C_9  and  N_10 
REMARK    4  A    between atoms: N_10  and  C_11 
REMARK    5  A    between atoms: C_11  and  C_12 
REMARK    6  A    between atoms: C_12  and  C_13 
ROOT
HETATM    1  C   UNL     1     -43.313  56.960 -53.935  1.00  0.00     0.106 C 
HETATM    2  C   UNL     1     -43.401  55.564 -54.000  1.00  0.00     0.109 C 
HETATM    3  C   UNL     1     -42.851  54.922 -55.114  1.00  0.00     0.145 C 
HETATM    4  F   UNL     1     -42.852  53.581 -55.178  1.00  0.00    -0.204 F 
HETATM    5  C   UNL     1     -42.337  55.642 -56.191  1.00  0.00     0.045 C 
HETATM    6  C   UNL     1     -42.349  57.035 -56.158  1.00  0.00     0.006 C 
HETATM    7  C   UNL     1     -42.834  57.695 -55.028  1.00  0.00     0.040 C 
ENDROOT
BRANCH   2   8
HETATM    8  N   UNL     1     -43.963  54.756 -52.989  1.00  0.00    -0.304 N 
HETATM    9  C   UNL     1     -43.317  54.051 -52.011  1.00  0.00     0.320 C 
HETATM   10  N   UNL     1     -41.957  54.114 -51.983  1.00  0.00    -0.342 N 
HETATM   11  O   UNL     1     -43.978  53.532 -51.112  1.00  0.00    -0.247 OA
HETATM   12  H   UNL     1     -41.477  54.132 -52.875  1.00  0.00     0.164 HD
HETATM   13  H   UNL     1     -44.882  55.030 -52.658  1.00  0.00     0.171 HD
BRANCH  10  14
HETATM   14  C   UNL     1     -41.185  53.602 -50.863  1.00  0.00     0.132 C 
BRANCH  14  15
HETATM   15  C   UNL     1     -39.798  53.104 -51.262  1.00  0.00     0.102 C 
BRANCH  15  16
HETATM   16  C   UNL     1     -39.852  52.105 -52.364  1.00  0.00     0.148 A 
HETATM   17  N   UNL     1     -40.230  52.422 -53.610  1.00  0.00    -0.158 NA
HETATM   18  N   UNL     1     -40.140  51.236 -54.232  1.00  0.00    -0.270 N 
HETATM   19  H   UNL     1     -40.370  51.172 -55.217  1.00  0.00     0.190 HD
HETATM   20  C   UNL     1     -39.730  50.264 -53.378  1.00  0.00     0.227 A 
HETATM   21  N   UNL     1     -39.538  50.779 -52.187  1.00  0.00    -0.226 NA
ENDBRANCH  15  16
ENDBRANCH  14  15
ENDBRANCH  10  14
ENDBRANCH   2   8
BRANCH   1  22
HETATM   22  O   UNL     1     -43.691  57.608 -52.780  1.00  0.00    -0.309 OA
BRANCH  22  23
HETATM   23  C   UNL     1     -42.700  58.169 -51.997  1.00  0.00     0.076 A 
HETATM   24  C   UNL     1     -42.839  59.532 -51.727  1.00  0.00     0.037 A 
HETATM   25  C   UNL     1     -41.889  60.201 -50.953  1.00  0.00     0.003 A 
HETATM   26  C   UNL     1     -40.798  59.505 -50.435  1.00  0.00     0.000 A 
HETATM   27  C   UNL     1     -40.669  58.138 -50.674  1.00  0.00     0.003 A 
HETATM   28  C   UNL     1     -41.623  57.467 -51.444  1.00  0.00     0.037 A 
ENDBRANCH  22  23
ENDBRANCH   1  22
TORSDOF 6
ENDMDL
