MODEL 1
REMARK VINA RESULT:      -8.2      0.000      0.000
REMARK  5 active torsions:
REMARK  status: ('A' for Active; 'I' for Inactive)
REMARK    1  A    between atoms: C_2  and  C_3 
REMARK    2  A    between atoms: C_5  and  N_6 
REMARK       I    between atoms: N_6  and  C_7 
REMARK    3  A    between atoms: C_7  and  C_8 
REMARK    4  A    between atoms: C_9  and  C_10 
REMARK    5  A    between atoms: C_21  and  O_22 
ROOT
HETATM    1  N   UNL     1     -42.170  56.946 -57.401  1.00  0.00    -0.321 N 
HETATM    2  C   UNL     1     -43.119  56.746 -56.428  1.00  0.00     0.245 C 
HETATM    3  O   UNL     1     -44.172  57.351 -56.275  1.00  0.00    -0.268 OA
HETATM    4  H   UNL     1     -41.406  56.282 -57.479  1.00  0.00     0.169 HD
ENDROOT
BRANCH   1   5
HETATM    5  C   UNL     1     -42.144  57.943 -58.403  1.00  0.00     0.069 A 
HETATM    6  C   UNL     1     -41.985  59.307 -58.132  1.00  0.00     0.040 A 
HETATM    7  C   UNL     1     -41.940  60.269 -59.162  1.00  0.00    -0.048 A 
HETATM    8  C   UNL     1     -42.069  59.807 -60.480  1.00  0.00     0.011 A 
HETATM    9  C   UNL     1     -42.228  58.445 -60.767  1.00  0.00     0.039 A 
HETATM   10  C   UNL     1     -42.261  57.507 -59.736  1.00  0.00     0.095 A 
BRANCH   7  11
HETATM   11  C   UNL     1     -41.734  61.756 -58.817  1.00  0.00    -0.024 C 
HETATM   12  C   UNL     1     -42.471  62.082 -57.500  1.00  0.00     0.019 C 
HETATM   13  C   UNL     1     -42.295  62.643 -59.947  1.00  0.00     0.019 C 
HETATM   14  C   UNL     1     -40.252  62.151 -58.621  1.00  0.00     0.019 C 
ENDBRANCH   7  11
BRANCH  10  15
HETATM   15  O   UNL     1     -42.405  56.149 -59.907  1.00  0.00    -0.354 OA
HETATM   16  C   UNL     1     -43.717  55.668 -60.167  1.00  0.00     0.210 C 
ENDBRANCH  10  15
ENDBRANCH   1   5
BRANCH   2  17
HETATM   17  C   UNL     1     -42.744  55.628 -55.522  1.00  0.00     0.077 C 
HETATM   18  C   UNL     1     -41.514  55.586 -54.987  1.00  0.00     0.038 C 
BRANCH  18  19
HETATM   19  C   UNL     1     -41.053  54.500 -54.117  1.00  0.00     0.075 A 
HETATM   20  N   UNL     1     -40.876  53.279 -54.674  1.00  0.00    -0.245 NA
HETATM   21  C   UNL     1     -40.420  52.299 -53.867  1.00  0.00     0.086 A 
HETATM   22  C   UNL     1     -40.156  52.531 -52.494  1.00  0.00     0.085 A 
HETATM   23  C   UNL     1     -40.195  51.032 -54.391  1.00  0.00     0.034 A 
HETATM   24  N   UNL     1     -40.345  53.745 -51.941  1.00  0.00    -0.256 NA
HETATM   25  C   UNL     1     -39.690  51.484 -51.710  1.00  0.00     0.034 A 
HETATM   26  C   UNL     1     -40.788  54.718 -52.772  1.00  0.00     0.148 A 
HETATM   27  C   UNL     1     -39.469  50.215 -52.248  1.00  0.00     0.002 A 
HETATM   28  C   UNL     1     -39.720  49.989 -53.595  1.00  0.00     0.002 A 
ENDBRANCH  18  19
ENDBRANCH   2  17
TORSDOF 5
ENDMDL
MODEL 2
REMARK VINA RESULT:      -8.0      6.851      8.667
REMARK  5 active torsions:
REMARK  status: ('A' for Active; 'I' for Inactive)
REMARK    1  A    between atoms: C_2  and  C_3 
REMARK    2  A    between atoms: C_5  and  N_6 
REMARK       I    between atoms: N_6  and  C_7 
REMARK    3  A    between atoms: C_7  and  C_8 
REMARK    4  A    between atoms: C_9  and  C_10 
REMARK    5  A    between atoms: C_21  and  O_22 
ROOT
HETATM    1  N   UNL     1     -44.296  59.720 -50.284  1.00  0.00    -0.321 N 
HETATM    2  C   UNL     1     -45.317  58.887 -50.672  1.00  0.00     0.245 C 
HETATM    3  O   UNL     1     -46.522  59.087 -50.582  1.00  0.00    -0.268 OA
HETATM    4  H   UNL     1     -43.345  59.475 -50.538  1.00  0.00     0.169 HD
ENDROOT
BRANCH   1   5
HETATM    5  C   UNL     1     -44.391  60.964 -49.618  1.00  0.00     0.069 A 
HETATM    6  C   UNL     1     -44.889  61.109 -48.318  1.00  0.00     0.040 A 
HETATM    7  C   UNL     1     -44.944  62.366 -47.680  1.00  0.00    -0.048 A 
HETATM    8  C   UNL     1     -44.485  63.476 -48.403  1.00  0.00     0.011 A 
HETATM    9  C   UNL     1     -43.983  63.346 -49.705  1.00  0.00     0.039 A 
HETATM   10  C   UNL     1     -43.928  62.095 -50.317  1.00  0.00     0.095 A 
BRANCH   7  11
HETATM   11  C   UNL     1     -45.473  62.472 -46.237  1.00  0.00    -0.024 C 
HETATM   12  C   UNL     1     -44.840  61.357 -45.376  1.00  0.00     0.019 C 
HETATM   13  C   UNL     1     -47.008  62.315 -46.225  1.00  0.00     0.019 C 
HETATM   14  C   UNL     1     -45.148  63.819 -45.552  1.00  0.00     0.019 C 
ENDBRANCH   7  11
BRANCH  10  15
HETATM   15  O   UNL     1     -43.448  61.855 -51.584  1.00  0.00    -0.354 OA
HETATM   16  C   UNL     1     -43.539  62.922 -52.520  1.00  0.00     0.210 C 
ENDBRANCH  10  15
ENDBRANCH   1   5
BRANCH   2  17
HETATM   17  C   UNL     1     -44.797  57.636 -51.284  1.00  0.00     0.077 C 
HETATM   18  C   UNL     1     -43.478  57.383 -51.270  1.00  0.00     0.038 C 
BRANCH  18  19
HETATM   19  C   UNL     1     -42.881  56.195 -51.885  1.00  0.00     0.075 A 
HETATM   20  N   UNL     1     -42.060  56.379 -52.945  1.00  0.00    -0.245 NA
HETATM   21  C   UNL     1     -41.493  55.278 -53.478  1.00  0.00     0.086 A 
HETATM   22  C   UNL     1     -41.759  53.984 -52.965  1.00  0.00     0.085 A 
HETATM   23  C   UNL     1     -40.621  55.411 -54.553  1.00  0.00     0.034 A 
HETATM   24  N   UNL     1     -42.585  53.803 -51.917  1.00  0.00    -0.256 NA
HETATM   25  C   UNL     1     -41.147  52.885 -53.555  1.00  0.00     0.034 A 
HETATM   26  C   UNL     1     -43.131  54.924 -51.387  1.00  0.00     0.148 A 
HETATM   27  C   UNL     1     -40.274  53.031 -54.635  1.00  0.00     0.002 A 
HETATM   28  C   UNL     1     -40.008  54.300 -55.134  1.00  0.00     0.002 A 
ENDBRANCH  18  19
ENDBRANCH   2  17
TORSDOF 5
ENDMDL
MODEL 3
REMARK VINA RESULT:      -7.6      5.534      6.993
REMARK  5 active torsions:
REMARK  status: ('A' for Active; 'I' for Inactive)
REMARK    1  A    between atoms: C_2  and  C_3 
REMARK    2  A    between atoms: C_5  and  N_6 
REMARK       I    between atoms: N_6  and  C_7 
REMARK    3  A    between atoms: C_7  and  C_8 
REMARK    4  A    between atoms: C_9  and  C_10 
REMARK    5  A    between atoms: C_21  and  O_22 
ROOT
HETATM    1  N   UNL     1     -43.301  58.687 -50.962  1.00  0.00    -0.321 N 
HETATM    2  C   UNL     1     -41.989  58.850 -51.338  1.00  0.00     0.245 C 
HETATM    3  O   UNL     1     -41.407  59.898 -51.585  1.00  0.00    -0.268 OA
HETATM    4  H   UNL     1     -43.610  57.767 -50.666  1.00  0.00     0.169 HD
ENDROOT
BRANCH   1   5
HETATM    5  C   UNL     1     -44.307  59.674 -50.853  1.00  0.00     0.069 A 
HETATM    6  C   UNL     1     -44.376  60.594 -49.801  1.00  0.00     0.040 A 
HETATM    7  C   UNL     1     -45.383  61.580 -49.742  1.00  0.00    -0.048 A 
HETATM    8  C   UNL     1     -46.327  61.601 -50.779  1.00  0.00     0.011 A 
HETATM    9  C   UNL     1     -46.270  60.686 -51.838  1.00  0.00     0.039 A 
HETATM   10  C   UNL     1     -45.262  59.724 -51.886  1.00  0.00     0.095 A 
BRANCH   7  11
HETATM   11  C   UNL     1     -45.401  62.591 -48.579  1.00  0.00    -0.024 C 
HETATM   12  C   UNL     1     -45.109  61.852 -47.254  1.00  0.00     0.019 C 
HETATM   13  C   UNL     1     -46.784  63.269 -48.490  1.00  0.00     0.019 C 
HETATM   14  C   UNL     1     -44.350  63.716 -48.715  1.00  0.00     0.019 C 
ENDBRANCH   7  11
BRANCH  10  15
HETATM   15  O   UNL     1     -45.110  58.787 -52.882  1.00  0.00    -0.354 OA
HETATM   16  C   UNL     1     -44.865  59.276 -54.195  1.00  0.00     0.210 C 
ENDBRANCH  10  15
ENDBRANCH   1   5
BRANCH   2  17
HETATM   17  C   UNL     1     -41.272  57.549 -51.393  1.00  0.00     0.077 C 
HETATM   18  C   UNL     1     -41.911  56.452 -51.827  1.00  0.00     0.038 C 
BRANCH  18  19
HETATM   19  C   UNL     1     -41.289  55.126 -51.876  1.00  0.00     0.075 A 
HETATM   20  N   UNL     1     -41.370  54.434 -53.037  1.00  0.00    -0.245 NA
HETATM   21  C   UNL     1     -40.764  53.230 -53.076  1.00  0.00     0.086 A 
HETATM   22  C   UNL     1     -40.089  52.703 -51.946  1.00  0.00     0.085 A 
HETATM   23  C   UNL     1     -40.794  52.488 -54.251  1.00  0.00     0.034 A 
HETATM   24  N   UNL     1     -40.021  53.388 -50.789  1.00  0.00    -0.256 NA
HETATM   25  C   UNL     1     -39.485  51.456 -52.043  1.00  0.00     0.034 A 
HETATM   26  C   UNL     1     -40.622  54.602 -50.778  1.00  0.00     0.148 A 
HETATM   27  C   UNL     1     -39.522  50.720 -53.229  1.00  0.00     0.002 A 
HETATM   28  C   UNL     1     -40.177  51.239 -54.337  1.00  0.00     0.002 A 
ENDBRANCH  18  19
ENDBRANCH   2  17
TORSDOF 5
ENDMDL
MODEL 4
REMARK VINA RESULT:      -7.5      4.896      6.470
REMARK  5 active torsions:
REMARK  status: ('A' for Active; 'I' for Inactive)
REMARK    1  A    between atoms: C_2  and  C_3 
REMARK    2  A    between atoms: C_5  and  N_6 
REMARK       I    between atoms: N_6  and  C_7 
REMARK    3  A    between atoms: C_7  and  C_8 
REMARK    4  A    between atoms: C_9  and  C_10 
REMARK    5  A    between atoms: C_21  and  O_22 
ROOT
HETATM    1  N   UNL     1     -42.560  58.399 -51.854  1.00  0.00    -0.321 N 
HETATM    2  C   UNL     1     -41.559  57.796 -51.130  1.00  0.00     0.245 C 
HETATM    3  O   UNL     1     -40.894  58.283 -50.225  1.00  0.00    -0.268 OA
HETATM    4  H   UNL     1     -43.111  57.831 -52.489  1.00  0.00     0.169 HD
ENDROOT
BRANCH   1   5
HETATM    5  C   UNL     1     -43.001  59.741 -51.784  1.00  0.00     0.069 A 
HETATM    6  C   UNL     1     -43.798  60.239 -50.748  1.00  0.00     0.040 A 
HETATM    7  C   UNL     1     -44.198  61.591 -50.702  1.00  0.00    -0.048 A 
HETATM    8  C   UNL     1     -43.770  62.425 -51.745  1.00  0.00     0.011 A 
HETATM    9  C   UNL     1     -42.971  61.940 -52.789  1.00  0.00     0.039 A 
HETATM   10  C   UNL     1     -42.578  60.602 -52.813  1.00  0.00     0.095 A 
BRANCH   7  11
HETATM   11  C   UNL     1     -45.052  62.101 -49.525  1.00  0.00    -0.024 C 
HETATM   12  C   UNL     1     -44.388  63.355 -48.917  1.00  0.00     0.019 C 
HETATM   13  C   UNL     1     -45.164  61.008 -48.442  1.00  0.00     0.019 C 
HETATM   14  C   UNL     1     -46.492  62.494 -49.925  1.00  0.00     0.019 C 
ENDBRANCH   7  11
BRANCH  10  15
HETATM   15  O   UNL     1     -41.790  60.027 -53.784  1.00  0.00    -0.354 OA
HETATM   16  C   UNL     1     -42.281  60.067 -55.118  1.00  0.00     0.210 C 
ENDBRANCH  10  15
ENDBRANCH   1   5
BRANCH   2  17
HETATM   17  C   UNL     1     -41.357  56.385 -51.551  1.00  0.00     0.077 C 
HETATM   18  C   UNL     1     -40.835  55.499 -50.688  1.00  0.00     0.038 C 
BRANCH  18  19
HETATM   19  C   UNL     1     -40.568  54.100 -51.036  1.00  0.00     0.075 A 
HETATM   20  N   UNL     1     -40.510  53.778 -52.350  1.00  0.00    -0.245 NA
HETATM   21  C   UNL     1     -40.232  52.493 -52.652  1.00  0.00     0.086 A 
HETATM   22  C   UNL     1     -40.028  51.520 -51.642  1.00  0.00     0.085 A 
HETATM   23  C   UNL     1     -40.134  52.111 -53.985  1.00  0.00     0.034 A 
HETATM   24  N   UNL     1     -40.098  51.843 -50.336  1.00  0.00    -0.256 NA
HETATM   25  C   UNL     1     -39.745  50.212 -52.012  1.00  0.00     0.034 A 
HETATM   26  C   UNL     1     -40.363  53.141 -50.055  1.00  0.00     0.148 A 
HETATM   27  C   UNL     1     -39.651  49.840 -53.355  1.00  0.00     0.002 A 
HETATM   28  C   UNL     1     -39.844  50.794 -54.345  1.00  0.00     0.002 A 
ENDBRANCH  18  19
ENDBRANCH   2  17
TORSDOF 5
ENDMDL
MODEL 5
REMARK VINA RESULT:      -7.4      1.806      9.624
REMARK  5 active torsions:
REMARK  status: ('A' for Active; 'I' for Inactive)
REMARK    1  A    between atoms: C_2  and  C_3 
REMARK    2  A    between atoms: C_5  and  N_6 
REMARK       I    between atoms: N_6  and  C_7 
REMARK    3  A    between atoms: C_7  and  C_8 
REMARK    4  A    between atoms: C_9  and  C_10 
REMARK    5  A    between atoms: C_21  and  O_22 
ROOT
HETATM    1  N   UNL     1     -41.588  55.116 -54.448  1.00  0.00    -0.321 N 
HETATM    2  C   UNL     1     -42.898  55.316 -54.813  1.00  0.00     0.245 C 
HETATM    3  O   UNL     1     -43.889  54.738 -54.388  1.00  0.00    -0.268 OA
HETATM    4  H   UNL     1     -40.883  55.760 -54.793  1.00  0.00     0.169 HD
ENDROOT
BRANCH   1   5
HETATM    5  C   UNL     1     -41.068  54.145 -53.562  1.00  0.00     0.069 A 
HETATM    6  C   UNL     1     -40.738  52.842 -53.951  1.00  0.00     0.040 A 
HETATM    7  C   UNL     1     -40.198  51.909 -53.040  1.00  0.00    -0.048 A 
HETATM    8  C   UNL     1     -40.010  52.335 -51.717  1.00  0.00     0.011 A 
HETATM    9  C   UNL     1     -40.335  53.637 -51.314  1.00  0.00     0.039 A 
HETATM   10  C   UNL     1     -40.859  54.548 -52.230  1.00  0.00     0.095 A 
BRANCH   7  11
HETATM   11  C   UNL     1     -39.823  50.495 -53.521  1.00  0.00    -0.024 C 
HETATM   12  C   UNL     1     -39.667  49.563 -52.299  1.00  0.00     0.019 C 
HETATM   13  C   UNL     1     -38.493  50.538 -54.301  1.00  0.00     0.019 C 
HETATM   14  C   UNL     1     -40.876  49.854 -54.453  1.00  0.00     0.019 C 
ENDBRANCH   7  11
BRANCH  10  15
HETATM   15  O   UNL     1     -41.204  55.849 -51.941  1.00  0.00    -0.354 OA
HETATM   16  C   UNL     1     -41.508  56.149 -50.585  1.00  0.00     0.210 C 
ENDBRANCH  10  15
ENDBRANCH   1   5
BRANCH   2  17
HETATM   17  C   UNL     1     -43.022  56.399 -55.824  1.00  0.00     0.077 C 
HETATM   18  C   UNL     1     -42.728  56.150 -57.110  1.00  0.00     0.038 C 
BRANCH  18  19
HETATM   19  C   UNL     1     -42.788  57.170 -58.161  1.00  0.00     0.075 A 
HETATM   20  N   UNL     1     -42.194  58.362 -57.915  1.00  0.00    -0.245 NA
HETATM   21  C   UNL     1     -42.230  59.278 -58.904  1.00  0.00     0.086 A 
HETATM   22  C   UNL     1     -42.875  59.013 -60.138  1.00  0.00     0.085 A 
HETATM   23  C   UNL     1     -41.614  60.510 -58.717  1.00  0.00     0.034 A 
HETATM   24  N   UNL     1     -43.474  57.830 -60.374  1.00  0.00    -0.256 NA
HETATM   25  C   UNL     1     -42.881  59.995 -61.121  1.00  0.00     0.034 A 
HETATM   26  C   UNL     1     -43.413  56.919 -59.374  1.00  0.00     0.148 A 
HETATM   27  C   UNL     1     -42.260  61.229 -60.920  1.00  0.00     0.002 A 
HETATM   28  C   UNL     1     -41.622  61.486 -59.714  1.00  0.00     0.002 A 
ENDBRANCH  18  19
ENDBRANCH   2  17
TORSDOF 5
ENDMDL
MODEL 6
REMARK VINA RESULT:      -7.3      5.589      7.248
REMARK  5 active torsions:
REMARK  status: ('A' for Active; 'I' for Inactive)
REMARK    1  A    between atoms: C_2  and  C_3 
REMARK    2  A    between atoms: C_5  and  N_6 
REMARK       I    between atoms: N_6  and  C_7 
REMARK    3  A    between atoms: C_7  and  C_8 
REMARK    4  A    between atoms: C_9  and  C_10 
REMARK    5  A    between atoms: C_21  and  O_22 
ROOT
HETATM    1  N   UNL     1     -42.519  59.351 -51.265  1.00  0.00    -0.321 N 
HETATM    2  C   UNL     1     -41.380  58.901 -50.642  1.00  0.00     0.245 C 
HETATM    3  O   UNL     1     -40.771  59.433 -49.723  1.00  0.00    -0.268 OA
HETATM    4  H   UNL     1     -42.985  58.739 -51.927  1.00  0.00     0.169 HD
ENDROOT
BRANCH   1   5
HETATM    5  C   UNL     1     -43.209  60.566 -51.051  1.00  0.00     0.069 A 
HETATM    6  C   UNL     1     -43.921  60.855 -49.882  1.00  0.00     0.040 A 
HETATM    7  C   UNL     1     -44.576  62.091 -49.697  1.00  0.00    -0.048 A 
HETATM    8  C   UNL     1     -44.496  63.025 -50.740  1.00  0.00     0.011 A 
HETATM    9  C   UNL     1     -43.786  62.750 -51.916  1.00  0.00     0.039 A 
HETATM   10  C   UNL     1     -43.136  61.526 -52.078  1.00  0.00     0.095 A 
BRANCH   7  11
HETATM   11  C   UNL     1     -45.324  62.375 -48.381  1.00  0.00    -0.024 C 
HETATM   12  C   UNL     1     -46.806  62.677 -48.688  1.00  0.00     0.019 C 
HETATM   13  C   UNL     1     -44.694  63.591 -47.668  1.00  0.00     0.019 C 
HETATM   14  C   UNL     1     -45.295  61.197 -47.381  1.00  0.00     0.019 C 
ENDBRANCH   7  11
BRANCH  10  15
HETATM   15  O   UNL     1     -42.408  61.158 -53.186  1.00  0.00    -0.354 OA
HETATM   16  C   UNL     1     -43.096  61.133 -54.430  1.00  0.00     0.210 C 
ENDBRANCH  10  15
ENDBRANCH   1   5
BRANCH   2  17
HETATM   17  C   UNL     1     -40.931  57.599 -51.202  1.00  0.00     0.077 C 
HETATM   18  C   UNL     1     -41.680  56.973 -52.123  1.00  0.00     0.038 C 
BRANCH  18  19
HETATM   19  C   UNL     1     -41.329  55.671 -52.695  1.00  0.00     0.075 A 
HETATM   20  N   UNL     1     -40.757  54.757 -51.877  1.00  0.00    -0.245 NA
HETATM   21  C   UNL     1     -40.470  53.552 -52.411  1.00  0.00     0.086 A 
HETATM   22  C   UNL     1     -40.738  53.262 -53.772  1.00  0.00     0.085 A 
HETATM   23  C   UNL     1     -39.905  52.567 -51.610  1.00  0.00     0.034 A 
HETATM   24  N   UNL     1     -41.296  54.177 -54.586  1.00  0.00    -0.256 NA
HETATM   25  C   UNL     1     -40.420  52.004 -54.268  1.00  0.00     0.034 A 
HETATM   26  C   UNL     1     -41.591  55.375 -54.025  1.00  0.00     0.148 A 
HETATM   27  C   UNL     1     -39.851  51.023 -53.454  1.00  0.00     0.002 A 
HETATM   28  C   UNL     1     -39.595  51.305 -52.119  1.00  0.00     0.002 A 
ENDBRANCH  18  19
ENDBRANCH   2  17
TORSDOF 5
ENDMDL
MODEL 7
REMARK VINA RESULT:      -7.3      6.587      8.334
REMARK  5 active torsions:
REMARK  status: ('A' for Active; 'I' for Inactive)
REMARK    1  A    between atoms: C_2  and  C_3 
REMARK    2  A    between atoms: C_5  and  N_6 
REMARK       I    between atoms: N_6  and  C_7 
REMARK    3  A    between atoms: C_7  and  C_8 
REMARK    4  A    between atoms: C_9  and  C_10 
REMARK    5  A    between atoms: C_21  and  O_22 
ROOT
HETATM    1  N   UNL     1     -43.651  59.788 -50.666  1.00  0.00    -0.321 N 
HETATM    2  C   UNL     1     -42.296  59.982 -50.783  1.00  0.00     0.245 C 
HETATM    3  O   UNL     1     -41.638  60.927 -50.369  1.00  0.00    -0.268 OA
HETATM    4  H   UNL     1     -44.041  58.894 -50.946  1.00  0.00     0.169 HD
ENDROOT
BRANCH   1   5
HETATM    5  C   UNL     1     -44.614  60.666 -50.117  1.00  0.00     0.069 A 
HETATM    6  C   UNL     1     -44.700  60.964 -48.753  1.00  0.00     0.040 A 
HETATM    7  C   UNL     1     -45.661  61.865 -48.248  1.00  0.00    -0.048 A 
HETATM    8  C   UNL     1     -46.542  62.450 -49.169  1.00  0.00     0.011 A 
HETATM    9  C   UNL     1     -46.468  62.161 -50.538  1.00  0.00     0.039 A 
HETATM   10  C   UNL     1     -45.505  61.275 -51.020  1.00  0.00     0.095 A 
BRANCH   7  11
HETATM   11  C   UNL     1     -45.698  62.185 -46.742  1.00  0.00    -0.024 C 
HETATM   12  C   UNL     1     -45.109  63.593 -46.503  1.00  0.00     0.019 C 
HETATM   13  C   UNL     1     -44.866  61.146 -45.960  1.00  0.00     0.019 C 
HETATM   14  C   UNL     1     -47.121  62.177 -46.137  1.00  0.00     0.019 C 
ENDBRANCH   7  11
BRANCH  10  15
HETATM   15  O   UNL     1     -45.341  60.929 -52.342  1.00  0.00    -0.354 OA
HETATM   16  C   UNL     1     -46.324  61.398 -53.257  1.00  0.00     0.210 C 
ENDBRANCH  10  15
ENDBRANCH   1   5
BRANCH   2  17
HETATM   17  C   UNL     1     -41.642  58.845 -51.481  1.00  0.00     0.077 C 
HETATM   18  C   UNL     1     -42.384  57.977 -52.187  1.00  0.00     0.038 C 
BRANCH  18  19
HETATM   19  C   UNL     1     -41.822  56.810 -52.872  1.00  0.00     0.075 A 
HETATM   20  N   UNL     1     -41.488  55.737 -52.118  1.00  0.00    -0.245 NA
HETATM   21  C   UNL     1     -41.004  54.659 -52.767  1.00  0.00     0.086 A 
HETATM   22  C   UNL     1     -40.833  54.656 -54.175  1.00  0.00     0.085 A 
HETATM   23  C   UNL     1     -40.669  53.520 -52.045  1.00  0.00     0.034 A 
HETATM   24  N   UNL     1     -41.155  55.730 -54.920  1.00  0.00    -0.256 NA
HETATM   25  C   UNL     1     -40.327  53.518 -54.790  1.00  0.00     0.034 A 
HETATM   26  C   UNL     1     -41.655  56.795 -54.250  1.00  0.00     0.148 A 
HETATM   27  C   UNL     1     -39.994  52.380 -54.054  1.00  0.00     0.002 A 
HETATM   28  C   UNL     1     -40.167  52.380 -52.676  1.00  0.00     0.002 A 
ENDBRANCH  18  19
ENDBRANCH   2  17
TORSDOF 5
ENDMDL
MODEL 8
REMARK VINA RESULT:      -7.3      3.022      3.433
REMARK  5 active torsions:
REMARK  status: ('A' for Active; 'I' for Inactive)
REMARK    1  A    between atoms: C_2  and  C_3 
REMARK    2  A    between atoms: C_5  and  N_6 
REMARK       I    between atoms: N_6  and  C_7 
REMARK    3  A    between atoms: C_7  and  C_8 
REMARK    4  A    between atoms: C_9  and  C_10 
REMARK    5  A    between atoms: C_21  and  O_22 
ROOT
HETATM    1  N   UNL     1     -44.394  56.785 -57.620  1.00  0.00    -0.321 N 
HETATM    2  C   UNL     1     -43.046  57.050 -57.594  1.00  0.00     0.245 C 
HETATM    3  O   UNL     1     -42.442  57.914 -58.214  1.00  0.00    -0.268 OA
HETATM    4  H   UNL     1     -44.772  56.119 -56.955  1.00  0.00     0.169 HD
ENDROOT
BRANCH   1   5
HETATM    5  C   UNL     1     -45.386  57.388 -58.427  1.00  0.00     0.069 A 
HETATM    6  C   UNL     1     -45.990  58.614 -58.122  1.00  0.00     0.040 A 
HETATM    7  C   UNL     1     -46.959  59.195 -58.966  1.00  0.00    -0.048 A 
HETATM    8  C   UNL     1     -47.307  58.490 -60.128  1.00  0.00     0.011 A 
HETATM    9  C   UNL     1     -46.712  57.263 -60.446  1.00  0.00     0.039 A 
HETATM   10  C   UNL     1     -45.748  56.708 -59.605  1.00  0.00     0.095 A 
BRANCH   7  11
HETATM   11  C   UNL     1     -47.574  60.560 -58.604  1.00  0.00    -0.024 C 
HETATM   12  C   UNL     1     -48.957  60.342 -57.952  1.00  0.00     0.019 C 
HETATM   13  C   UNL     1     -47.741  61.418 -59.876  1.00  0.00     0.019 C 
HETATM   14  C   UNL     1     -46.724  61.382 -57.609  1.00  0.00     0.019 C 
ENDBRANCH   7  11
BRANCH  10  15
HETATM   15  O   UNL     1     -45.097  55.516 -59.826  1.00  0.00    -0.354 OA
HETATM   16  C   UNL     1     -45.068  55.037 -61.165  1.00  0.00     0.210 C 
ENDBRANCH  10  15
ENDBRANCH   1   5
BRANCH   2  17
HETATM   17  C   UNL     1     -42.332  56.147 -56.653  1.00  0.00     0.077 C 
HETATM   18  C   UNL     1     -42.814  55.957 -55.414  1.00  0.00     0.038 C 
BRANCH  18  19
HETATM   19  C   UNL     1     -42.151  55.115 -54.414  1.00  0.00     0.075 A 
HETATM   20  N   UNL     1     -41.566  53.971 -54.842  1.00  0.00    -0.245 NA
HETATM   21  C   UNL     1     -40.933  53.225 -53.914  1.00  0.00     0.086 A 
HETATM   22  C   UNL     1     -40.896  53.610 -52.551  1.00  0.00     0.085 A 
HETATM   23  C   UNL     1     -40.292  52.053 -54.302  1.00  0.00     0.034 A 
HETATM   24  N   UNL     1     -41.489  54.742 -52.128  1.00  0.00    -0.256 NA
HETATM   25  C   UNL     1     -40.229  52.801 -51.639  1.00  0.00     0.034 A 
HETATM   26  C   UNL     1     -42.106  55.485 -53.078  1.00  0.00     0.148 A 
HETATM   27  C   UNL     1     -39.591  51.626 -52.040  1.00  0.00     0.002 A 
HETATM   28  C   UNL     1     -39.621  51.252 -53.377  1.00  0.00     0.002 A 
ENDBRANCH  18  19
ENDBRANCH   2  17
TORSDOF 5
ENDMDL
MODEL 9
REMARK VINA RESULT:      -7.2      1.789      2.988
REMARK  5 active torsions:
REMARK  status: ('A' for Active; 'I' for Inactive)
REMARK    1  A    between atoms: C_2  and  C_3 
REMARK    2  A    between atoms: C_5  and  N_6 
REMARK       I    between atoms: N_6  and  C_7 
REMARK    3  A    between atoms: C_7  and  C_8 
REMARK    4  A    between atoms: C_9  and  C_10 
REMARK    5  A    between atoms: C_21  and  O_22 
ROOT
HETATM    1  N   UNL     1     -42.495  57.345 -55.857  1.00  0.00    -0.321 N 
HETATM    2  C   UNL     1     -43.429  56.880 -54.963  1.00  0.00     0.245 C 
HETATM    3  O   UNL     1     -44.533  57.350 -54.723  1.00  0.00    -0.268 OA
HETATM    4  H   UNL     1     -41.674  56.778 -56.042  1.00  0.00     0.169 HD
ENDROOT
BRANCH   1   5
HETATM    5  C   UNL     1     -42.550  58.517 -56.646  1.00  0.00     0.069 A 
HETATM    6  C   UNL     1     -43.116  58.561 -57.925  1.00  0.00     0.040 A 
HETATM    7  C   UNL     1     -43.173  59.756 -58.672  1.00  0.00    -0.048 A 
HETATM    8  C   UNL     1     -42.629  60.909 -58.085  1.00  0.00     0.011 A 
HETATM    9  C   UNL     1     -42.060  60.880 -56.805  1.00  0.00     0.039 A 
HETATM   10  C   UNL     1     -42.021  59.691 -56.078  1.00  0.00     0.095 A 
BRANCH   7  11
HETATM   11  C   UNL     1     -43.832  59.762 -60.064  1.00  0.00    -0.024 C 
HETATM   12  C   UNL     1     -44.545  58.413 -60.298  1.00  0.00     0.019 C 
HETATM   13  C   UNL     1     -42.761  59.968 -61.155  1.00  0.00     0.019 C 
HETATM   14  C   UNL     1     -44.889  60.876 -60.248  1.00  0.00     0.019 C 
ENDBRANCH   7  11
BRANCH  10  15
HETATM   15  O   UNL     1     -41.493  59.554 -54.814  1.00  0.00    -0.354 OA
HETATM   16  C   UNL     1     -42.130  60.279 -53.769  1.00  0.00     0.210 C 
ENDBRANCH  10  15
ENDBRANCH   1   5
BRANCH   2  17
HETATM   17  C   UNL     1     -42.963  55.644 -54.282  1.00  0.00     0.077 C 
HETATM   18  C   UNL     1     -41.654  55.465 -54.044  1.00  0.00     0.038 C 
BRANCH  18  19
HETATM   19  C   UNL     1     -41.109  54.259 -53.413  1.00  0.00     0.075 A 
HETATM   20  N   UNL     1     -40.958  53.157 -54.185  1.00  0.00    -0.245 NA
HETATM   21  C   UNL     1     -40.425  52.067 -53.597  1.00  0.00     0.086 A 
HETATM   22  C   UNL     1     -40.056  52.068 -52.228  1.00  0.00     0.085 A 
HETATM   23  C   UNL     1     -40.224  50.915 -54.349  1.00  0.00     0.034 A 
HETATM   24  N   UNL     1     -40.219  53.162 -51.461  1.00  0.00    -0.256 NA
HETATM   25  C   UNL     1     -39.513  50.915 -51.676  1.00  0.00     0.034 A 
HETATM   26  C   UNL     1     -40.741  54.251 -52.076  1.00  0.00     0.148 A 
HETATM   27  C   UNL     1     -39.317  49.764 -52.441  1.00  0.00     0.002 A 
HETATM   28  C   UNL     1     -39.671  49.765 -53.784  1.00  0.00     0.002 A 
ENDBRANCH  18  19
ENDBRANCH   2  17
TORSDOF 5
ENDMDL
MODEL 10
REMARK VINA RESULT:      -7.2      1.676      2.666
REMARK  5 active torsions:
REMARK  status: ('A' for Active; 'I' for Inactive)
REMARK    1  A    between atoms: C_2  and  C_3 
REMARK    2  A    between atoms: C_5  and  N_6 
REMARK       I    between atoms: N_6  and  C_7 
REMARK    3  A    between atoms: C_7  and  C_8 
REMARK    4  A    between atoms: C_9  and  C_10 
REMARK    5  A    between atoms: C_21  and  O_22 
ROOT
HETATM    1  N   UNL     1     -42.162  57.780 -56.778  1.00  0.00    -0.321 N 
HETATM    2  C   UNL     1     -43.145  57.840 -55.820  1.00  0.00     0.245 C 
HETATM    3  O   UNL     1     -44.231  58.399 -55.896  1.00  0.00    -0.268 OA
HETATM    4  H   UNL     1     -41.366  57.171 -56.620  1.00  0.00     0.169 HD
ENDROOT
BRANCH   1   5
HETATM    5  C   UNL     1     -42.136  58.413 -58.042  1.00  0.00     0.069 A 
HETATM    6  C   UNL     1     -41.916  59.784 -58.215  1.00  0.00     0.040 A 
HETATM    7  C   UNL     1     -41.873  60.374 -59.496  1.00  0.00    -0.048 A 
HETATM    8  C   UNL     1     -42.070  59.532 -60.600  1.00  0.00     0.011 A 
HETATM    9  C   UNL     1     -42.292  58.158 -60.442  1.00  0.00     0.039 A 
HETATM   10  C   UNL     1     -42.321  57.590 -59.168  1.00  0.00     0.095 A 
BRANCH   7  11
HETATM   11  C   UNL     1     -41.598  61.883 -59.638  1.00  0.00    -0.024 C 
HETATM   12  C   UNL     1     -41.498  62.246 -61.135  1.00  0.00     0.019 C 
HETATM   13  C   UNL     1     -40.273  62.247 -58.936  1.00  0.00     0.019 C 
HETATM   14  C   UNL     1     -42.699  62.778 -59.024  1.00  0.00     0.019 C 
ENDBRANCH   7  11
BRANCH  10  15
HETATM   15  O   UNL     1     -42.522  56.255 -58.903  1.00  0.00    -0.354 OA
HETATM   16  C   UNL     1     -43.847  55.761 -59.055  1.00  0.00     0.210 C 
ENDBRANCH  10  15
ENDBRANCH   1   5
BRANCH   2  17
HETATM   17  C   UNL     1     -42.761  57.086 -54.598  1.00  0.00     0.077 C 
HETATM   18  C   UNL     1     -41.722  56.236 -54.636  1.00  0.00     0.038 C 
BRANCH  18  19
HETATM   19  C   UNL     1     -41.303  55.427 -53.488  1.00  0.00     0.075 A 
HETATM   20  N   UNL     1     -41.535  55.923 -52.249  1.00  0.00    -0.245 NA
HETATM   21  C   UNL     1     -41.173  55.151 -51.204  1.00  0.00     0.086 A 
HETATM   22  C   UNL     1     -40.560  53.887 -51.392  1.00  0.00     0.085 A 
HETATM   23  C   UNL     1     -41.411  55.599 -49.910  1.00  0.00     0.034 A 
HETATM   24  N   UNL     1     -40.321  53.402 -52.625  1.00  0.00    -0.256 NA
HETATM   25  C   UNL     1     -40.207  53.136 -50.278  1.00  0.00     0.034 A 
HETATM   26  C   UNL     1     -40.707  54.186 -53.661  1.00  0.00     0.148 A 
HETATM   27  C   UNL     1     -40.450  53.598 -48.983  1.00  0.00     0.002 A 
HETATM   28  C   UNL     1     -41.057  54.833 -48.798  1.00  0.00     0.002 A 
ENDBRANCH  18  19
ENDBRANCH   2  17
TORSDOF 5
ENDMDL
