MODEL 1
REMARK VINA RESULT:      -7.2      0.000      0.000
REMARK  4 active torsions:
REMARK  status: ('A' for Active; 'I' for Inactive)
REMARK    1  A    between atoms: N_2  and  C_4 
REMARK    2  A    between atoms: C_4  and  C_5 
REMARK    3  A    between atoms: C_8  and  C_9 
REMARK       I    between atoms: C_9  and  N_10 
REMARK    4  A    between atoms: N_10  and  C_11 
ROOT
HETATM    1  C   UNL     1     -42.644  55.590 -55.381  1.00  0.00     0.269 C 
HETATM    2  N   UNL     1     -42.117  55.838 -56.633  1.00  0.00    -0.153 N 
HETATM    3  O   UNL     1     -43.604  56.132 -54.847  1.00  0.00    -0.267 OA
HETATM    4  H   UNL     1     -41.206  55.486 -56.877  1.00  0.00     0.187 HD
ENDROOT
BRANCH   1   5
HETATM    5  C   UNL     1     -41.940  54.543 -54.591  1.00  0.00     0.032 A 
HETATM    6  C   UNL     1     -40.855  53.881 -55.181  1.00  0.00     0.017 A 
HETATM    7  C   UNL     1     -40.077  52.994 -54.433  1.00  0.00     0.010 A 
HETATM    8  C   UNL     1     -40.364  52.768 -53.079  1.00  0.00    -0.033 A 
HETATM    9  C   UNL     1     -41.470  53.411 -52.499  1.00  0.00     0.010 A 
HETATM   10  C   UNL     1     -42.252  54.297 -53.249  1.00  0.00     0.017 A 
BRANCH   8  11
HETATM   11  C   UNL     1     -39.445  51.917 -52.241  1.00  0.00     0.272 C 
BRANCH  11  12
HETATM   12  N   UNL     1     -39.937  50.492 -52.091  1.00  0.00    -0.075 N 
HETATM   13  C   UNL     1     -39.494  49.842 -50.807  1.00  0.00     0.269 C 
HETATM   14  H   UNL     1     -40.963  50.539 -52.050  1.00  0.00     0.279 HD
HETATM   15  C   UNL     1     -39.580  49.653 -53.284  1.00  0.00     0.269 C 
ENDBRANCH  11  12
ENDBRANCH   8  11
ENDBRANCH   1   5
BRANCH   2  16
HETATM   16  C   UNL     1     -42.816  56.567 -57.565  1.00  0.00     0.708 A 
HETATM   17  N   UNL     1     -42.406  57.599 -58.264  1.00  0.00    -0.062 NA
HETATM   18  C   UNL     1     -43.487  58.022 -58.994  1.00  0.00     0.103 A 
HETATM   19  C   UNL     1     -44.596  57.223 -58.739  1.00  0.00     0.078 A 
HETATM   20  C   UNL     1     -43.603  59.091 -59.891  1.00  0.00     0.034 A 
HETATM   21  N   UNL     1     -44.136  56.298 -57.836  1.00  0.00    -0.187 N 
HETATM   22  C   UNL     1     -45.842  57.429 -59.332  1.00  0.00     0.032 A 
HETATM   23  H   UNL     1     -44.684  55.552 -57.438  1.00  0.00     0.184 HD
HETATM   24  C   UNL     1     -45.942  58.505 -60.222  1.00  0.00     0.002 A 
HETATM   25  C   UNL     1     -44.843  59.323 -60.500  1.00  0.00     0.002 A 
ENDBRANCH   2  16
TORSDOF 4
ENDMDL
MODEL 2
REMARK VINA RESULT:      -7.0      4.940      9.024
REMARK  4 active torsions:
REMARK  status: ('A' for Active; 'I' for Inactive)
REMARK    1  A    between atoms: N_2  and  C_4 
REMARK    2  A    between atoms: C_4  and  C_5 
REMARK    3  A    between atoms: C_8  and  C_9 
REMARK       I    between atoms: C_9  and  N_10 
REMARK    4  A    between atoms: N_10  and  C_11 
ROOT
HETATM    1  C   UNL     1     -41.840  55.850 -51.769  1.00  0.00     0.269 C 
HETATM    2  N   UNL     1     -41.003  55.447 -52.790  1.00  0.00    -0.153 N 
HETATM    3  O   UNL     1     -42.533  55.147 -51.043  1.00  0.00    -0.267 OA
HETATM    4  H   UNL     1     -40.653  56.121 -53.452  1.00  0.00     0.187 HD
ENDROOT
BRANCH   1   5
HETATM    5  C   UNL     1     -41.909  57.320 -51.544  1.00  0.00     0.032 A 
HETATM    6  C   UNL     1     -42.928  58.043 -52.177  1.00  0.00     0.017 A 
HETATM    7  C   UNL     1     -43.119  59.396 -51.887  1.00  0.00     0.010 A 
HETATM    8  C   UNL     1     -42.302  60.041 -50.948  1.00  0.00    -0.033 A 
HETATM    9  C   UNL     1     -41.263  59.320 -50.337  1.00  0.00     0.010 A 
HETATM   10  C   UNL     1     -41.069  57.965 -50.629  1.00  0.00     0.017 A 
BRANCH   8  11
HETATM   11  C   UNL     1     -42.594  61.462 -50.537  1.00  0.00     0.272 C 
BRANCH  11  12
HETATM   12  N   UNL     1     -44.061  61.698 -50.243  1.00  0.00    -0.075 N 
HETATM   13  C   UNL     1     -44.534  63.071 -50.643  1.00  0.00     0.269 C 
HETATM   14  H   UNL     1     -44.588  61.033 -50.823  1.00  0.00     0.279 HD
HETATM   15  C   UNL     1     -44.396  61.398 -48.811  1.00  0.00     0.269 C 
ENDBRANCH  11  12
ENDBRANCH   8  11
ENDBRANCH   1   5
BRANCH   2  16
HETATM   16  C   UNL     1     -40.633  54.131 -52.929  1.00  0.00     0.708 A 
HETATM   17  N   UNL     1     -40.666  53.387 -54.009  1.00  0.00    -0.062 NA
HETATM   18  C   UNL     1     -40.275  52.131 -53.621  1.00  0.00     0.103 A 
HETATM   19  C   UNL     1     -39.988  52.103 -52.262  1.00  0.00     0.078 A 
HETATM   20  C   UNL     1     -40.149  50.957 -54.374  1.00  0.00     0.034 A 
HETATM   21  N   UNL     1     -40.212  53.392 -51.850  1.00  0.00    -0.187 N 
HETATM   22  C   UNL     1     -39.578  50.952 -51.588  1.00  0.00     0.032 A 
HETATM   23  H   UNL     1     -40.092  53.730 -50.909  1.00  0.00     0.184 HD
HETATM   24  C   UNL     1     -39.462  49.786 -52.355  1.00  0.00     0.002 A 
HETATM   25  C   UNL     1     -39.740  49.785 -53.724  1.00  0.00     0.002 A 
ENDBRANCH   2  16
TORSDOF 4
ENDMDL
MODEL 3
REMARK VINA RESULT:      -6.8      5.612      9.205
REMARK  4 active torsions:
REMARK  status: ('A' for Active; 'I' for Inactive)
REMARK    1  A    between atoms: N_2  and  C_4 
REMARK    2  A    between atoms: C_4  and  C_5 
REMARK    3  A    between atoms: C_8  and  C_9 
REMARK       I    between atoms: C_9  and  N_10 
REMARK    4  A    between atoms: N_10  and  C_11 
ROOT
HETATM    1  C   UNL     1     -43.257  56.938 -52.232  1.00  0.00     0.269 C 
HETATM    2  N   UNL     1     -42.031  56.579 -51.708  1.00  0.00    -0.153 N 
HETATM    3  O   UNL     1     -43.897  56.370 -53.108  1.00  0.00    -0.267 OA
HETATM    4  H   UNL     1     -41.508  57.235 -51.150  1.00  0.00     0.187 HD
ENDROOT
BRANCH   1   5
HETATM    5  C   UNL     1     -43.854  58.176 -51.661  1.00  0.00     0.032 A 
HETATM    6  C   UNL     1     -45.217  58.169 -51.335  1.00  0.00     0.017 A 
HETATM    7  C   UNL     1     -45.790  59.254 -50.669  1.00  0.00     0.010 A 
HETATM    8  C   UNL     1     -45.005  60.358 -50.306  1.00  0.00    -0.033 A 
HETATM    9  C   UNL     1     -43.646  60.374 -50.661  1.00  0.00     0.010 A 
HETATM   10  C   UNL     1     -43.071  59.288 -51.331  1.00  0.00     0.017 A 
BRANCH   8  11
HETATM   11  C   UNL     1     -45.593  61.466 -49.471  1.00  0.00     0.272 C 
BRANCH  11  12
HETATM   12  N   UNL     1     -44.735  61.818 -48.274  1.00  0.00    -0.075 N 
HETATM   13  C   UNL     1     -45.087  61.033 -47.038  1.00  0.00     0.269 C 
HETATM   14  H   UNL     1     -43.771  61.555 -48.516  1.00  0.00     0.279 HD
HETATM   15  C   UNL     1     -44.736  63.295 -48.005  1.00  0.00     0.269 C 
ENDBRANCH  11  12
ENDBRANCH   8  11
ENDBRANCH   1   5
BRANCH   2  16
HETATM   16  C   UNL     1     -41.498  55.333 -51.936  1.00  0.00     0.708 A 
HETATM   17  N   UNL     1     -41.007  54.487 -51.062  1.00  0.00    -0.062 NA
HETATM   18  C   UNL     1     -40.531  53.423 -51.785  1.00  0.00     0.103 A 
HETATM   19  C   UNL     1     -40.738  53.619 -53.144  1.00  0.00     0.078 A 
HETATM   20  C   UNL     1     -39.896  52.253 -51.349  1.00  0.00     0.034 A 
HETATM   21  N   UNL     1     -41.368  54.836 -53.211  1.00  0.00    -0.187 N 
HETATM   22  C   UNL     1     -40.341  52.705 -54.121  1.00  0.00     0.032 A 
HETATM   23  H   UNL     1     -41.673  55.287 -54.058  1.00  0.00     0.184 HD
HETATM   24  C   UNL     1     -39.704  51.543 -53.668  1.00  0.00     0.002 A 
HETATM   25  C   UNL     1     -39.484  51.317 -52.307  1.00  0.00     0.002 A 
ENDBRANCH   2  16
TORSDOF 4
ENDMDL
MODEL 4
REMARK VINA RESULT:      -6.8      1.952      8.946
REMARK  4 active torsions:
REMARK  status: ('A' for Active; 'I' for Inactive)
REMARK    1  A    between atoms: N_2  and  C_4 
REMARK    2  A    between atoms: C_4  and  C_5 
REMARK    3  A    between atoms: C_8  and  C_9 
REMARK       I    between atoms: C_9  and  N_10 
REMARK    4  A    between atoms: N_10  and  C_11 
ROOT
HETATM    1  C   UNL     1     -42.526  55.006 -56.080  1.00  0.00     0.269 C 
HETATM    2  N   UNL     1     -41.202  54.701 -55.836  1.00  0.00    -0.153 N 
HETATM    3  O   UNL     1     -43.519  54.533 -55.540  1.00  0.00    -0.267 OA
HETATM    4  H   UNL     1     -40.488  54.993 -56.484  1.00  0.00     0.187 HD
ENDROOT
BRANCH   1   5
HETATM    5  C   UNL     1     -42.760  56.024 -57.140  1.00  0.00     0.032 A 
HETATM    6  C   UNL     1     -42.440  57.359 -56.863  1.00  0.00     0.017 A 
HETATM    7  C   UNL     1     -42.508  58.326 -57.868  1.00  0.00     0.010 A 
HETATM    8  C   UNL     1     -42.884  57.967 -59.171  1.00  0.00    -0.033 A 
HETATM    9  C   UNL     1     -43.233  56.633 -59.438  1.00  0.00     0.010 A 
HETATM   10  C   UNL     1     -43.167  55.665 -58.430  1.00  0.00     0.017 A 
BRANCH   8  11
HETATM   11  C   UNL     1     -42.827  58.983 -60.283  1.00  0.00     0.272 C 
BRANCH  11  12
HETATM   12  N   UNL     1     -42.848  60.411 -59.777  1.00  0.00    -0.075 N 
HETATM   13  C   UNL     1     -44.102  61.156 -60.154  1.00  0.00     0.269 C 
HETATM   14  H   UNL     1     -42.843  60.358 -58.752  1.00  0.00     0.279 HD
HETATM   15  C   UNL     1     -41.617  61.164 -60.189  1.00  0.00     0.269 C 
ENDBRANCH  11  12
ENDBRANCH   8  11
ENDBRANCH   1   5
BRANCH   2  16
HETATM   16  C   UNL     1     -40.829  53.997 -54.715  1.00  0.00     0.708 A 
HETATM   17  N   UNL     1     -40.186  52.856 -54.649  1.00  0.00    -0.062 NA
HETATM   18  C   UNL     1     -40.123  52.528 -53.319  1.00  0.00     0.103 A 
HETATM   19  C   UNL     1     -40.744  53.499 -52.543  1.00  0.00     0.078 A 
HETATM   20  C   UNL     1     -39.559  51.408 -52.696  1.00  0.00     0.034 A 
HETATM   21  N   UNL     1     -41.172  54.429 -53.457  1.00  0.00    -0.187 N 
HETATM   22  C   UNL     1     -40.845  53.423 -51.153  1.00  0.00     0.032 A 
HETATM   23  H   UNL     1     -41.663  55.280 -53.234  1.00  0.00     0.184 HD
HETATM   24  C   UNL     1     -40.280  52.294 -50.547  1.00  0.00     0.002 A 
HETATM   25  C   UNL     1     -39.647  51.303 -51.301  1.00  0.00     0.002 A 
ENDBRANCH   2  16
TORSDOF 4
ENDMDL
MODEL 5
REMARK VINA RESULT:      -6.6     15.132     18.323
REMARK  4 active torsions:
REMARK  status: ('A' for Active; 'I' for Inactive)
REMARK    1  A    between atoms: N_2  and  C_4 
REMARK    2  A    between atoms: C_4  and  C_5 
REMARK    3  A    between atoms: C_8  and  C_9 
REMARK       I    between atoms: C_9  and  N_10 
REMARK    4  A    between atoms: N_10  and  C_11 
ROOT
HETATM    1  C   UNL     1     -35.609  41.605 -53.395  1.00  0.00     0.269 C 
HETATM    2  N   UNL     1     -35.235  40.321 -53.051  1.00  0.00    -0.153 N 
HETATM    3  O   UNL     1     -35.633  42.599 -52.680  1.00  0.00    -0.267 OA
HETATM    4  H   UNL     1     -35.459  39.549 -53.658  1.00  0.00     0.187 HD
ENDROOT
BRANCH   1   5
HETATM    5  C   UNL     1     -36.046  41.783 -54.807  1.00  0.00     0.032 A 
HETATM    6  C   UNL     1     -35.081  42.117 -55.765  1.00  0.00     0.017 A 
HETATM    7  C   UNL     1     -35.415  42.157 -57.121  1.00  0.00     0.010 A 
HETATM    8  C   UNL     1     -36.718  41.848 -57.538  1.00  0.00    -0.033 A 
HETATM    9  C   UNL     1     -37.690  41.542 -56.572  1.00  0.00     0.010 A 
HETATM   10  C   UNL     1     -37.357  41.505 -55.213  1.00  0.00     0.017 A 
BRANCH   8  11
HETATM   11  C   UNL     1     -37.043  41.760 -59.008  1.00  0.00     0.272 C 
BRANCH  11  12
HETATM   12  N   UNL     1     -37.260  40.336 -59.477  1.00  0.00    -0.075 N 
HETATM   13  C   UNL     1     -36.141  39.405 -59.089  1.00  0.00     0.269 C 
HETATM   14  H   UNL     1     -38.099  39.993 -58.994  1.00  0.00     0.279 HD
HETATM   15  C   UNL     1     -37.539  40.274 -60.950  1.00  0.00     0.269 C 
ENDBRANCH  11  12
ENDBRANCH   8  11
ENDBRANCH   1   5
BRANCH   2  16
HETATM   16  C   UNL     1     -34.559  40.067 -51.882  1.00  0.00     0.708 A 
HETATM   17  N   UNL     1     -33.347  40.442 -51.546  1.00  0.00    -0.062 NA
HETATM   18  C   UNL     1     -33.097  39.879 -50.322  1.00  0.00     0.103 A 
HETATM   19  C   UNL     1     -34.190  39.138 -49.889  1.00  0.00     0.078 A 
HETATM   20  C   UNL     1     -31.952  39.947 -49.519  1.00  0.00     0.034 A 
HETATM   21  N   UNL     1     -35.110  39.286 -50.895  1.00  0.00    -0.187 N 
HETATM   22  C   UNL     1     -34.214  38.440 -48.680  1.00  0.00     0.032 A 
HETATM   23  H   UNL     1     -36.032  38.881 -50.904  1.00  0.00     0.184 HD
HETATM   24  C   UNL     1     -33.058  38.515 -47.892  1.00  0.00     0.002 A 
HETATM   25  C   UNL     1     -31.946  39.255 -48.300  1.00  0.00     0.002 A 
ENDBRANCH   2  16
TORSDOF 4
ENDMDL
MODEL 6
REMARK VINA RESULT:      -6.4     15.063     17.951
REMARK  4 active torsions:
REMARK  status: ('A' for Active; 'I' for Inactive)
REMARK    1  A    between atoms: N_2  and  C_4 
REMARK    2  A    between atoms: C_4  and  C_5 
REMARK    3  A    between atoms: C_8  and  C_9 
REMARK       I    between atoms: C_9  and  N_10 
REMARK    4  A    between atoms: N_10  and  C_11 
ROOT
HETATM    1  C   UNL     1     -34.384  39.649 -51.248  1.00  0.00     0.269 C 
HETATM    2  N   UNL     1     -34.498  40.961 -51.663  1.00  0.00    -0.153 N 
HETATM    3  O   UNL     1     -34.838  38.647 -51.787  1.00  0.00    -0.267 OA
HETATM    4  H   UNL     1     -34.271  41.713 -51.032  1.00  0.00     0.187 HD
ENDROOT
BRANCH   1   5
HETATM    5  C   UNL     1     -33.627  39.445 -49.983  1.00  0.00     0.032 A 
HETATM    6  C   UNL     1     -34.107  38.504 -49.064  1.00  0.00     0.017 A 
HETATM    7  C   UNL     1     -33.359  38.175 -47.931  1.00  0.00     0.010 A 
HETATM    8  C   UNL     1     -32.111  38.775 -47.710  1.00  0.00    -0.033 A 
HETATM    9  C   UNL     1     -31.646  39.740 -48.618  1.00  0.00     0.010 A 
HETATM   10  C   UNL     1     -32.397  40.071 -49.752  1.00  0.00     0.017 A 
BRANCH   8  11
HETATM   11  C   UNL     1     -31.245  38.322 -46.561  1.00  0.00     0.272 C 
BRANCH  11  12
HETATM   12  N   UNL     1     -31.011  39.413 -45.537  1.00  0.00    -0.075 N 
HETATM   13  C   UNL     1     -29.570  39.843 -45.445  1.00  0.00     0.269 C 
HETATM   14  H   UNL     1     -31.536  40.235 -45.859  1.00  0.00     0.279 HD
HETATM   15  C   UNL     1     -31.559  39.037 -44.191  1.00  0.00     0.269 C 
ENDBRANCH  11  12
ENDBRANCH   8  11
ENDBRANCH   1   5
BRANCH   2  16
HETATM   16  C   UNL     1     -34.923  41.271 -52.933  1.00  0.00     0.708 A 
HETATM   17  N   UNL     1     -36.109  41.681 -53.316  1.00  0.00    -0.062 NA
HETATM   18  C   UNL     1     -36.058  41.777 -54.683  1.00  0.00     0.103 A 
HETATM   19  C   UNL     1     -34.802  41.418 -55.155  1.00  0.00     0.078 A 
HETATM   20  C   UNL     1     -37.052  42.155 -55.594  1.00  0.00     0.034 A 
HETATM   21  N   UNL     1     -34.096  41.114 -54.019  1.00  0.00    -0.187 N 
HETATM   22  C   UNL     1     -34.465  41.408 -56.509  1.00  0.00     0.032 A 
HETATM   23  H   UNL     1     -33.133  40.818 -53.994  1.00  0.00     0.184 HD
HETATM   24  C   UNL     1     -35.472  41.783 -57.407  1.00  0.00     0.002 A 
HETATM   25  C   UNL     1     -36.744  42.152 -56.961  1.00  0.00     0.002 A 
ENDBRANCH   2  16
TORSDOF 4
ENDMDL
MODEL 7
REMARK VINA RESULT:      -6.4      2.330      8.927
REMARK  4 active torsions:
REMARK  status: ('A' for Active; 'I' for Inactive)
REMARK    1  A    between atoms: N_2  and  C_4 
REMARK    2  A    between atoms: C_4  and  C_5 
REMARK    3  A    between atoms: C_8  and  C_9 
REMARK       I    between atoms: C_9  and  N_10 
REMARK    4  A    between atoms: N_10  and  C_11 
ROOT
HETATM    1  C   UNL     1     -42.603  55.902 -54.830  1.00  0.00     0.269 C 
HETATM    2  N   UNL     1     -41.510  55.132 -54.484  1.00  0.00    -0.153 N 
HETATM    3  O   UNL     1     -43.557  56.214 -54.128  1.00  0.00    -0.267 OA
HETATM    4  H   UNL     1     -40.902  54.766 -55.199  1.00  0.00     0.187 HD
ENDROOT
BRANCH   1   5
HETATM    5  C   UNL     1     -42.614  56.395 -56.235  1.00  0.00     0.032 A 
HETATM    6  C   UNL     1     -42.967  55.498 -57.251  1.00  0.00     0.017 A 
HETATM    7  C   UNL     1     -43.129  55.946 -58.564  1.00  0.00     0.010 A 
HETATM    8  C   UNL     1     -42.955  57.302 -58.876  1.00  0.00    -0.033 A 
HETATM    9  C   UNL     1     -42.572  58.193 -57.859  1.00  0.00     0.010 A 
HETATM   10  C   UNL     1     -42.407  57.744 -56.544  1.00  0.00     0.017 A 
BRANCH   8  11
HETATM   11  C   UNL     1     -43.261  57.807 -60.263  1.00  0.00     0.272 C 
BRANCH  11  12
HETATM   12  N   UNL     1     -44.175  59.015 -60.260  1.00  0.00    -0.075 N 
HETATM   13  C   UNL     1     -45.636  58.655 -60.320  1.00  0.00     0.269 C 
HETATM   14  H   UNL     1     -44.033  59.489 -59.360  1.00  0.00     0.279 HD
HETATM   15  C   UNL     1     -43.807  59.993 -61.338  1.00  0.00     0.269 C 
ENDBRANCH  11  12
ENDBRANCH   8  11
ENDBRANCH   1   5
BRANCH   2  16
HETATM   16  C   UNL     1     -41.232  54.845 -53.169  1.00  0.00     0.708 A 
HETATM   17  N   UNL     1     -40.728  53.742 -52.667  1.00  0.00    -0.062 NA
HETATM   18  C   UNL     1     -40.714  53.912 -51.306  1.00  0.00     0.103 A 
HETATM   19  C   UNL     1     -41.220  55.159 -50.961  1.00  0.00     0.078 A 
HETATM   20  C   UNL     1     -40.291  53.039 -50.296  1.00  0.00     0.034 A 
HETATM   21  N   UNL     1     -41.529  55.736 -52.167  1.00  0.00    -0.187 N 
HETATM   22  C   UNL     1     -41.339  55.601 -49.643  1.00  0.00     0.032 A 
HETATM   23  H   UNL     1     -41.917  56.658 -52.287  1.00  0.00     0.184 HD
HETATM   24  C   UNL     1     -40.916  54.714 -48.645  1.00  0.00     0.002 A 
HETATM   25  C   UNL     1     -40.399  53.455 -48.963  1.00  0.00     0.002 A 
ENDBRANCH   2  16
TORSDOF 4
ENDMDL
MODEL 8
REMARK VINA RESULT:      -6.3      1.144      1.959
REMARK  4 active torsions:
REMARK  status: ('A' for Active; 'I' for Inactive)
REMARK    1  A    between atoms: N_2  and  C_4 
REMARK    2  A    between atoms: C_4  and  C_5 
REMARK    3  A    between atoms: C_8  and  C_9 
REMARK       I    between atoms: C_9  and  N_10 
REMARK    4  A    between atoms: N_10  and  C_11 
ROOT
HETATM    1  C   UNL     1     -42.732  56.152 -55.683  1.00  0.00     0.269 C 
HETATM    2  N   UNL     1     -42.039  56.507 -56.823  1.00  0.00    -0.153 N 
HETATM    3  O   UNL     1     -43.757  56.654 -55.237  1.00  0.00    -0.267 OA
HETATM    4  H   UNL     1     -41.102  56.168 -56.972  1.00  0.00     0.187 HD
ENDROOT
BRANCH   1   5
HETATM    5  C   UNL     1     -42.142  55.029 -54.904  1.00  0.00     0.032 A 
HETATM    6  C   UNL     1     -40.934  54.475 -55.346  1.00  0.00     0.017 A 
HETATM    7  C   UNL     1     -40.270  53.519 -54.575  1.00  0.00     0.010 A 
HETATM    8  C   UNL     1     -40.799  53.114 -53.340  1.00  0.00    -0.033 A 
HETATM    9  C   UNL     1     -42.025  53.650 -52.914  1.00  0.00     0.010 A 
HETATM   10  C   UNL     1     -42.692  54.606 -53.688  1.00  0.00     0.017 A 
BRANCH   8  11
HETATM   11  C   UNL     1     -40.016  52.184 -52.448  1.00  0.00     0.272 C 
BRANCH  11  12
HETATM   12  N   UNL     1     -40.406  52.305 -50.989  1.00  0.00    -0.075 N 
HETATM   13  C   UNL     1     -39.713  53.440 -50.281  1.00  0.00     0.269 C 
HETATM   14  H   UNL     1     -41.409  52.524 -50.970  1.00  0.00     0.279 HD
HETATM   15  C   UNL     1     -40.222  51.007 -50.257  1.00  0.00     0.269 C 
ENDBRANCH  11  12
ENDBRANCH   8  11
ENDBRANCH   1   5
BRANCH   2  16
HETATM   16  C   UNL     1     -42.605  57.326 -57.772  1.00  0.00     0.708 A 
HETATM   17  N   UNL     1     -43.806  57.255 -58.294  1.00  0.00    -0.062 NA
HETATM   18  C   UNL     1     -43.867  58.239 -59.247  1.00  0.00     0.103 A 
HETATM   19  C   UNL     1     -42.669  58.939 -59.310  1.00  0.00     0.078 A 
HETATM   20  C   UNL     1     -44.913  58.590 -60.110  1.00  0.00     0.034 A 
HETATM   21  N   UNL     1     -41.888  58.345 -58.351  1.00  0.00    -0.187 N 
HETATM   22  C   UNL     1     -42.438  59.988 -60.201  1.00  0.00     0.032 A 
HETATM   23  H   UNL     1     -40.945  58.613 -58.121  1.00  0.00     0.184 HD
HETATM   24  C   UNL     1     -43.493  60.323 -61.059  1.00  0.00     0.002 A 
HETATM   25  C   UNL     1     -44.711  59.639 -61.016  1.00  0.00     0.002 A 
ENDBRANCH   2  16
TORSDOF 4
ENDMDL
MODEL 9
REMARK VINA RESULT:      -6.2      2.079      8.990
REMARK  4 active torsions:
REMARK  status: ('A' for Active; 'I' for Inactive)
REMARK    1  A    between atoms: N_2  and  C_4 
REMARK    2  A    between atoms: C_4  and  C_5 
REMARK    3  A    between atoms: C_8  and  C_9 
REMARK       I    between atoms: C_9  and  N_10 
REMARK    4  A    between atoms: N_10  and  C_11 
ROOT
HETATM    1  C   UNL     1     -43.427  56.981 -56.283  1.00  0.00     0.269 C 
HETATM    2  N   UNL     1     -43.956  56.064 -55.396  1.00  0.00    -0.153 N 
HETATM    3  O   UNL     1     -42.261  57.339 -56.390  1.00  0.00    -0.267 OA
HETATM    4  H   UNL     1     -44.953  56.010 -55.258  1.00  0.00     0.187 HD
ENDROOT
BRANCH   1   5
HETATM    5  C   UNL     1     -44.410  57.611 -57.207  1.00  0.00     0.032 A 
HETATM    6  C   UNL     1     -44.147  57.577 -58.582  1.00  0.00     0.017 A 
HETATM    7  C   UNL     1     -45.102  58.028 -59.496  1.00  0.00     0.010 A 
HETATM    8  C   UNL     1     -46.341  58.507 -59.047  1.00  0.00    -0.033 A 
HETATM    9  C   UNL     1     -46.589  58.567 -57.666  1.00  0.00     0.010 A 
HETATM   10  C   UNL     1     -45.631  58.118 -56.749  1.00  0.00     0.017 A 
BRANCH   8  11
HETATM   11  C   UNL     1     -47.419  58.867 -60.036  1.00  0.00     0.272 C 
BRANCH  11  12
HETATM   12  N   UNL     1     -47.296  58.108 -61.341  1.00  0.00    -0.075 N 
HETATM   13  C   UNL     1     -48.086  58.725 -62.465  1.00  0.00     0.269 C 
HETATM   14  H   UNL     1     -46.309  58.163 -61.621  1.00  0.00     0.279 HD
HETATM   15  C   UNL     1     -47.628  56.654 -61.171  1.00  0.00     0.269 C 
ENDBRANCH  11  12
ENDBRANCH   8  11
ENDBRANCH   1   5
BRANCH   2  16
HETATM   16  C   UNL     1     -43.143  55.214 -54.684  1.00  0.00     0.708 A 
HETATM   17  N   UNL     1     -42.998  55.128 -53.383  1.00  0.00    -0.062 NA
HETATM   18  C   UNL     1     -42.021  54.190 -53.168  1.00  0.00     0.103 A 
HETATM   19  C   UNL     1     -41.555  53.680 -54.373  1.00  0.00     0.078 A 
HETATM   20  C   UNL     1     -41.470  53.726 -51.967  1.00  0.00     0.034 A 
HETATM   21  N   UNL     1     -42.296  54.340 -55.321  1.00  0.00    -0.187 N 
HETATM   22  C   UNL     1     -40.548  52.718 -54.461  1.00  0.00     0.032 A 
HETATM   23  H   UNL     1     -42.219  54.205 -56.316  1.00  0.00     0.184 HD
HETATM   24  C   UNL     1     -40.005  52.269 -53.251  1.00  0.00     0.002 A 
HETATM   25  C   UNL     1     -40.456  52.761 -52.024  1.00  0.00     0.002 A 
ENDBRANCH   2  16
TORSDOF 4
ENDMDL
MODEL 10
REMARK VINA RESULT:      -6.1      1.841      2.660
REMARK  4 active torsions:
REMARK  status: ('A' for Active; 'I' for Inactive)
REMARK    1  A    between atoms: N_2  and  C_4 
REMARK    2  A    between atoms: C_4  and  C_5 
REMARK    3  A    between atoms: C_8  and  C_9 
REMARK       I    between atoms: C_9  and  N_10 
REMARK    4  A    between atoms: N_10  and  C_11 
ROOT
HETATM    1  C   UNL     1     -43.625  56.639 -56.425  1.00  0.00     0.269 C 
HETATM    2  N   UNL     1     -43.498  56.397 -57.778  1.00  0.00    -0.153 N 
HETATM    3  O   UNL     1     -44.382  57.425 -55.868  1.00  0.00    -0.267 OA
HETATM    4  H   UNL     1     -42.701  55.891 -58.129  1.00  0.00     0.187 HD
ENDROOT
BRANCH   1   5
HETATM    5  C   UNL     1     -42.714  55.851 -55.550  1.00  0.00     0.032 A 
HETATM    6  C   UNL     1     -41.720  56.535 -54.837  1.00  0.00     0.017 A 
HETATM    7  C   UNL     1     -40.935  55.862 -53.899  1.00  0.00     0.010 A 
HETATM    8  C   UNL     1     -41.143  54.498 -53.648  1.00  0.00    -0.033 A 
HETATM    9  C   UNL     1     -42.121  53.810 -54.385  1.00  0.00     0.010 A 
HETATM   10  C   UNL     1     -42.906  54.483 -55.328  1.00  0.00     0.017 A 
BRANCH   8  11
HETATM   11  C   UNL     1     -40.389  53.806 -52.542  1.00  0.00     0.272 C 
BRANCH  11  12
HETATM   12  N   UNL     1     -41.297  53.291 -51.444  1.00  0.00    -0.075 N 
HETATM   13  C   UNL     1     -42.056  54.384 -50.739  1.00  0.00     0.269 C 
HETATM   14  H   UNL     1     -42.002  52.699 -51.901  1.00  0.00     0.279 HD
HETATM   15  C   UNL     1     -40.554  52.422 -50.471  1.00  0.00     0.269 C 
ENDBRANCH  11  12
ENDBRANCH   8  11
ENDBRANCH   1   5
BRANCH   2  16
HETATM   16  C   UNL     1     -44.446  56.838 -58.671  1.00  0.00     0.708 A 
HETATM   17  N   UNL     1     -44.700  58.070 -59.044  1.00  0.00    -0.062 NA
HETATM   18  C   UNL     1     -45.781  58.001 -59.885  1.00  0.00     0.103 A 
HETATM   19  C   UNL     1     -46.203  56.686 -60.035  1.00  0.00     0.078 A 
HETATM   20  C   UNL     1     -46.467  59.023 -60.552  1.00  0.00     0.034 A 
HETATM   21  N   UNL     1     -45.328  55.966 -59.262  1.00  0.00    -0.187 N 
HETATM   22  C   UNL     1     -47.294  56.315 -60.824  1.00  0.00     0.032 A 
HETATM   23  H   UNL     1     -45.341  54.966 -59.148  1.00  0.00     0.184 HD
HETATM   24  C   UNL     1     -47.972  57.350 -61.479  1.00  0.00     0.002 A 
HETATM   25  C   UNL     1     -47.568  58.682 -61.349  1.00  0.00     0.002 A 
ENDBRANCH   2  16
TORSDOF 4
ENDMDL
