MODEL 1
REMARK VINA RESULT:      -8.0      0.000      0.000
REMARK  9 active torsions:
REMARK  status: ('A' for Active; 'I' for Inactive)
REMARK    1  A    between atoms: C_2  and  O_3 
REMARK    2  A    between atoms: O_3  and  C_4 
REMARK    3  A    between atoms: C_4  and  C_5 
REMARK    4  A    between atoms: C_8  and  N_9 
REMARK       I    between atoms: N_9  and  C_10 
REMARK    5  A    between atoms: C_10  and  C_11 
REMARK       I    between atoms: C_11  and  N_12 
REMARK    6  A    between atoms: N_12  and  C_13 
REMARK    7  A    between atoms: C_13  and  C_14 
REMARK    8  A    between atoms: C_14  and  C_15 
REMARK    9  A    between atoms: C_18  and  O_19 
ROOT
HETATM    1  C   UNL     1     -40.895  58.842 -53.135  1.00  0.00     0.309 C 
HETATM    2  N   UNL     1     -41.510  57.645 -53.412  1.00  0.00    -0.352 N 
HETATM    3  O   UNL     1     -39.693  59.072 -53.182  1.00  0.00    -0.262 OA
HETATM    4  H   UNL     1     -42.522  57.621 -53.305  1.00  0.00     0.162 HD
ENDROOT
BRANCH   1   5
HETATM    5  C   UNL     1     -41.866  59.955 -52.686  1.00  0.00     0.313 C 
HETATM    6  N   UNL     1     -42.419  59.679 -51.453  1.00  0.00    -0.319 N 
HETATM    7  H   UNL     1     -42.078  58.817 -51.029  1.00  0.00     0.169 HD
HETATM    8  O   UNL     1     -42.059  60.906 -53.429  1.00  0.00    -0.262 OA
BRANCH   6   9
HETATM    9  C   UNL     1     -43.403  60.405 -50.765  1.00  0.00     0.035 A 
HETATM   10  C   UNL     1     -43.153  61.601 -50.089  1.00  0.00     0.030 A 
HETATM   11  C   UNL     1     -44.197  62.287 -49.456  1.00  0.00     0.020 A 
HETATM   12  C   UNL     1     -45.503  61.784 -49.489  1.00  0.00     0.039 A 
HETATM   13  C   UNL     1     -45.752  60.579 -50.154  1.00  0.00     0.020 A 
HETATM   14  C   UNL     1     -44.706  59.896 -50.787  1.00  0.00     0.030 A 
BRANCH  12  15
HETATM   15  C   UNL     1     -46.577  62.569 -48.821  1.00  0.00     0.293 C 
HETATM   16  O   UNL     1     -46.933  63.676 -49.194  1.00  0.00    -0.259 OA
BRANCH  15  17
HETATM   17  O   UNL     1     -47.090  61.878 -47.773  1.00  0.00    -0.318 OA
BRANCH  17  18
HETATM   18  C   UNL     1     -46.824  62.428 -46.474  1.00  0.00     0.174 C 
HETATM   19  C   UNL     1     -45.565  61.815 -45.889  1.00  0.00     0.034 C 
ENDBRANCH  17  18
ENDBRANCH  15  17
ENDBRANCH  12  15
ENDBRANCH   6   9
ENDBRANCH   1   5
BRANCH   2  20
HETATM   20  C   UNL     1     -40.779  56.438 -53.739  1.00  0.00     0.137 C 
BRANCH  20  21
HETATM   21  C   UNL     1     -41.659  55.213 -54.102  1.00  0.00     0.003 C 
HETATM   22  C   UNL     1     -43.133  55.339 -53.633  1.00  0.00     0.016 C 
HETATM   23  C   UNL     1     -43.896  54.309 -54.465  1.00  0.00     0.001 C 
HETATM   24  C   UNL     1     -43.116  54.182 -55.773  1.00  0.00     0.001 C 
HETATM   25  C   UNL     1     -41.918  55.122 -55.629  1.00  0.00     0.016 C 
BRANCH  21  26
HETATM   26  C   UNL     1     -40.967  53.968 -53.503  1.00  0.00    -0.048 A 
HETATM   27  C   UNL     1     -40.840  53.826 -52.108  1.00  0.00     0.011 A 
HETATM   28  C   UNL     1     -40.199  52.718 -51.544  1.00  0.00     0.037 A 
HETATM   29  C   UNL     1     -39.647  51.727 -52.351  1.00  0.00     0.068 A 
HETATM   30  C   UNL     1     -39.734  51.862 -53.733  1.00  0.00     0.037 A 
HETATM   31  C   UNL     1     -40.380  52.971 -54.300  1.00  0.00     0.011 A 
BRANCH  29  32
HETATM   32  O   UNL     1     -39.049  50.700 -51.675  1.00  0.00    -0.356 OA
HETATM   33  C   UNL     1     -39.832  50.036 -50.693  1.00  0.00     0.210 C 
ENDBRANCH  29  32
ENDBRANCH  21  26
ENDBRANCH  20  21
ENDBRANCH   2  20
TORSDOF 9
ENDMDL
MODEL 2
REMARK VINA RESULT:      -7.9      5.260      9.867
REMARK  9 active torsions:
REMARK  status: ('A' for Active; 'I' for Inactive)
REMARK    1  A    between atoms: C_2  and  O_3 
REMARK    2  A    between atoms: O_3  and  C_4 
REMARK    3  A    between atoms: C_4  and  C_5 
REMARK    4  A    between atoms: C_8  and  N_9 
REMARK       I    between atoms: N_9  and  C_10 
REMARK    5  A    between atoms: C_10  and  C_11 
REMARK       I    between atoms: C_11  and  N_12 
REMARK    6  A    between atoms: N_12  and  C_13 
REMARK    7  A    between atoms: C_13  and  C_14 
REMARK    8  A    between atoms: C_14  and  C_15 
REMARK    9  A    between atoms: C_18  and  O_19 
ROOT
HETATM    1  C   UNL     1     -43.344  58.189 -56.260  1.00  0.00     0.309 C 
HETATM    2  N   UNL     1     -44.365  57.387 -56.710  1.00  0.00    -0.352 N 
HETATM    3  O   UNL     1     -43.104  59.334 -56.620  1.00  0.00    -0.262 OA
HETATM    4  H   UNL     1     -44.410  56.449 -56.316  1.00  0.00     0.162 HD
ENDROOT
BRANCH   1   5
HETATM    5  C   UNL     1     -42.418  57.504 -55.231  1.00  0.00     0.313 C 
HETATM    6  N   UNL     1     -42.509  56.131 -55.302  1.00  0.00    -0.319 N 
HETATM    7  H   UNL     1     -43.137  55.793 -56.031  1.00  0.00     0.169 HD
HETATM    8  O   UNL     1     -41.750  58.202 -54.483  1.00  0.00    -0.262 OA
BRANCH   6   9
HETATM    9  C   UNL     1     -41.892  55.179 -54.475  1.00  0.00     0.035 A 
HETATM   10  C   UNL     1     -42.326  54.880 -53.182  1.00  0.00     0.030 A 
HETATM   11  C   UNL     1     -41.679  53.890 -52.431  1.00  0.00     0.020 A 
HETATM   12  C   UNL     1     -40.591  53.189 -52.963  1.00  0.00     0.039 A 
HETATM   13  C   UNL     1     -40.148  53.498 -54.253  1.00  0.00     0.020 A 
HETATM   14  C   UNL     1     -40.797  54.487 -55.002  1.00  0.00     0.030 A 
BRANCH  12  15
HETATM   15  C   UNL     1     -39.960  52.129 -52.130  1.00  0.00     0.293 C 
HETATM   16  O   UNL     1     -40.146  52.017 -50.929  1.00  0.00    -0.259 OA
BRANCH  15  17
HETATM   17  O   UNL     1     -39.177  51.327 -52.893  1.00  0.00    -0.318 OA
BRANCH  17  18
HETATM   18  C   UNL     1     -39.701  50.017 -53.160  1.00  0.00     0.174 C 
HETATM   19  C   UNL     1     -39.744  49.761 -54.655  1.00  0.00     0.034 C 
ENDBRANCH  17  18
ENDBRANCH  15  17
ENDBRANCH  12  15
ENDBRANCH   6   9
ENDBRANCH   1   5
BRANCH   2  20
HETATM   20  C   UNL     1     -45.280  57.787 -57.759  1.00  0.00     0.137 C 
BRANCH  20  21
HETATM   21  C   UNL     1     -44.991  57.172 -59.154  1.00  0.00     0.003 C 
HETATM   22  C   UNL     1     -44.219  55.828 -59.098  1.00  0.00     0.016 C 
HETATM   23  C   UNL     1     -44.450  55.189 -60.469  1.00  0.00     0.001 C 
HETATM   24  C   UNL     1     -45.805  55.715 -60.941  1.00  0.00     0.001 C 
HETATM   25  C   UNL     1     -46.286  56.659 -59.838  1.00  0.00     0.016 C 
BRANCH  21  26
HETATM   26  C   UNL     1     -44.229  58.243 -59.967  1.00  0.00    -0.048 A 
HETATM   27  C   UNL     1     -42.822  58.240 -60.006  1.00  0.00     0.011 A 
HETATM   28  C   UNL     1     -42.111  59.211 -60.719  1.00  0.00     0.037 A 
HETATM   29  C   UNL     1     -42.777  60.227 -61.397  1.00  0.00     0.068 A 
HETATM   30  C   UNL     1     -44.167  60.267 -61.348  1.00  0.00     0.037 A 
HETATM   31  C   UNL     1     -44.881  59.292 -60.636  1.00  0.00     0.011 A 
BRANCH  29  32
HETATM   32  O   UNL     1     -41.966  61.111 -62.052  1.00  0.00    -0.356 OA
HETATM   33  C   UNL     1     -41.127  61.930 -61.249  1.00  0.00     0.210 C 
ENDBRANCH  29  32
ENDBRANCH  21  26
ENDBRANCH  20  21
ENDBRANCH   2  20
TORSDOF 9
ENDMDL
MODEL 3
REMARK VINA RESULT:      -7.8      4.426      9.250
REMARK  9 active torsions:
REMARK  status: ('A' for Active; 'I' for Inactive)
REMARK    1  A    between atoms: C_2  and  O_3 
REMARK    2  A    between atoms: O_3  and  C_4 
REMARK    3  A    between atoms: C_4  and  C_5 
REMARK    4  A    between atoms: C_8  and  N_9 
REMARK       I    between atoms: N_9  and  C_10 
REMARK    5  A    between atoms: C_10  and  C_11 
REMARK       I    between atoms: C_11  and  N_12 
REMARK    6  A    between atoms: N_12  and  C_13 
REMARK    7  A    between atoms: C_13  and  C_14 
REMARK    8  A    between atoms: C_14  and  C_15 
REMARK    9  A    between atoms: C_18  and  O_19 
ROOT
HETATM    1  C   UNL     1     -41.944  59.219 -54.380  1.00  0.00     0.309 C 
HETATM    2  N   UNL     1     -42.572  59.007 -55.584  1.00  0.00    -0.352 N 
HETATM    3  O   UNL     1     -41.985  60.241 -53.707  1.00  0.00    -0.262 OA
HETATM    4  H   UNL     1     -42.416  58.101 -56.021  1.00  0.00     0.162 HD
ENDROOT
BRANCH   1   5
HETATM    5  C   UNL     1     -41.082  58.029 -53.906  1.00  0.00     0.313 C 
HETATM    6  N   UNL     1     -41.594  56.827 -54.343  1.00  0.00    -0.319 N 
HETATM    7  H   UNL     1     -42.425  56.916 -54.926  1.00  0.00     0.169 HD
HETATM    8  O   UNL     1     -40.100  58.251 -53.213  1.00  0.00    -0.262 OA
BRANCH   6   9
HETATM    9  C   UNL     1     -41.140  55.533 -54.042  1.00  0.00     0.035 A 
HETATM   10  C   UNL     1     -41.176  54.978 -52.761  1.00  0.00     0.030 A 
HETATM   11  C   UNL     1     -40.739  53.665 -52.546  1.00  0.00     0.020 A 
HETATM   12  C   UNL     1     -40.257  52.892 -53.609  1.00  0.00     0.039 A 
HETATM   13  C   UNL     1     -40.207  53.452 -54.890  1.00  0.00     0.020 A 
HETATM   14  C   UNL     1     -40.647  54.764 -55.102  1.00  0.00     0.030 A 
BRANCH  12  15
HETATM   15  C   UNL     1     -39.830  51.494 -53.328  1.00  0.00     0.293 C 
HETATM   16  O   UNL     1     -40.059  50.556 -54.075  1.00  0.00    -0.259 OA
BRANCH  15  17
HETATM   17  O   UNL     1     -39.158  51.430 -52.151  1.00  0.00    -0.318 OA
BRANCH  17  18
HETATM   18  C   UNL     1     -39.391  50.252 -51.364  1.00  0.00     0.174 C 
HETATM   19  C   UNL     1     -40.277  50.579 -50.176  1.00  0.00     0.034 C 
ENDBRANCH  17  18
ENDBRANCH  15  17
ENDBRANCH  12  15
ENDBRANCH   6   9
ENDBRANCH   1   5
BRANCH   2  20
HETATM   20  C   UNL     1     -43.336  60.030 -56.268  1.00  0.00     0.137 C 
BRANCH  20  21
HETATM   21  C   UNL     1     -42.868  60.346 -57.713  1.00  0.00     0.003 C 
HETATM   22  C   UNL     1     -43.441  61.670 -58.282  1.00  0.00     0.016 C 
HETATM   23  C   UNL     1     -42.527  62.016 -59.458  1.00  0.00     0.001 C 
HETATM   24  C   UNL     1     -41.168  61.411 -59.111  1.00  0.00     0.001 C 
HETATM   25  C   UNL     1     -41.361  60.714 -57.763  1.00  0.00     0.016 C 
BRANCH  21  26
HETATM   26  C   UNL     1     -43.251  59.129 -58.585  1.00  0.00    -0.048 A 
HETATM   27  C   UNL     1     -42.279  58.176 -58.945  1.00  0.00     0.011 A 
HETATM   28  C   UNL     1     -42.599  57.077 -59.749  1.00  0.00     0.037 A 
HETATM   29  C   UNL     1     -43.891  56.904 -60.237  1.00  0.00     0.068 A 
HETATM   30  C   UNL     1     -44.861  57.849 -59.918  1.00  0.00     0.037 A 
HETATM   31  C   UNL     1     -44.542  58.949 -59.108  1.00  0.00     0.011 A 
BRANCH  29  32
HETATM   32  O   UNL     1     -44.070  55.791 -61.011  1.00  0.00    -0.356 OA
HETATM   33  C   UNL     1     -44.811  54.723 -60.438  1.00  0.00     0.210 C 
ENDBRANCH  29  32
ENDBRANCH  21  26
ENDBRANCH  20  21
ENDBRANCH   2  20
TORSDOF 9
ENDMDL
MODEL 4
REMARK VINA RESULT:      -7.8      4.359      9.207
REMARK  9 active torsions:
REMARK  status: ('A' for Active; 'I' for Inactive)
REMARK    1  A    between atoms: C_2  and  O_3 
REMARK    2  A    between atoms: O_3  and  C_4 
REMARK    3  A    between atoms: C_4  and  C_5 
REMARK    4  A    between atoms: C_8  and  N_9 
REMARK       I    between atoms: N_9  and  C_10 
REMARK    5  A    between atoms: C_10  and  C_11 
REMARK       I    between atoms: C_11  and  N_12 
REMARK    6  A    between atoms: N_12  and  C_13 
REMARK    7  A    between atoms: C_13  and  C_14 
REMARK    8  A    between atoms: C_14  and  C_15 
REMARK    9  A    between atoms: C_18  and  O_19 
ROOT
HETATM    1  C   UNL     1     -42.082  60.011 -54.590  1.00  0.00     0.309 C 
HETATM    2  N   UNL     1     -42.336  59.889 -55.935  1.00  0.00    -0.352 N 
HETATM    3  O   UNL     1     -42.421  60.937 -53.866  1.00  0.00    -0.262 OA
HETATM    4  H   UNL     1     -41.964  59.059 -56.392  1.00  0.00     0.162 HD
ENDROOT
BRANCH   1   5
HETATM    5  C   UNL     1     -41.244  58.853 -54.005  1.00  0.00     0.313 C 
HETATM    6  N   UNL     1     -41.816  57.628 -54.273  1.00  0.00    -0.319 N 
HETATM    7  H   UNL     1     -42.665  57.679 -54.833  1.00  0.00     0.169 HD
HETATM    8  O   UNL     1     -40.229  59.118 -53.379  1.00  0.00    -0.262 OA
BRANCH   6   9
HETATM    9  C   UNL     1     -41.396  56.363 -53.832  1.00  0.00     0.035 A 
HETATM   10  C   UNL     1     -40.791  55.415 -54.659  1.00  0.00     0.030 A 
HETATM   11  C   UNL     1     -40.366  54.188 -54.136  1.00  0.00     0.020 A 
HETATM   12  C   UNL     1     -40.542  53.893 -52.779  1.00  0.00     0.039 A 
HETATM   13  C   UNL     1     -41.160  54.836 -51.952  1.00  0.00     0.020 A 
HETATM   14  C   UNL     1     -41.583  56.063 -52.478  1.00  0.00     0.030 A 
BRANCH  12  15
HETATM   15  C   UNL     1     -40.047  52.584 -52.272  1.00  0.00     0.293 C 
HETATM   16  O   UNL     1     -40.107  52.249 -51.099  1.00  0.00    -0.259 OA
BRANCH  15  17
HETATM   17  O   UNL     1     -39.543  51.840 -53.288  1.00  0.00    -0.318 OA
BRANCH  17  18
HETATM   18  C   UNL     1     -39.750  50.423 -53.184  1.00  0.00     0.174 C 
HETATM   19  C   UNL     1     -39.808  49.797 -54.565  1.00  0.00     0.034 C 
ENDBRANCH  17  18
ENDBRANCH  15  17
ENDBRANCH  12  15
ENDBRANCH   6   9
ENDBRANCH   1   5
BRANCH   2  20
HETATM   20  C   UNL     1     -43.004  60.915 -56.709  1.00  0.00     0.137 C 
BRANCH  20  21
HETATM   21  C   UNL     1     -42.497  61.074 -58.167  1.00  0.00     0.003 C 
HETATM   22  C   UNL     1     -43.092  62.302 -58.907  1.00  0.00     0.016 C 
HETATM   23  C   UNL     1     -42.150  62.539 -60.088  1.00  0.00     0.001 C 
HETATM   24  C   UNL     1     -40.785  62.027 -59.630  1.00  0.00     0.001 C 
HETATM   25  C   UNL     1     -41.002  61.487 -58.216  1.00  0.00     0.016 C 
BRANCH  21  26
HETATM   26  C   UNL     1     -42.811  59.750 -58.899  1.00  0.00    -0.048 A 
HETATM   27  C   UNL     1     -44.132  59.438 -59.271  1.00  0.00     0.011 A 
HETATM   28  C   UNL     1     -44.443  58.237 -59.917  1.00  0.00     0.037 A 
HETATM   29  C   UNL     1     -43.452  57.300 -60.194  1.00  0.00     0.068 A 
HETATM   30  C   UNL     1     -42.143  57.574 -59.808  1.00  0.00     0.037 A 
HETATM   31  C   UNL     1     -41.830  58.780 -59.164  1.00  0.00     0.011 A 
BRANCH  29  32
HETATM   32  O   UNL     1     -43.888  56.169 -60.826  1.00  0.00    -0.356 OA
HETATM   33  C   UNL     1     -44.269  55.077 -60.000  1.00  0.00     0.210 C 
ENDBRANCH  29  32
ENDBRANCH  21  26
ENDBRANCH  20  21
ENDBRANCH   2  20
TORSDOF 9
ENDMDL
MODEL 5
REMARK VINA RESULT:      -7.5      5.144     10.160
REMARK  9 active torsions:
REMARK  status: ('A' for Active; 'I' for Inactive)
REMARK    1  A    between atoms: C_2  and  O_3 
REMARK    2  A    between atoms: O_3  and  C_4 
REMARK    3  A    between atoms: C_4  and  C_5 
REMARK    4  A    between atoms: C_8  and  N_9 
REMARK       I    between atoms: N_9  and  C_10 
REMARK    5  A    between atoms: C_10  and  C_11 
REMARK       I    between atoms: C_11  and  N_12 
REMARK    6  A    between atoms: N_12  and  C_13 
REMARK    7  A    between atoms: C_13  and  C_14 
REMARK    8  A    between atoms: C_14  and  C_15 
REMARK    9  A    between atoms: C_18  and  O_19 
ROOT
HETATM    1  C   UNL     1     -44.410  58.090 -55.234  1.00  0.00     0.309 C 
HETATM    2  N   UNL     1     -44.664  57.345 -56.360  1.00  0.00    -0.352 N 
HETATM    3  O   UNL     1     -44.849  59.205 -54.984  1.00  0.00    -0.262 OA
HETATM    4  H   UNL     1     -44.201  56.440 -56.418  1.00  0.00     0.162 HD
ENDROOT
BRANCH   1   5
HETATM    5  C   UNL     1     -43.433  57.417 -54.246  1.00  0.00     0.313 C 
HETATM    6  N   UNL     1     -43.156  56.118 -54.613  1.00  0.00    -0.319 N 
HETATM    7  H   UNL     1     -43.605  55.825 -55.480  1.00  0.00     0.169 HD
HETATM    8  O   UNL     1     -43.039  58.054 -53.280  1.00  0.00    -0.262 OA
BRANCH   6   9
HETATM    9  C   UNL     1     -42.388  55.169 -53.920  1.00  0.00     0.035 A 
HETATM   10  C   UNL     1     -42.709  54.692 -52.648  1.00  0.00     0.030 A 
HETATM   11  C   UNL     1     -41.912  53.716 -52.036  1.00  0.00     0.020 A 
HETATM   12  C   UNL     1     -40.783  53.207 -52.688  1.00  0.00     0.039 A 
HETATM   13  C   UNL     1     -40.452  53.694 -53.957  1.00  0.00     0.020 A 
HETATM   14  C   UNL     1     -41.252  54.669 -54.566  1.00  0.00     0.030 A 
BRANCH  12  15
HETATM   15  C   UNL     1     -39.988  52.152 -52.002  1.00  0.00     0.293 C 
HETATM   16  O   UNL     1     -40.017  51.965 -50.796  1.00  0.00    -0.259 OA
BRANCH  15  17
HETATM   17  O   UNL     1     -39.256  51.448 -52.900  1.00  0.00    -0.318 OA
BRANCH  17  18
HETATM   18  C   UNL     1     -39.708  50.109 -53.158  1.00  0.00     0.174 C 
HETATM   19  C   UNL     1     -39.781  49.857 -54.652  1.00  0.00     0.034 C 
ENDBRANCH  17  18
ENDBRANCH  15  17
ENDBRANCH  12  15
ENDBRANCH   6   9
ENDBRANCH   1   5
BRANCH   2  20
HETATM   20  C   UNL     1     -45.460  57.832 -57.468  1.00  0.00     0.137 C 
BRANCH  20  21
HETATM   21  C   UNL     1     -44.803  57.682 -58.866  1.00  0.00     0.003 C 
HETATM   22  C   UNL     1     -43.788  58.805 -59.206  1.00  0.00     0.016 C 
HETATM   23  C   UNL     1     -42.948  58.237 -60.351  1.00  0.00     0.001 C 
HETATM   24  C   UNL     1     -42.959  56.722 -60.152  1.00  0.00     0.001 C 
HETATM   25  C   UNL     1     -43.829  56.476 -58.919  1.00  0.00     0.016 C 
BRANCH  21  26
HETATM   26  C   UNL     1     -45.953  57.612 -59.897  1.00  0.00    -0.048 A 
HETATM   27  C   UNL     1     -46.571  58.789 -60.356  1.00  0.00     0.011 A 
HETATM   28  C   UNL     1     -47.626  58.749 -61.273  1.00  0.00     0.037 A 
HETATM   29  C   UNL     1     -48.113  57.533 -61.745  1.00  0.00     0.068 A 
HETATM   30  C   UNL     1     -47.536  56.354 -61.282  1.00  0.00     0.037 A 
HETATM   31  C   UNL     1     -46.476  56.395 -60.365  1.00  0.00     0.011 A 
BRANCH  29  32
HETATM   32  O   UNL     1     -49.146  57.633 -62.635  1.00  0.00    -0.356 OA
HETATM   33  C   UNL     1     -49.561  58.943 -62.994  1.00  0.00     0.210 C 
ENDBRANCH  29  32
ENDBRANCH  21  26
ENDBRANCH  20  21
ENDBRANCH   2  20
TORSDOF 9
ENDMDL
MODEL 6
REMARK VINA RESULT:      -7.3      5.809      9.897
REMARK  9 active torsions:
REMARK  status: ('A' for Active; 'I' for Inactive)
REMARK    1  A    between atoms: C_2  and  O_3 
REMARK    2  A    between atoms: O_3  and  C_4 
REMARK    3  A    between atoms: C_4  and  C_5 
REMARK    4  A    between atoms: C_8  and  N_9 
REMARK       I    between atoms: N_9  and  C_10 
REMARK    5  A    between atoms: C_10  and  C_11 
REMARK       I    between atoms: C_11  and  N_12 
REMARK    6  A    between atoms: N_12  and  C_13 
REMARK    7  A    between atoms: C_13  and  C_14 
REMARK    8  A    between atoms: C_14  and  C_15 
REMARK    9  A    between atoms: C_18  and  O_19 
ROOT
HETATM    1  C   UNL     1     -42.858  56.078 -58.163  1.00  0.00     0.309 C 
HETATM    2  N   UNL     1     -42.028  57.170 -58.075  1.00  0.00    -0.352 N 
HETATM    3  O   UNL     1     -43.613  55.809 -59.088  1.00  0.00    -0.262 OA
HETATM    4  H   UNL     1     -41.476  57.251 -57.224  1.00  0.00     0.162 HD
ENDROOT
BRANCH   1   5
HETATM    5  C   UNL     1     -42.817  55.160 -56.922  1.00  0.00     0.313 C 
HETATM    6  N   UNL     1     -41.757  55.469 -56.097  1.00  0.00    -0.319 N 
HETATM    7  H   UNL     1     -41.199  56.261 -56.416  1.00  0.00     0.169 HD
HETATM    8  O   UNL     1     -43.664  54.286 -56.806  1.00  0.00    -0.262 OA
BRANCH   6   9
HETATM    9  C   UNL     1     -41.345  54.804 -54.932  1.00  0.00     0.035 A 
HETATM   10  C   UNL     1     -41.684  55.218 -53.642  1.00  0.00     0.030 A 
HETATM   11  C   UNL     1     -41.265  54.479 -52.529  1.00  0.00     0.020 A 
HETATM   12  C   UNL     1     -40.502  53.317 -52.691  1.00  0.00     0.039 A 
HETATM   13  C   UNL     1     -40.150  52.909 -53.982  1.00  0.00     0.020 A 
HETATM   14  C   UNL     1     -40.571  53.650 -55.094  1.00  0.00     0.030 A 
BRANCH  12  15
HETATM   15  C   UNL     1     -40.107  52.557 -51.474  1.00  0.00     0.293 C 
HETATM   16  O   UNL     1     -39.263  51.675 -51.475  1.00  0.00    -0.259 OA
BRANCH  15  17
HETATM   17  O   UNL     1     -40.804  52.991 -50.395  1.00  0.00    -0.318 OA
BRANCH  17  18
HETATM   18  C   UNL     1     -40.050  53.731 -49.423  1.00  0.00     0.174 C 
HETATM   19  C   UNL     1     -40.950  54.708 -48.690  1.00  0.00     0.034 C 
ENDBRANCH  17  18
ENDBRANCH  15  17
ENDBRANCH  12  15
ENDBRANCH   6   9
ENDBRANCH   1   5
BRANCH   2  20
HETATM   20  C   UNL     1     -41.993  58.218 -59.074  1.00  0.00     0.137 C 
BRANCH  20  21
HETATM   21  C   UNL     1     -42.706  59.536 -58.670  1.00  0.00     0.003 C 
HETATM   22  C   UNL     1     -44.176  59.629 -59.160  1.00  0.00     0.016 C 
HETATM   23  C   UNL     1     -44.806  60.720 -58.294  1.00  0.00     0.001 C 
HETATM   24  C   UNL     1     -44.038  60.688 -56.973  1.00  0.00     0.001 C 
HETATM   25  C   UNL     1     -42.976  59.601 -57.143  1.00  0.00     0.016 C 
BRANCH  21  26
HETATM   26  C   UNL     1     -41.842  60.698 -59.210  1.00  0.00    -0.048 A 
HETATM   27  C   UNL     1     -41.896  61.053 -60.570  1.00  0.00     0.011 A 
HETATM   28  C   UNL     1     -41.108  62.088 -61.085  1.00  0.00     0.037 A 
HETATM   29  C   UNL     1     -40.227  62.788 -60.265  1.00  0.00     0.068 A 
HETATM   30  C   UNL     1     -40.136  62.434 -58.922  1.00  0.00     0.037 A 
HETATM   31  C   UNL     1     -40.928  61.399 -58.405  1.00  0.00     0.011 A 
BRANCH  29  32
HETATM   32  O   UNL     1     -39.516  63.773 -60.892  1.00  0.00    -0.356 OA
HETATM   33  C   UNL     1     -38.879  63.427 -62.114  1.00  0.00     0.210 C 
ENDBRANCH  29  32
ENDBRANCH  21  26
ENDBRANCH  20  21
ENDBRANCH   2  20
TORSDOF 9
ENDMDL
MODEL 7
REMARK VINA RESULT:      -7.3      1.507      9.968
REMARK  9 active torsions:
REMARK  status: ('A' for Active; 'I' for Inactive)
REMARK    1  A    between atoms: C_2  and  O_3 
REMARK    2  A    between atoms: O_3  and  C_4 
REMARK    3  A    between atoms: C_4  and  C_5 
REMARK    4  A    between atoms: C_8  and  N_9 
REMARK       I    between atoms: N_9  and  C_10 
REMARK    5  A    between atoms: C_10  and  C_11 
REMARK       I    between atoms: C_11  and  N_12 
REMARK    6  A    between atoms: N_12  and  C_13 
REMARK    7  A    between atoms: C_13  and  C_14 
REMARK    8  A    between atoms: C_14  and  C_15 
REMARK    9  A    between atoms: C_18  and  O_19 
ROOT
HETATM    1  C   UNL     1     -41.734  60.051 -52.828  1.00  0.00     0.309 C 
HETATM    2  N   UNL     1     -41.979  60.278 -51.495  1.00  0.00    -0.352 N 
HETATM    3  O   UNL     1     -42.120  60.735 -53.766  1.00  0.00    -0.262 OA
HETATM    4  H   UNL     1     -41.598  59.596 -50.842  1.00  0.00     0.162 HD
ENDROOT
BRANCH   1   5
HETATM    5  C   UNL     1     -40.923  58.766 -53.104  1.00  0.00     0.313 C 
HETATM    6  N   UNL     1     -41.735  57.653 -53.142  1.00  0.00    -0.319 N 
HETATM    7  H   UNL     1     -42.726  57.856 -53.018  1.00  0.00     0.169 HD
HETATM    8  O   UNL     1     -39.711  58.850 -53.232  1.00  0.00    -0.262 OA
BRANCH   6   9
HETATM    9  C   UNL     1     -41.353  56.309 -53.279  1.00  0.00     0.035 A 
HETATM   10  C   UNL     1     -40.761  55.785 -54.430  1.00  0.00     0.030 A 
HETATM   11  C   UNL     1     -40.373  54.440 -54.477  1.00  0.00     0.020 A 
HETATM   12  C   UNL     1     -40.575  53.602 -53.374  1.00  0.00     0.039 A 
HETATM   13  C   UNL     1     -41.180  54.122 -52.225  1.00  0.00     0.020 A 
HETATM   14  C   UNL     1     -41.566  55.468 -52.182  1.00  0.00     0.030 A 
BRANCH  12  15
HETATM   15  C   UNL     1     -40.119  52.188 -53.470  1.00  0.00     0.293 C 
HETATM   16  O   UNL     1     -40.295  51.490 -54.456  1.00  0.00    -0.259 OA
BRANCH  15  17
HETATM   17  O   UNL     1     -39.489  51.813 -52.330  1.00  0.00    -0.318 OA
BRANCH  17  18
HETATM   18  C   UNL     1     -39.434  50.399 -52.085  1.00  0.00     0.174 C 
HETATM   19  C   UNL     1     -39.858  50.093 -50.661  1.00  0.00     0.034 C 
ENDBRANCH  17  18
ENDBRANCH  15  17
ENDBRANCH  12  15
ENDBRANCH   6   9
ENDBRANCH   1   5
BRANCH   2  20
HETATM   20  C   UNL     1     -42.816  61.360 -51.019  1.00  0.00     0.137 C 
BRANCH  20  21
HETATM   21  C   UNL     1     -44.309  60.993 -50.805  1.00  0.00     0.003 C 
HETATM   22  C   UNL     1     -45.208  61.285 -52.035  1.00  0.00     0.016 C 
HETATM   23  C   UNL     1     -46.469  60.451 -51.801  1.00  0.00     0.001 C 
HETATM   24  C   UNL     1     -46.016  59.251 -50.971  1.00  0.00     0.001 C 
HETATM   25  C   UNL     1     -44.520  59.457 -50.733  1.00  0.00     0.016 C 
BRANCH  21  26
HETATM   26  C   UNL     1     -44.783  61.756 -49.547  1.00  0.00    -0.048 A 
HETATM   27  C   UNL     1     -44.680  61.165 -48.274  1.00  0.00     0.011 A 
HETATM   28  C   UNL     1     -45.121  61.829 -47.125  1.00  0.00     0.037 A 
HETATM   29  C   UNL     1     -45.697  63.093 -47.209  1.00  0.00     0.068 A 
HETATM   30  C   UNL     1     -45.836  63.685 -48.462  1.00  0.00     0.037 A 
HETATM   31  C   UNL     1     -45.390  63.021 -49.614  1.00  0.00     0.011 A 
BRANCH  29  32
HETATM   32  O   UNL     1     -46.086  63.631 -46.015  1.00  0.00    -0.356 OA
HETATM   33  C   UNL     1     -47.483  63.710 -45.770  1.00  0.00     0.210 C 
ENDBRANCH  29  32
ENDBRANCH  21  26
ENDBRANCH  20  21
ENDBRANCH   2  20
TORSDOF 9
ENDMDL
MODEL 8
REMARK VINA RESULT:      -7.2      2.137      9.708
REMARK  9 active torsions:
REMARK  status: ('A' for Active; 'I' for Inactive)
REMARK    1  A    between atoms: C_2  and  O_3 
REMARK    2  A    between atoms: O_3  and  C_4 
REMARK    3  A    between atoms: C_4  and  C_5 
REMARK    4  A    between atoms: C_8  and  N_9 
REMARK       I    between atoms: N_9  and  C_10 
REMARK    5  A    between atoms: C_10  and  C_11 
REMARK       I    between atoms: C_11  and  N_12 
REMARK    6  A    between atoms: N_12  and  C_13 
REMARK    7  A    between atoms: C_13  and  C_14 
REMARK    8  A    between atoms: C_14  and  C_15 
REMARK    9  A    between atoms: C_18  and  O_19 
ROOT
HETATM    1  C   UNL     1     -41.999  59.858 -51.130  1.00  0.00     0.309 C 
HETATM    2  N   UNL     1     -42.768  60.493 -52.076  1.00  0.00    -0.352 N 
HETATM    3  O   UNL     1     -41.739  60.269 -50.007  1.00  0.00    -0.262 OA
HETATM    4  H   UNL     1     -42.869  60.017 -52.970  1.00  0.00     0.162 HD
ENDROOT
BRANCH   1   5
HETATM    5  C   UNL     1     -41.397  58.519 -51.609  1.00  0.00     0.313 C 
HETATM    6  N   UNL     1     -41.855  57.459 -50.856  1.00  0.00    -0.319 N 
HETATM    7  H   UNL     1     -42.530  57.720 -50.139  1.00  0.00     0.169 HD
HETATM    8  O   UNL     1     -40.604  58.528 -52.539  1.00  0.00    -0.262 OA
BRANCH   6   9
HETATM    9  C   UNL     1     -41.468  56.112 -50.934  1.00  0.00     0.035 A 
HETATM   10  C   UNL     1     -41.604  55.332 -52.084  1.00  0.00     0.030 A 
HETATM   11  C   UNL     1     -41.159  54.004 -52.095  1.00  0.00     0.020 A 
HETATM   12  C   UNL     1     -40.574  53.440 -50.955  1.00  0.00     0.039 A 
HETATM   13  C   UNL     1     -40.451  54.216 -49.798  1.00  0.00     0.020 A 
HETATM   14  C   UNL     1     -40.895  55.544 -49.791  1.00  0.00     0.030 A 
BRANCH  12  15
HETATM   15  C   UNL     1     -40.096  52.032 -51.032  1.00  0.00     0.293 C 
HETATM   16  O   UNL     1     -40.298  51.204 -50.158  1.00  0.00    -0.259 OA
BRANCH  15  17
HETATM   17  O   UNL     1     -39.430  51.819 -52.194  1.00  0.00    -0.318 OA
BRANCH  17  18
HETATM   18  C   UNL     1     -39.646  50.540 -52.809  1.00  0.00     0.174 C 
HETATM   19  C   UNL     1     -40.003  50.713 -54.274  1.00  0.00     0.034 C 
ENDBRANCH  17  18
ENDBRANCH  15  17
ENDBRANCH  12  15
ENDBRANCH   6   9
ENDBRANCH   1   5
BRANCH   2  20
HETATM   20  C   UNL     1     -43.333  61.812 -51.880  1.00  0.00     0.137 C 
BRANCH  20  21
HETATM   21  C   UNL     1     -44.847  61.836 -51.541  1.00  0.00     0.003 C 
HETATM   22  C   UNL     1     -45.621  63.002 -52.211  1.00  0.00     0.016 C 
HETATM   23  C   UNL     1     -47.090  62.583 -52.144  1.00  0.00     0.001 C 
HETATM   24  C   UNL     1     -47.080  61.055 -52.159  1.00  0.00     0.001 C 
HETATM   25  C   UNL     1     -45.605  60.655 -52.203  1.00  0.00     0.016 C 
BRANCH  21  26
HETATM   26  C   UNL     1     -44.962  61.877 -50.000  1.00  0.00    -0.048 A 
HETATM   27  C   UNL     1     -44.684  63.063 -49.297  1.00  0.00     0.011 A 
HETATM   28  C   UNL     1     -44.762  63.118 -47.901  1.00  0.00     0.037 A 
HETATM   29  C   UNL     1     -45.098  61.989 -47.161  1.00  0.00     0.068 A 
HETATM   30  C   UNL     1     -45.348  60.796 -47.835  1.00  0.00     0.037 A 
HETATM   31  C   UNL     1     -45.274  60.741 -49.234  1.00  0.00     0.011 A 
BRANCH  29  32
HETATM   32  O   UNL     1     -45.138  62.176 -45.808  1.00  0.00    -0.356 OA
HETATM   33  C   UNL     1     -44.620  61.129 -44.999  1.00  0.00     0.210 C 
ENDBRANCH  29  32
ENDBRANCH  21  26
ENDBRANCH  20  21
ENDBRANCH   2  20
TORSDOF 9
ENDMDL
MODEL 9
REMARK VINA RESULT:      -7.2      5.383      8.442
REMARK  9 active torsions:
REMARK  status: ('A' for Active; 'I' for Inactive)
REMARK    1  A    between atoms: C_2  and  O_3 
REMARK    2  A    between atoms: O_3  and  C_4 
REMARK    3  A    between atoms: C_4  and  C_5 
REMARK    4  A    between atoms: C_8  and  N_9 
REMARK       I    between atoms: N_9  and  C_10 
REMARK    5  A    between atoms: C_10  and  C_11 
REMARK       I    between atoms: C_11  and  N_12 
REMARK    6  A    between atoms: N_12  and  C_13 
REMARK    7  A    between atoms: C_13  and  C_14 
REMARK    8  A    between atoms: C_14  and  C_15 
REMARK    9  A    between atoms: C_18  and  O_19 
ROOT
HETATM    1  C   UNL     1     -43.399  56.320 -57.035  1.00  0.00     0.309 C 
HETATM    2  N   UNL     1     -43.811  56.746 -55.795  1.00  0.00    -0.352 N 
HETATM    3  O   UNL     1     -42.928  55.224 -57.309  1.00  0.00    -0.262 OA
HETATM    4  H   UNL     1     -44.163  57.699 -55.738  1.00  0.00     0.162 HD
ENDROOT
BRANCH   1   5
HETATM    5  C   UNL     1     -43.530  57.391 -58.139  1.00  0.00     0.313 C 
HETATM    6  N   UNL     1     -42.329  58.026 -58.374  1.00  0.00    -0.319 N 
HETATM    7  H   UNL     1     -41.555  57.671 -57.815  1.00  0.00     0.169 HD
HETATM    8  O   UNL     1     -44.623  57.578 -58.653  1.00  0.00    -0.262 OA
BRANCH   6   9
HETATM    9  C   UNL     1     -42.076  59.107 -59.233  1.00  0.00     0.035 A 
HETATM   10  C   UNL     1     -42.129  59.017 -60.626  1.00  0.00     0.030 A 
HETATM   11  C   UNL     1     -41.900  60.151 -61.416  1.00  0.00     0.020 A 
HETATM   12  C   UNL     1     -41.615  61.387 -60.824  1.00  0.00     0.039 A 
HETATM   13  C   UNL     1     -41.548  61.474 -59.429  1.00  0.00     0.020 A 
HETATM   14  C   UNL     1     -41.778  60.339 -58.642  1.00  0.00     0.030 A 
BRANCH  12  15
HETATM   15  C   UNL     1     -41.407  62.563 -61.712  1.00  0.00     0.293 C 
HETATM   16  O   UNL     1     -41.670  62.561 -62.904  1.00  0.00    -0.259 OA
BRANCH  15  17
HETATM   17  O   UNL     1     -40.904  63.607 -61.008  1.00  0.00    -0.318 OA
BRANCH  17  18
HETATM   18  C   UNL     1     -39.953  64.427 -61.705  1.00  0.00     0.174 C 
HETATM   19  C   UNL     1     -38.631  63.696 -61.847  1.00  0.00     0.034 C 
ENDBRANCH  17  18
ENDBRANCH  15  17
ENDBRANCH  12  15
ENDBRANCH   6   9
ENDBRANCH   1   5
BRANCH   2  20
HETATM   20  C   UNL     1     -43.670  55.944 -54.596  1.00  0.00     0.137 C 
BRANCH  20  21
HETATM   21  C   UNL     1     -42.390  56.225 -53.764  1.00  0.00     0.003 C 
HETATM   22  C   UNL     1     -41.521  57.382 -54.323  1.00  0.00     0.016 C 
HETATM   23  C   UNL     1     -40.621  57.791 -53.156  1.00  0.00     0.001 C 
HETATM   24  C   UNL     1     -41.414  57.459 -51.893  1.00  0.00     0.001 C 
HETATM   25  C   UNL     1     -42.726  56.845 -52.382  1.00  0.00     0.016 C 
BRANCH  21  26
HETATM   26  C   UNL     1     -41.604  54.897 -53.687  1.00  0.00    -0.048 A 
HETATM   27  C   UNL     1     -41.548  54.171 -52.483  1.00  0.00     0.011 A 
HETATM   28  C   UNL     1     -40.827  52.976 -52.386  1.00  0.00     0.037 A 
HETATM   29  C   UNL     1     -40.122  52.479 -53.478  1.00  0.00     0.068 A 
HETATM   30  C   UNL     1     -40.139  53.196 -54.670  1.00  0.00     0.037 A 
HETATM   31  C   UNL     1     -40.865  54.392 -54.770  1.00  0.00     0.011 A 
BRANCH  29  32
HETATM   32  O   UNL     1     -39.458  51.306 -53.250  1.00  0.00    -0.356 OA
HETATM   33  C   UNL     1     -39.673  50.254 -54.182  1.00  0.00     0.210 C 
ENDBRANCH  29  32
ENDBRANCH  21  26
ENDBRANCH  20  21
ENDBRANCH   2  20
TORSDOF 9
ENDMDL
MODEL 10
REMARK VINA RESULT:      -7.0      4.806      8.798
REMARK  9 active torsions:
REMARK  status: ('A' for Active; 'I' for Inactive)
REMARK    1  A    between atoms: C_2  and  O_3 
REMARK    2  A    between atoms: O_3  and  C_4 
REMARK    3  A    between atoms: C_4  and  C_5 
REMARK    4  A    between atoms: C_8  and  N_9 
REMARK       I    between atoms: N_9  and  C_10 
REMARK    5  A    between atoms: C_10  and  C_11 
REMARK       I    between atoms: C_11  and  N_12 
REMARK    6  A    between atoms: N_12  and  C_13 
REMARK    7  A    between atoms: C_13  and  C_14 
REMARK    8  A    between atoms: C_14  and  C_15 
REMARK    9  A    between atoms: C_18  and  O_19 
ROOT
HETATM    1  C   UNL     1     -42.666  54.977 -56.429  1.00  0.00     0.309 C 
HETATM    2  N   UNL     1     -41.524  55.238 -55.710  1.00  0.00    -0.352 N 
HETATM    3  O   UNL     1     -43.487  54.099 -56.198  1.00  0.00    -0.262 OA
HETATM    4  H   UNL     1     -40.938  55.997 -56.052  1.00  0.00     0.162 HD
ENDROOT
BRANCH   1   5
HETATM    5  C   UNL     1     -42.851  55.888 -57.662  1.00  0.00     0.313 C 
HETATM    6  N   UNL     1     -42.080  57.027 -57.570  1.00  0.00    -0.319 N 
HETATM    7  H   UNL     1     -41.497  57.069 -56.735  1.00  0.00     0.169 HD
HETATM    8  O   UNL     1     -43.632  55.545 -58.537  1.00  0.00    -0.262 OA
BRANCH   6   9
HETATM    9  C   UNL     1     -42.049  58.123 -58.448  1.00  0.00     0.035 A 
HETATM   10  C   UNL     1     -41.964  58.001 -59.836  1.00  0.00     0.030 A 
HETATM   11  C   UNL     1     -41.975  59.142 -60.648  1.00  0.00     0.020 A 
HETATM   12  C   UNL     1     -42.070  60.419 -60.082  1.00  0.00     0.039 A 
HETATM   13  C   UNL     1     -42.140  60.542 -58.690  1.00  0.00     0.020 A 
HETATM   14  C   UNL     1     -42.130  59.399 -57.881  1.00  0.00     0.030 A 
BRANCH  12  15
HETATM   15  C   UNL     1     -42.104  61.594 -60.994  1.00  0.00     0.293 C 
HETATM   16  O   UNL     1     -43.085  62.305 -61.139  1.00  0.00    -0.259 OA
BRANCH  15  17
HETATM   17  O   UNL     1     -40.907  61.751 -61.612  1.00  0.00    -0.318 OA
BRANCH  17  18
HETATM   18  C   UNL     1     -40.264  63.019 -61.411  1.00  0.00     0.174 C 
HETATM   19  C   UNL     1     -39.602  63.064 -60.046  1.00  0.00     0.034 C 
ENDBRANCH  17  18
ENDBRANCH  15  17
ENDBRANCH  12  15
ENDBRANCH   6   9
ENDBRANCH   1   5
BRANCH   2  20
HETATM   20  C   UNL     1     -41.096  54.431 -54.586  1.00  0.00     0.137 C 
BRANCH  20  21
HETATM   21  C   UNL     1     -41.616  54.903 -53.201  1.00  0.00     0.003 C 
HETATM   22  C   UNL     1     -42.942  54.226 -52.766  1.00  0.00     0.016 C 
HETATM   23  C   UNL     1     -43.018  54.454 -51.256  1.00  0.00     0.001 C 
HETATM   24  C   UNL     1     -41.567  54.545 -50.783  1.00  0.00     0.001 C 
HETATM   25  C   UNL     1     -40.715  54.396 -52.044  1.00  0.00     0.016 C 
BRANCH  21  26
HETATM   26  C   UNL     1     -41.748  56.441 -53.272  1.00  0.00    -0.048 A 
HETATM   27  C   UNL     1     -40.608  57.260 -53.174  1.00  0.00     0.011 A 
HETATM   28  C   UNL     1     -40.707  58.655 -53.216  1.00  0.00     0.037 A 
HETATM   29  C   UNL     1     -41.945  59.278 -53.336  1.00  0.00     0.068 A 
HETATM   30  C   UNL     1     -43.090  58.488 -53.405  1.00  0.00     0.037 A 
HETATM   31  C   UNL     1     -42.991  57.090 -53.367  1.00  0.00     0.011 A 
BRANCH  29  32
HETATM   32  O   UNL     1     -41.903  60.644 -53.364  1.00  0.00    -0.356 OA
HETATM   33  C   UNL     1     -42.934  61.304 -54.086  1.00  0.00     0.210 C 
ENDBRANCH  29  32
ENDBRANCH  21  26
ENDBRANCH  20  21
ENDBRANCH   2  20
TORSDOF 9
ENDMDL
