MODEL 1
REMARK VINA RESULT:      -7.0      0.000      0.000
REMARK  5 active torsions:
REMARK  status: ('A' for Active; 'I' for Inactive)
REMARK    1  A    between atoms: C_2  and  C_3 
REMARK    2  A    between atoms: C_7  and  C_8 
REMARK       I    between atoms: C_8  and  N_9 
REMARK    3  A    between atoms: N_9  and  C_10 
REMARK    4  A    between atoms: C_13  and  C_14 
REMARK       I    between atoms: C_14  and  N_15 
REMARK    5  A    between atoms: N_15  and  C_16 
ROOT
HETATM    1  C   UNL     1     -41.813  57.808 -51.247  1.00  0.00     0.035 A 
HETATM    2  C   UNL     1     -40.944  58.675 -50.582  1.00  0.00     0.030 A 
HETATM    3  C   UNL     1     -41.362  59.959 -50.206  1.00  0.00     0.019 A 
HETATM    4  C   UNL     1     -42.657  60.398 -50.504  1.00  0.00     0.032 A 
HETATM    5  C   UNL     1     -43.538  59.520 -51.145  1.00  0.00     0.019 A 
HETATM    6  C   UNL     1     -43.119  58.238 -51.513  1.00  0.00     0.030 A 
ENDROOT
BRANCH   1   7
HETATM    7  N   UNL     1     -41.462  56.514 -51.684  1.00  0.00    -0.322 N 
HETATM    8  C   UNL     1     -41.286  55.379 -50.916  1.00  0.00     0.274 C 
HETATM    9  O   UNL     1     -41.458  55.307 -49.705  1.00  0.00    -0.266 OA
HETATM   10  H   UNL     1     -41.303  56.416 -52.675  1.00  0.00     0.169 HD
BRANCH   8  11
HETATM   11  C   UNL     1     -40.858  54.217 -51.660  1.00  0.00     0.120 A 
HETATM   12  N   UNL     1     -40.004  53.299 -51.106  1.00  0.00    -0.273 N 
HETATM   13  N   UNL     1     -39.680  52.284 -51.922  1.00  0.00    -0.179 NA
HETATM   14  H   UNL     1     -39.608  53.326 -50.170  1.00  0.00     0.189 HD
HETATM   15  C   UNL     1     -40.347  52.551 -53.049  1.00  0.00     0.056 A 
HETATM   16  C   UNL     1     -41.102  53.743 -52.935  1.00  0.00     0.065 A 
BRANCH  15  17
HETATM   17  C   UNL     1     -40.234  51.643 -54.226  1.00  0.00     0.056 C 
HETATM   18  C   UNL     1     -39.768  50.248 -53.836  1.00  0.00     0.011 C 
ENDBRANCH  15  17
ENDBRANCH   8  11
ENDBRANCH   1   7
BRANCH   4  19
HETATM   19  C   UNL     1     -43.147  61.764 -50.159  1.00  0.00     0.252 C 
HETATM   20  N   UNL     1     -44.162  61.840 -49.226  1.00  0.00    -0.352 N 
HETATM   21  H   UNL     1     -44.378  61.016 -48.686  1.00  0.00     0.163 HD
HETATM   22  O   UNL     1     -42.623  62.749 -50.670  1.00  0.00    -0.268 OA
BRANCH  20  23
HETATM   23  C   UNL     1     -44.613  63.122 -48.691  1.00  0.00     0.084 C 
HETATM   24  C   UNL     1     -45.702  63.728 -49.585  1.00  0.00     0.025 C 
HETATM   25  C   UNL     1     -47.037  62.990 -49.484  1.00  0.00     0.002 C 
HETATM   26  C   UNL     1     -47.501  62.858 -48.037  1.00  0.00     0.000 C 
HETATM   27  C   UNL     1     -46.434  62.218 -47.155  1.00  0.00     0.002 C 
HETATM   28  C   UNL     1     -45.104  62.967 -47.245  1.00  0.00     0.025 C 
ENDBRANCH  20  23
ENDBRANCH   4  19
TORSDOF 5
ENDMDL
MODEL 2
REMARK VINA RESULT:      -7.0      1.744      2.316
REMARK  5 active torsions:
REMARK  status: ('A' for Active; 'I' for Inactive)
REMARK    1  A    between atoms: C_2  and  C_3 
REMARK    2  A    between atoms: C_7  and  C_8 
REMARK       I    between atoms: C_8  and  N_9 
REMARK    3  A    between atoms: N_9  and  C_10 
REMARK    4  A    between atoms: C_13  and  C_14 
REMARK       I    between atoms: C_14  and  N_15 
REMARK    5  A    between atoms: N_15  and  C_16 
ROOT
HETATM    1  C   UNL     1     -43.004  57.064 -51.491  1.00  0.00     0.035 A 
HETATM    2  C   UNL     1     -42.508  58.369 -51.453  1.00  0.00     0.030 A 
HETATM    3  C   UNL     1     -43.361  59.453 -51.204  1.00  0.00     0.019 A 
HETATM    4  C   UNL     1     -44.729  59.245 -51.000  1.00  0.00     0.032 A 
HETATM    5  C   UNL     1     -45.223  57.935 -51.007  1.00  0.00     0.019 A 
HETATM    6  C   UNL     1     -44.368  56.856 -51.251  1.00  0.00     0.030 A 
ENDROOT
BRANCH   1   7
HETATM    7  N   UNL     1     -42.220  55.925 -51.763  1.00  0.00    -0.322 N 
HETATM    8  C   UNL     1     -42.055  55.278 -52.973  1.00  0.00     0.274 C 
HETATM    9  O   UNL     1     -42.543  55.633 -54.040  1.00  0.00    -0.266 OA
HETATM   10  H   UNL     1     -41.738  55.526 -50.971  1.00  0.00     0.169 HD
BRANCH   8  11
HETATM   11  C   UNL     1     -41.235  54.090 -52.908  1.00  0.00     0.120 A 
HETATM   12  N   UNL     1     -40.548  53.770 -51.766  1.00  0.00    -0.273 N 
HETATM   13  N   UNL     1     -39.815  52.649 -51.861  1.00  0.00    -0.179 NA
HETATM   14  H   UNL     1     -40.543  54.291 -50.894  1.00  0.00     0.189 HD
HETATM   15  C   UNL     1     -40.033  52.225 -53.109  1.00  0.00     0.056 A 
HETATM   16  C   UNL     1     -40.918  53.086 -53.803  1.00  0.00     0.065 A 
BRANCH  15  17
HETATM   17  C   UNL     1     -39.370  50.988 -53.614  1.00  0.00     0.056 C 
HETATM   18  C   UNL     1     -40.333  50.089 -54.376  1.00  0.00     0.011 C 
ENDBRANCH  15  17
ENDBRANCH   8  11
ENDBRANCH   1   7
BRANCH   4  19
HETATM   19  C   UNL     1     -45.690  60.361 -50.763  1.00  0.00     0.252 C 
HETATM   20  N   UNL     1     -45.572  61.034 -49.562  1.00  0.00    -0.352 N 
HETATM   21  H   UNL     1     -44.743  60.883 -49.008  1.00  0.00     0.163 HD
HETATM   22  O   UNL     1     -46.503  60.663 -51.629  1.00  0.00    -0.268 OA
BRANCH  20  23
HETATM   23  C   UNL     1     -46.346  62.241 -49.284  1.00  0.00     0.084 C 
HETATM   24  C   UNL     1     -46.714  62.317 -47.797  1.00  0.00     0.025 C 
HETATM   25  C   UNL     1     -45.518  62.638 -46.902  1.00  0.00     0.002 C 
HETATM   26  C   UNL     1     -44.783  63.891 -47.368  1.00  0.00     0.000 C 
HETATM   27  C   UNL     1     -44.381  63.800 -48.836  1.00  0.00     0.002 C 
HETATM   28  C   UNL     1     -45.581  63.495 -49.732  1.00  0.00     0.025 C 
ENDBRANCH  20  23
ENDBRANCH   4  19
TORSDOF 5
ENDMDL
MODEL 3
REMARK VINA RESULT:      -6.8      6.288      7.909
REMARK  5 active torsions:
REMARK  status: ('A' for Active; 'I' for Inactive)
REMARK    1  A    between atoms: C_2  and  C_3 
REMARK    2  A    between atoms: C_7  and  C_8 
REMARK       I    between atoms: C_8  and  N_9 
REMARK    3  A    between atoms: N_9  and  C_10 
REMARK    4  A    between atoms: C_13  and  C_14 
REMARK       I    between atoms: C_14  and  N_15 
REMARK    5  A    between atoms: N_15  and  C_16 
ROOT
HETATM    1  C   UNL     1     -42.537  55.188 -55.300  1.00  0.00     0.035 A 
HETATM    2  C   UNL     1     -43.017  56.328 -54.653  1.00  0.00     0.030 A 
HETATM    3  C   UNL     1     -43.599  57.374 -55.383  1.00  0.00     0.019 A 
HETATM    4  C   UNL     1     -43.695  57.297 -56.777  1.00  0.00     0.032 A 
HETATM    5  C   UNL     1     -43.241  56.142 -57.424  1.00  0.00     0.019 A 
HETATM    6  C   UNL     1     -42.666  55.098 -56.691  1.00  0.00     0.030 A 
ENDROOT
BRANCH   1   7
HETATM    7  N   UNL     1     -41.914  54.107 -54.643  1.00  0.00    -0.322 N 
HETATM    8  C   UNL     1     -40.562  53.832 -54.557  1.00  0.00     0.274 C 
HETATM    9  O   UNL     1     -39.664  54.532 -55.011  1.00  0.00    -0.266 OA
HETATM   10  H   UNL     1     -42.536  53.447 -54.201  1.00  0.00     0.169 HD
BRANCH   8  11
HETATM   11  C   UNL     1     -40.247  52.601 -53.868  1.00  0.00     0.120 A 
HETATM   12  N   UNL     1     -40.143  51.417 -54.550  1.00  0.00    -0.273 N 
HETATM   13  N   UNL     1     -39.865  50.358 -53.775  1.00  0.00    -0.179 NA
HETATM   14  H   UNL     1     -40.261  51.281 -55.550  1.00  0.00     0.189 HD
HETATM   15  C   UNL     1     -39.785  50.870 -52.543  1.00  0.00     0.056 A 
HETATM   16  C   UNL     1     -40.009  52.268 -52.547  1.00  0.00     0.065 A 
BRANCH  15  17
HETATM   17  C   UNL     1     -39.497  49.989 -51.375  1.00  0.00     0.056 C 
HETATM   18  C   UNL     1     -40.183  50.473 -50.106  1.00  0.00     0.011 C 
ENDBRANCH  15  17
ENDBRANCH   8  11
ENDBRANCH   1   7
BRANCH   4  19
HETATM   19  C   UNL     1     -44.273  58.392 -57.609  1.00  0.00     0.252 C 
HETATM   20  N   UNL     1     -43.418  59.008 -58.502  1.00  0.00    -0.352 N 
HETATM   21  H   UNL     1     -42.530  58.571 -58.692  1.00  0.00     0.163 HD
HETATM   22  O   UNL     1     -45.461  58.676 -57.505  1.00  0.00    -0.268 OA
BRANCH  20  23
HETATM   23  C   UNL     1     -43.904  59.980 -59.477  1.00  0.00     0.084 C 
HETATM   24  C   UNL     1     -43.419  61.391 -59.124  1.00  0.00     0.025 C 
HETATM   25  C   UNL     1     -41.924  61.588 -59.375  1.00  0.00     0.002 C 
HETATM   26  C   UNL     1     -41.532  61.195 -60.795  1.00  0.00     0.000 C 
HETATM   27  C   UNL     1     -41.980  59.777 -61.135  1.00  0.00     0.002 C 
HETATM   28  C   UNL     1     -43.478  59.585 -60.899  1.00  0.00     0.025 C 
ENDBRANCH  20  23
ENDBRANCH   4  19
TORSDOF 5
ENDMDL
MODEL 4
REMARK VINA RESULT:      -6.8     18.583     21.486
REMARK  5 active torsions:
REMARK  status: ('A' for Active; 'I' for Inactive)
REMARK    1  A    between atoms: C_2  and  C_3 
REMARK    2  A    between atoms: C_7  and  C_8 
REMARK       I    between atoms: C_8  and  N_9 
REMARK    3  A    between atoms: N_9  and  C_10 
REMARK    4  A    between atoms: C_13  and  C_14 
REMARK       I    between atoms: C_14  and  N_15 
REMARK    5  A    between atoms: N_15  and  C_16 
ROOT
HETATM    1  C   UNL     1     -33.809  40.418 -51.842  1.00  0.00     0.035 A 
HETATM    2  C   UNL     1     -34.409  40.040 -50.640  1.00  0.00     0.030 A 
HETATM    3  C   UNL     1     -33.630  39.678 -49.533  1.00  0.00     0.019 A 
HETATM    4  C   UNL     1     -32.234  39.677 -49.620  1.00  0.00     0.032 A 
HETATM    5  C   UNL     1     -31.629  40.084 -50.815  1.00  0.00     0.019 A 
HETATM    6  C   UNL     1     -32.411  40.450 -51.915  1.00  0.00     0.030 A 
ENDROOT
BRANCH   1   7
HETATM    7  N   UNL     1     -34.520  40.768 -53.009  1.00  0.00    -0.322 N 
HETATM    8  C   UNL     1     -35.307  41.884 -53.220  1.00  0.00     0.274 C 
HETATM    9  O   UNL     1     -35.477  42.795 -52.417  1.00  0.00    -0.266 OA
HETATM   10  H   UNL     1     -34.458  40.111 -53.772  1.00  0.00     0.169 HD
BRANCH   8  11
HETATM   11  C   UNL     1     -35.960  41.919 -54.508  1.00  0.00     0.120 A 
HETATM   12  N   UNL     1     -37.309  41.708 -54.621  1.00  0.00    -0.273 N 
HETATM   13  N   UNL     1     -37.770  41.752 -55.880  1.00  0.00    -0.179 NA
HETATM   14  H   UNL     1     -37.961  41.525 -53.862  1.00  0.00     0.189 HD
HETATM   15  C   UNL     1     -36.681  41.998 -56.615  1.00  0.00     0.056 A 
HETATM   16  C   UNL     1     -35.526  42.118 -55.805  1.00  0.00     0.065 A 
BRANCH  15  17
HETATM   17  C   UNL     1     -36.779  42.108 -58.098  1.00  0.00     0.056 C 
HETATM   18  C   UNL     1     -37.696  41.050 -58.696  1.00  0.00     0.011 C 
ENDBRANCH  15  17
ENDBRANCH   8  11
ENDBRANCH   1   7
BRANCH   4  19
HETATM   19  C   UNL     1     -31.354  39.270 -48.486  1.00  0.00     0.252 C 
HETATM   20  N   UNL     1     -31.859  38.317 -47.623  1.00  0.00    -0.352 N 
HETATM   21  H   UNL     1     -32.683  37.807 -47.902  1.00  0.00     0.163 HD
HETATM   22  O   UNL     1     -30.231  39.749 -48.381  1.00  0.00    -0.268 OA
BRANCH  20  23
HETATM   23  C   UNL     1     -31.035  37.724 -46.573  1.00  0.00     0.084 C 
HETATM   24  C   UNL     1     -30.491  38.808 -45.635  1.00  0.00     0.025 C 
HETATM   25  C   UNL     1     -31.565  39.408 -44.728  1.00  0.00     0.002 C 
HETATM   26  C   UNL     1     -32.327  38.329 -43.965  1.00  0.00     0.000 C 
HETATM   27  C   UNL     1     -32.902  37.271 -44.900  1.00  0.00     0.002 C 
HETATM   28  C   UNL     1     -31.823  36.661 -45.795  1.00  0.00     0.025 C 
ENDBRANCH  20  23
ENDBRANCH   4  19
TORSDOF 5
ENDMDL
MODEL 5
REMARK VINA RESULT:      -6.8     19.166     21.800
REMARK  5 active torsions:
REMARK  status: ('A' for Active; 'I' for Inactive)
REMARK    1  A    between atoms: C_2  and  C_3 
REMARK    2  A    between atoms: C_7  and  C_8 
REMARK       I    between atoms: C_8  and  N_9 
REMARK    3  A    between atoms: N_9  and  C_10 
REMARK    4  A    between atoms: C_13  and  C_14 
REMARK       I    between atoms: C_14  and  N_15 
REMARK    5  A    between atoms: N_15  and  C_16 
ROOT
HETATM    1  C   UNL     1     -32.766  39.990 -49.986  1.00  0.00     0.035 A 
HETATM    2  C   UNL     1     -32.279  40.137 -51.286  1.00  0.00     0.030 A 
HETATM    3  C   UNL     1     -33.110  39.916 -52.393  1.00  0.00     0.019 A 
HETATM    4  C   UNL     1     -34.442  39.529 -52.211  1.00  0.00     0.032 A 
HETATM    5  C   UNL     1     -34.941  39.411 -50.910  1.00  0.00     0.019 A 
HETATM    6  C   UNL     1     -34.110  39.638 -49.808  1.00  0.00     0.030 A 
ENDROOT
BRANCH   1   7
HETATM    7  N   UNL     1     -31.990  40.166 -48.823  1.00  0.00    -0.322 N 
HETATM    8  C   UNL     1     -31.464  39.190 -47.998  1.00  0.00     0.274 C 
HETATM    9  O   UNL     1     -31.553  37.982 -48.182  1.00  0.00    -0.266 OA
HETATM   10  H   UNL     1     -31.817  41.124 -48.554  1.00  0.00     0.169 HD
BRANCH   8  11
HETATM   11  C   UNL     1     -30.768  39.700 -46.839  1.00  0.00     0.120 A 
HETATM   12  N   UNL     1     -30.213  40.953 -46.844  1.00  0.00    -0.273 N 
HETATM   13  N   UNL     1     -29.584  41.281 -45.705  1.00  0.00    -0.179 NA
HETATM   14  H   UNL     1     -30.233  41.623 -47.609  1.00  0.00     0.189 HD
HETATM   15  C   UNL     1     -29.734  40.203 -44.930  1.00  0.00     0.056 A 
HETATM   16  C   UNL     1     -30.472  39.190 -45.589  1.00  0.00     0.065 A 
BRANCH  15  17
HETATM   17  C   UNL     1     -29.151  40.170 -43.559  1.00  0.00     0.056 C 
HETATM   18  C   UNL     1     -27.815  39.441 -43.518  1.00  0.00     0.011 C 
ENDBRANCH  15  17
ENDBRANCH   8  11
ENDBRANCH   1   7
BRANCH   4  19
HETATM   19  C   UNL     1     -35.364  39.248 -53.350  1.00  0.00     0.252 C 
HETATM   20  N   UNL     1     -35.201  40.019 -54.484  1.00  0.00    -0.352 N 
HETATM   21  H   UNL     1     -34.365  40.578 -54.566  1.00  0.00     0.163 HD
HETATM   22  O   UNL     1     -36.186  38.342 -53.262  1.00  0.00    -0.268 OA
BRANCH  20  23
HETATM   23  C   UNL     1     -35.932  39.733 -55.714  1.00  0.00     0.084 C 
HETATM   24  C   UNL     1     -37.238  40.536 -55.768  1.00  0.00     0.025 C 
HETATM   25  C   UNL     1     -37.011  42.028 -56.014  1.00  0.00     0.002 C 
HETATM   26  C   UNL     1     -36.146  42.272 -57.247  1.00  0.00     0.000 C 
HETATM   27  C   UNL     1     -34.830  41.505 -57.176  1.00  0.00     0.002 C 
HETATM   28  C   UNL     1     -35.058  40.011 -56.946  1.00  0.00     0.025 C 
ENDBRANCH  20  23
ENDBRANCH   4  19
TORSDOF 5
ENDMDL
MODEL 6
REMARK VINA RESULT:      -6.5     18.576     21.949
REMARK  5 active torsions:
REMARK  status: ('A' for Active; 'I' for Inactive)
REMARK    1  A    between atoms: C_2  and  C_3 
REMARK    2  A    between atoms: C_7  and  C_8 
REMARK       I    between atoms: C_8  and  N_9 
REMARK    3  A    between atoms: N_9  and  C_10 
REMARK    4  A    between atoms: C_13  and  C_14 
REMARK       I    between atoms: C_14  and  N_15 
REMARK    5  A    between atoms: N_15  and  C_16 
ROOT
HETATM    1  C   UNL     1     -33.681  39.682 -50.655  1.00  0.00     0.035 A 
HETATM    2  C   UNL     1     -32.426  39.992 -50.128  1.00  0.00     0.030 A 
HETATM    3  C   UNL     1     -32.020  39.471 -48.892  1.00  0.00     0.019 A 
HETATM    4  C   UNL     1     -32.873  38.639 -48.159  1.00  0.00     0.032 A 
HETATM    5  C   UNL     1     -34.120  38.303 -48.699  1.00  0.00     0.019 A 
HETATM    6  C   UNL     1     -34.519  38.821 -49.935  1.00  0.00     0.030 A 
ENDROOT
BRANCH   1   7
HETATM    7  N   UNL     1     -34.176  40.187 -51.875  1.00  0.00    -0.322 N 
HETATM    8  C   UNL     1     -34.676  41.450 -52.130  1.00  0.00     0.274 C 
HETATM    9  O   UNL     1     -34.724  42.371 -51.323  1.00  0.00    -0.266 OA
HETATM   10  H   UNL     1     -34.182  39.537 -52.647  1.00  0.00     0.169 HD
BRANCH   8  11
HETATM   11  C   UNL     1     -35.171  41.635 -53.475  1.00  0.00     0.120 A 
HETATM   12  N   UNL     1     -34.318  41.634 -54.547  1.00  0.00    -0.273 N 
HETATM   13  N   UNL     1     -34.920  41.836 -55.730  1.00  0.00    -0.179 NA
HETATM   14  H   UNL     1     -33.310  41.504 -54.521  1.00  0.00     0.189 HD
HETATM   15  C   UNL     1     -36.211  41.974 -55.416  1.00  0.00     0.056 A 
HETATM   16  C   UNL     1     -36.423  41.850 -54.021  1.00  0.00     0.065 A 
BRANCH  15  17
HETATM   17  C   UNL     1     -37.224  42.231 -56.479  1.00  0.00     0.056 C 
HETATM   18  C   UNL     1     -36.677  41.965 -57.874  1.00  0.00     0.011 C 
ENDBRANCH  15  17
ENDBRANCH   8  11
ENDBRANCH   1   7
BRANCH   4  19
HETATM   19  C   UNL     1     -32.509  38.082 -46.824  1.00  0.00     0.252 C 
HETATM   20  N   UNL     1     -31.218  38.314 -46.389  1.00  0.00    -0.352 N 
HETATM   21  H   UNL     1     -30.664  38.998 -46.880  1.00  0.00     0.163 HD
HETATM   22  O   UNL     1     -33.350  37.487 -46.159  1.00  0.00    -0.268 OA
BRANCH  20  23
HETATM   23  C   UNL     1     -30.793  37.958 -45.038  1.00  0.00     0.084 C 
HETATM   24  C   UNL     1     -29.313  37.555 -45.024  1.00  0.00     0.025 C 
HETATM   25  C   UNL     1     -28.370  38.741 -45.224  1.00  0.00     0.002 C 
HETATM   26  C   UNL     1     -28.659  39.866 -44.235  1.00  0.00     0.000 C 
HETATM   27  C   UNL     1     -30.121  40.295 -44.276  1.00  0.00     0.002 C 
HETATM   28  C   UNL     1     -31.064  39.110 -44.060  1.00  0.00     0.025 C 
ENDBRANCH  20  23
ENDBRANCH   4  19
TORSDOF 5
ENDMDL
MODEL 7
REMARK VINA RESULT:      -6.5     19.054     22.129
REMARK  5 active torsions:
REMARK  status: ('A' for Active; 'I' for Inactive)
REMARK    1  A    between atoms: C_2  and  C_3 
REMARK    2  A    between atoms: C_7  and  C_8 
REMARK       I    between atoms: C_8  and  N_9 
REMARK    3  A    between atoms: N_9  and  C_10 
REMARK    4  A    between atoms: C_13  and  C_14 
REMARK       I    between atoms: C_14  and  N_15 
REMARK    5  A    between atoms: N_15  and  C_16 
ROOT
HETATM    1  C   UNL     1     -32.528  39.397 -49.803  1.00  0.00     0.035 A 
HETATM    2  C   UNL     1     -33.172  40.577 -50.180  1.00  0.00     0.030 A 
HETATM    3  C   UNL     1     -33.273  40.938 -51.531  1.00  0.00     0.019 A 
HETATM    4  C   UNL     1     -32.717  40.125 -52.525  1.00  0.00     0.032 A 
HETATM    5  C   UNL     1     -32.097  38.927 -52.151  1.00  0.00     0.019 A 
HETATM    6  C   UNL     1     -32.003  38.568 -50.802  1.00  0.00     0.030 A 
ENDROOT
BRANCH   1   7
HETATM    7  N   UNL     1     -32.358  38.978 -48.468  1.00  0.00    -0.322 N 
HETATM    8  C   UNL     1     -31.237  39.114 -47.671  1.00  0.00     0.274 C 
HETATM    9  O   UNL     1     -30.200  39.680 -47.996  1.00  0.00    -0.266 OA
HETATM   10  H   UNL     1     -33.148  38.504 -48.055  1.00  0.00     0.169 HD
BRANCH   8  11
HETATM   11  C   UNL     1     -31.359  38.514 -46.363  1.00  0.00     0.120 A 
HETATM   12  N   UNL     1     -31.392  37.152 -46.211  1.00  0.00    -0.273 N 
HETATM   13  N   UNL     1     -31.527  36.742 -44.941  1.00  0.00    -0.179 NA
HETATM   14  H   UNL     1     -31.330  36.457 -46.951  1.00  0.00     0.189 HD
HETATM   15  C   UNL     1     -31.585  37.878 -44.239  1.00  0.00     0.056 A 
HETATM   16  C   UNL     1     -31.478  39.013 -45.079  1.00  0.00     0.065 A 
BRANCH  15  17
HETATM   17  C   UNL     1     -31.751  37.844 -42.758  1.00  0.00     0.056 C 
HETATM   18  C   UNL     1     -30.519  37.296 -42.052  1.00  0.00     0.011 C 
ENDBRANCH  15  17
ENDBRANCH   8  11
ENDBRANCH   1   7
BRANCH   4  19
HETATM   19  C   UNL     1     -32.764  40.473 -53.974  1.00  0.00     0.252 C 
HETATM   20  N   UNL     1     -33.986  40.883 -54.472  1.00  0.00    -0.352 N 
HETATM   21  H   UNL     1     -34.715  41.117 -53.817  1.00  0.00     0.163 HD
HETATM   22  O   UNL     1     -31.741  40.424 -54.649  1.00  0.00    -0.268 OA
BRANCH  20  23
HETATM   23  C   UNL     1     -34.121  41.400 -55.831  1.00  0.00     0.084 C 
HETATM   24  C   UNL     1     -34.585  40.295 -56.788  1.00  0.00     0.025 C 
HETATM   25  C   UNL     1     -36.047  39.899 -56.579  1.00  0.00     0.002 C 
HETATM   26  C   UNL     1     -36.972  41.111 -56.624  1.00  0.00     0.000 C 
HETATM   27  C   UNL     1     -36.535  42.195 -55.644  1.00  0.00     0.002 C 
HETATM   28  C   UNL     1     -35.078  42.601 -55.864  1.00  0.00     0.025 C 
ENDBRANCH  20  23
ENDBRANCH   4  19
TORSDOF 5
ENDMDL
MODEL 8
REMARK VINA RESULT:      -6.4      2.974      3.769
REMARK  5 active torsions:
REMARK  status: ('A' for Active; 'I' for Inactive)
REMARK    1  A    between atoms: C_2  and  C_3 
REMARK    2  A    between atoms: C_7  and  C_8 
REMARK       I    between atoms: C_8  and  N_9 
REMARK    3  A    between atoms: N_9  and  C_10 
REMARK    4  A    between atoms: C_13  and  C_14 
REMARK       I    between atoms: C_14  and  N_15 
REMARK    5  A    between atoms: N_15  and  C_16 
ROOT
HETATM    1  C   UNL     1     -43.216  56.466 -53.368  1.00  0.00     0.035 A 
HETATM    2  C   UNL     1     -43.450  57.453 -52.409  1.00  0.00     0.030 A 
HETATM    3  C   UNL     1     -44.211  58.587 -52.720  1.00  0.00     0.019 A 
HETATM    4  C   UNL     1     -44.740  58.755 -54.005  1.00  0.00     0.032 A 
HETATM    5  C   UNL     1     -44.532  57.752 -54.959  1.00  0.00     0.019 A 
HETATM    6  C   UNL     1     -43.776  56.619 -54.643  1.00  0.00     0.030 A 
ENDROOT
BRANCH   1   7
HETATM    7  N   UNL     1     -42.438  55.311 -53.145  1.00  0.00    -0.322 N 
HETATM    8  C   UNL     1     -41.151  55.057 -53.580  1.00  0.00     0.274 C 
HETATM    9  O   UNL     1     -40.447  55.840 -54.208  1.00  0.00    -0.266 OA
HETATM   10  H   UNL     1     -42.888  54.576 -52.619  1.00  0.00     0.169 HD
BRANCH   8  11
HETATM   11  C   UNL     1     -40.655  53.743 -53.242  1.00  0.00     0.120 A 
HETATM   12  N   UNL     1     -40.194  53.467 -51.981  1.00  0.00    -0.273 N 
HETATM   13  N   UNL     1     -39.748  52.211 -51.821  1.00  0.00    -0.179 NA
HETATM   14  H   UNL     1     -40.158  54.108 -51.193  1.00  0.00     0.189 HD
HETATM   15  C   UNL     1     -39.925  51.650 -53.021  1.00  0.00     0.056 A 
HETATM   16  C   UNL     1     -40.495  52.562 -53.942  1.00  0.00     0.065 A 
BRANCH  15  17
HETATM   17  C   UNL     1     -39.530  50.232 -53.258  1.00  0.00     0.056 C 
HETATM   18  C   UNL     1     -39.764  49.801 -54.698  1.00  0.00     0.011 C 
ENDBRANCH  15  17
ENDBRANCH   8  11
ENDBRANCH   1   7
BRANCH   4  19
HETATM   19  C   UNL     1     -45.530  59.956 -54.403  1.00  0.00     0.252 C 
HETATM   20  N   UNL     1     -46.113  60.680 -53.381  1.00  0.00    -0.352 N 
HETATM   21  H   UNL     1     -45.820  60.492 -52.435  1.00  0.00     0.163 HD
HETATM   22  O   UNL     1     -45.603  60.276 -55.585  1.00  0.00    -0.268 OA
BRANCH  20  23
HETATM   23  C   UNL     1     -46.773  61.958 -53.631  1.00  0.00     0.084 C 
HETATM   24  C   UNL     1     -47.825  62.244 -52.552  1.00  0.00     0.025 C 
HETATM   25  C   UNL     1     -47.210  62.600 -51.199  1.00  0.00     0.002 C 
HETATM   26  C   UNL     1     -46.199  63.736 -51.319  1.00  0.00     0.000 C 
HETATM   27  C   UNL     1     -45.129  63.435 -52.363  1.00  0.00     0.002 C 
HETATM   28  C   UNL     1     -45.746  63.095 -53.721  1.00  0.00     0.025 C 
ENDBRANCH  20  23
ENDBRANCH   4  19
TORSDOF 5
ENDMDL
MODEL 9
REMARK VINA RESULT:      -6.4      4.765      9.909
REMARK  5 active torsions:
REMARK  status: ('A' for Active; 'I' for Inactive)
REMARK    1  A    between atoms: C_2  and  C_3 
REMARK    2  A    between atoms: C_7  and  C_8 
REMARK       I    between atoms: C_8  and  N_9 
REMARK    3  A    between atoms: N_9  and  C_10 
REMARK    4  A    between atoms: C_13  and  C_14 
REMARK       I    between atoms: C_14  and  N_15 
REMARK    5  A    between atoms: N_15  and  C_16 
ROOT
HETATM    1  C   UNL     1     -43.820  58.018 -52.759  1.00  0.00     0.035 A 
HETATM    2  C   UNL     1     -42.770  57.099 -52.712  1.00  0.00     0.030 A 
HETATM    3  C   UNL     1     -42.427  56.345 -53.842  1.00  0.00     0.019 A 
HETATM    4  C   UNL     1     -43.143  56.492 -55.036  1.00  0.00     0.032 A 
HETATM    5  C   UNL     1     -44.175  57.435 -55.094  1.00  0.00     0.019 A 
HETATM    6  C   UNL     1     -44.511  58.189 -53.965  1.00  0.00     0.030 A 
ENDROOT
BRANCH   1   7
HETATM    7  N   UNL     1     -44.245  58.794 -51.661  1.00  0.00    -0.322 N 
HETATM    8  C   UNL     1     -43.856  60.077 -51.326  1.00  0.00     0.274 C 
HETATM    9  O   UNL     1     -43.092  60.780 -51.978  1.00  0.00    -0.266 OA
HETATM   10  H   UNL     1     -44.899  58.345 -51.036  1.00  0.00     0.169 HD
BRANCH   8  11
HETATM   11  C   UNL     1     -44.426  60.571 -50.094  1.00  0.00     0.120 A 
HETATM   12  N   UNL     1     -45.383  59.856 -49.423  1.00  0.00    -0.273 N 
HETATM   13  N   UNL     1     -45.831  60.449 -48.306  1.00  0.00    -0.179 NA
HETATM   14  H   UNL     1     -45.768  58.955 -49.693  1.00  0.00     0.189 HD
HETATM   15  C   UNL     1     -45.141  61.592 -48.247  1.00  0.00     0.056 A 
HETATM   16  C   UNL     1     -44.245  61.714 -49.337  1.00  0.00     0.065 A 
BRANCH  15  17
HETATM   17  C   UNL     1     -45.368  62.556 -47.133  1.00  0.00     0.056 C 
HETATM   18  C   UNL     1     -45.317  61.883 -45.769  1.00  0.00     0.011 C 
ENDBRANCH  15  17
ENDBRANCH   8  11
ENDBRANCH   1   7
BRANCH   4  19
HETATM   19  C   UNL     1     -42.845  55.694 -56.260  1.00  0.00     0.252 C 
HETATM   20  N   UNL     1     -43.464  56.096 -57.427  1.00  0.00    -0.352 N 
HETATM   21  H   UNL     1     -43.911  57.000 -57.444  1.00  0.00     0.163 HD
HETATM   22  O   UNL     1     -42.055  54.758 -56.202  1.00  0.00    -0.268 OA
BRANCH  20  23
HETATM   23  C   UNL     1     -43.130  55.495 -58.715  1.00  0.00     0.084 C 
HETATM   24  C   UNL     1     -44.337  54.745 -59.292  1.00  0.00     0.025 C 
HETATM   25  C   UNL     1     -45.439  55.681 -59.789  1.00  0.00     0.002 C 
HETATM   26  C   UNL     1     -44.900  56.721 -60.766  1.00  0.00     0.000 C 
HETATM   27  C   UNL     1     -43.724  57.495 -60.178  1.00  0.00     0.002 C 
HETATM   28  C   UNL     1     -42.616  56.558 -59.696  1.00  0.00     0.025 C 
ENDBRANCH  20  23
ENDBRANCH   4  19
TORSDOF 5
ENDMDL
MODEL 10
REMARK VINA RESULT:      -6.4      6.869      8.077
REMARK  5 active torsions:
REMARK  status: ('A' for Active; 'I' for Inactive)
REMARK    1  A    between atoms: C_2  and  C_3 
REMARK    2  A    between atoms: C_7  and  C_8 
REMARK       I    between atoms: C_8  and  N_9 
REMARK    3  A    between atoms: N_9  and  C_10 
REMARK    4  A    between atoms: C_13  and  C_14 
REMARK       I    between atoms: C_14  and  N_15 
REMARK    5  A    between atoms: N_15  and  C_16 
ROOT
HETATM    1  C   UNL     1     -42.610  56.174 -57.045  1.00  0.00     0.035 A 
HETATM    2  C   UNL     1     -42.557  57.559 -56.876  1.00  0.00     0.030 A 
HETATM    3  C   UNL     1     -43.137  58.419 -57.818  1.00  0.00     0.019 A 
HETATM    4  C   UNL     1     -43.769  57.901 -58.954  1.00  0.00     0.032 A 
HETATM    5  C   UNL     1     -43.850  56.513 -59.110  1.00  0.00     0.019 A 
HETATM    6  C   UNL     1     -43.275  55.659 -58.165  1.00  0.00     0.030 A 
ENDROOT
BRANCH   1   7
HETATM    7  N   UNL     1     -42.029  55.244 -56.160  1.00  0.00    -0.322 N 
HETATM    8  C   UNL     1     -42.573  54.717 -55.004  1.00  0.00     0.274 C 
HETATM    9  O   UNL     1     -43.700  54.948 -54.581  1.00  0.00    -0.266 OA
HETATM   10  H   UNL     1     -41.094  54.944 -56.394  1.00  0.00     0.169 HD
BRANCH   8  11
HETATM   11  C   UNL     1     -41.691  53.833 -54.278  1.00  0.00     0.120 A 
HETATM   12  N   UNL     1     -41.170  54.198 -53.064  1.00  0.00    -0.273 N 
HETATM   13  N   UNL     1     -40.353  53.284 -52.518  1.00  0.00    -0.179 NA
HETATM   14  H   UNL     1     -41.340  55.068 -52.567  1.00  0.00     0.189 HD
HETATM   15  C   UNL     1     -40.340  52.288 -53.409  1.00  0.00     0.056 A 
HETATM   16  C   UNL     1     -41.164  52.579 -54.523  1.00  0.00     0.065 A 
BRANCH  15  17
HETATM   17  C   UNL     1     -39.519  51.068 -53.168  1.00  0.00     0.056 C 
HETATM   18  C   UNL     1     -39.677  50.038 -54.277  1.00  0.00     0.011 C 
ENDBRANCH  15  17
ENDBRANCH   8  11
ENDBRANCH   1   7
BRANCH   4  19
HETATM   19  C   UNL     1     -44.375  58.768 -60.007  1.00  0.00     0.252 C 
HETATM   20  N   UNL     1     -45.700  59.117 -59.834  1.00  0.00    -0.352 N 
HETATM   21  H   UNL     1     -46.126  58.949 -58.935  1.00  0.00     0.163 HD
HETATM   22  O   UNL     1     -43.689  59.162 -60.943  1.00  0.00    -0.268 OA
BRANCH  20  23
HETATM   23  C   UNL     1     -46.354  60.086 -60.709  1.00  0.00     0.084 C 
HETATM   24  C   UNL     1     -47.873  59.874 -60.711  1.00  0.00     0.025 C 
HETATM   25  C   UNL     1     -48.538  60.306 -59.404  1.00  0.00     0.002 C 
HETATM   26  C   UNL     1     -48.166  61.737 -59.027  1.00  0.00     0.000 C 
HETATM   27  C   UNL     1     -46.655  61.939 -58.986  1.00  0.00     0.002 C 
HETATM   28  C   UNL     1     -45.994  61.521 -60.300  1.00  0.00     0.025 C 
ENDBRANCH  20  23
ENDBRANCH   4  19
TORSDOF 5
ENDMDL
