MODEL 1
REMARK VINA RESULT:      -8.5      0.000      0.000
REMARK  5 active torsions:
REMARK  status: ('A' for Active; 'I' for Inactive)
REMARK    1  A    between atoms: O_2  and  C_3 
REMARK    2  A    between atoms: C_10  and  C_11 
REMARK    3  A    between atoms: C_11  and  C_12 
REMARK       I    between atoms: C_12  and  N_13 
REMARK    4  A    between atoms: N_13  and  C_14 
REMARK    5  A    between atoms: C_16  and  C_17 
ROOT
HETATM    1  C   UNL     1     -42.051  56.287 -55.903  1.00  0.00     0.035 A 
HETATM    2  C   UNL     1     -42.116  57.302 -54.936  1.00  0.00     0.046 A 
HETATM    3  C   UNL     1     -42.960  58.416 -55.104  1.00  0.00     0.036 A 
HETATM    4  C   UNL     1     -43.756  58.501 -56.253  1.00  0.00     0.048 A 
HETATM    5 CL   UNL     1     -44.805  59.841 -56.555  1.00  0.00    -0.083 Cl
HETATM    6  C   UNL     1     -43.700  57.493 -57.216  1.00  0.00     0.027 A 
HETATM    7  C   UNL     1     -42.850  56.395 -57.042  1.00  0.00     0.031 A 
ENDROOT
BRANCH   1   8
HETATM    8  N   UNL     1     -41.212  55.183 -55.636  1.00  0.00    -0.327 N 
HETATM    9  C   UNL     1     -41.586  53.960 -55.092  1.00  0.00     0.226 C 
HETATM   10  O   UNL     1     -42.740  53.569 -54.937  1.00  0.00    -0.273 OA
HETATM   11  H   UNL     1     -40.228  55.301 -55.847  1.00  0.00     0.169 HD
BRANCH   9  12
HETATM   12  C   UNL     1     -40.408  53.135 -54.613  1.00  0.00     0.144 C 
BRANCH  12  13
HETATM   13  C   UNL     1     -40.274  52.905 -53.138  1.00  0.00    -0.021 A 
HETATM   14  C   UNL     1     -40.574  53.747 -52.010  1.00  0.00     0.001 A 
HETATM   15  C   UNL     1     -41.125  55.036 -51.831  1.00  0.00     0.051 A 
HETATM   16  C   UNL     1     -40.174  53.058 -50.860  1.00  0.00     0.043 A 
HETATM   17  C   UNL     1     -41.259  55.587 -50.544  1.00  0.00     0.069 A 
HETATM   18  C   UNL     1     -40.837  54.865 -49.431  1.00  0.00     0.039 A 
HETATM   19  C   UNL     1     -40.288  53.588 -49.570  1.00  0.00     0.033 A 
HETATM   20  N   UNL     1     -39.670  51.846 -51.260  1.00  0.00    -0.365 N 
HETATM   21  H   UNL     1     -39.292  51.149 -50.634  1.00  0.00     0.165 HD
HETATM   22  C   UNL     1     -39.730  51.740 -52.618  1.00  0.00     0.097 A 
BRANCH  17  23
HETATM   23  O   UNL     1     -41.817  56.838 -50.516  1.00  0.00    -0.356 OA
HETATM   24  C   UNL     1     -41.027  57.908 -51.020  1.00  0.00     0.210 C 
ENDBRANCH  17  23
ENDBRANCH  12  13
ENDBRANCH   9  12
ENDBRANCH   1   8
BRANCH   3  25
HETATM   25  C   UNL     1     -43.000  59.440 -54.066  1.00  0.00     0.165 A 
HETATM   26  N   UNL     1     -43.770  59.402 -52.922  1.00  0.00    -0.316 N 
HETATM   27  C   UNL     1     -43.487  60.557 -52.234  1.00  0.00     0.130 A 
HETATM   28  C   UNL     1     -44.717  58.361 -52.580  1.00  0.00     0.132 C 
HETATM   29  C   UNL     1     -44.075  60.969 -50.929  1.00  0.00     0.081 C 
HETATM   30  N   UNL     1     -42.609  61.255 -52.923  1.00  0.00    -0.134 NA
HETATM   31  C   UNL     1     -45.573  60.704 -50.848  1.00  0.00     0.008 C 
HETATM   32  C   UNL     1     -45.924  59.255 -50.504  1.00  0.00     0.002 C 
HETATM   33  C   UNL     1     -45.004  58.185 -51.093  1.00  0.00     0.020 C 
HETATM   34  N   UNL     1     -42.307  60.561 -54.065  1.00  0.00    -0.129 NA
ENDBRANCH   3  25
TORSDOF 5
ENDMDL
MODEL 2
REMARK VINA RESULT:      -8.5      1.633      4.764
REMARK  5 active torsions:
REMARK  status: ('A' for Active; 'I' for Inactive)
REMARK    1  A    between atoms: O_2  and  C_3 
REMARK    2  A    between atoms: C_10  and  C_11 
REMARK    3  A    between atoms: C_11  and  C_12 
REMARK       I    between atoms: C_12  and  N_13 
REMARK    4  A    between atoms: N_13  and  C_14 
REMARK    5  A    between atoms: C_16  and  C_17 
ROOT
HETATM    1  C   UNL     1     -43.696  57.462 -51.377  1.00  0.00     0.035 A 
HETATM    2  C   UNL     1     -43.083  57.796 -52.594  1.00  0.00     0.046 A 
HETATM    3  C   UNL     1     -43.606  58.810 -53.419  1.00  0.00     0.036 A 
HETATM    4  C   UNL     1     -44.752  59.501 -53.007  1.00  0.00     0.048 A 
HETATM    5 CL   UNL     1     -45.477  60.744 -53.965  1.00  0.00    -0.083 Cl
HETATM    6  C   UNL     1     -45.363  59.177 -51.796  1.00  0.00     0.027 A 
HETATM    7  C   UNL     1     -44.839  58.162 -50.988  1.00  0.00     0.031 A 
ENDROOT
BRANCH   1   8
HETATM    8  N   UNL     1     -43.082  56.464 -50.588  1.00  0.00    -0.327 N 
HETATM    9  C   UNL     1     -41.729  56.348 -50.290  1.00  0.00     0.226 C 
HETATM   10  O   UNL     1     -40.873  57.204 -50.502  1.00  0.00    -0.273 OA
HETATM   11  H   UNL     1     -43.689  55.745 -50.213  1.00  0.00     0.169 HD
BRANCH   9  12
HETATM   12  C   UNL     1     -41.357  54.992 -49.726  1.00  0.00     0.144 C 
BRANCH  12  13
HETATM   13  C   UNL     1     -40.803  53.971 -50.674  1.00  0.00    -0.021 A 
HETATM   14  C   UNL     1     -40.744  53.938 -52.112  1.00  0.00     0.001 A 
HETATM   15  C   UNL     1     -41.115  54.813 -53.158  1.00  0.00     0.051 A 
HETATM   16  C   UNL     1     -40.196  52.704 -52.476  1.00  0.00     0.043 A 
HETATM   17  C   UNL     1     -40.933  54.442 -54.502  1.00  0.00     0.069 A 
HETATM   18  C   UNL     1     -40.391  53.199 -54.814  1.00  0.00     0.039 A 
HETATM   19  C   UNL     1     -40.013  52.308 -53.806  1.00  0.00     0.033 A 
HETATM   20  N   UNL     1     -39.915  52.020 -51.320  1.00  0.00    -0.365 N 
HETATM   21  H   UNL     1     -39.524  51.089 -51.286  1.00  0.00     0.165 HD
HETATM   22  C   UNL     1     -40.267  52.769 -50.236  1.00  0.00     0.097 A 
BRANCH  17  23
HETATM   23  O   UNL     1     -41.327  55.389 -55.411  1.00  0.00    -0.356 OA
HETATM   24  C   UNL     1     -42.459  55.080 -56.214  1.00  0.00     0.210 C 
ENDBRANCH  17  23
ENDBRANCH  12  13
ENDBRANCH   9  12
ENDBRANCH   1   8
BRANCH   3  25
HETATM   25  C   UNL     1     -42.927  59.127 -54.671  1.00  0.00     0.165 A 
HETATM   26  N   UNL     1     -43.343  58.752 -55.932  1.00  0.00    -0.316 N 
HETATM   27  C   UNL     1     -42.419  59.270 -56.807  1.00  0.00     0.130 A 
HETATM   28  C   UNL     1     -44.497  57.929 -56.228  1.00  0.00     0.132 C 
HETATM   29  C   UNL     1     -42.438  59.132 -58.289  1.00  0.00     0.081 C 
HETATM   30  N   UNL     1     -41.497  59.909 -56.118  1.00  0.00    -0.134 NA
HETATM   31  C   UNL     1     -42.812  57.727 -58.746  1.00  0.00     0.008 C 
HETATM   32  C   UNL     1     -44.318  57.459 -58.740  1.00  0.00     0.002 C 
HETATM   33  C   UNL     1     -45.112  58.116 -57.610  1.00  0.00     0.020 C 
HETATM   34  N   UNL     1     -41.812  59.818 -54.788  1.00  0.00    -0.129 NA
ENDBRANCH   3  25
TORSDOF 5
ENDMDL
MODEL 3
REMARK VINA RESULT:      -8.1      2.407      5.568
REMARK  5 active torsions:
REMARK  status: ('A' for Active; 'I' for Inactive)
REMARK    1  A    between atoms: O_2  and  C_3 
REMARK    2  A    between atoms: C_10  and  C_11 
REMARK    3  A    between atoms: C_11  and  C_12 
REMARK       I    between atoms: C_12  and  N_13 
REMARK    4  A    between atoms: N_13  and  C_14 
REMARK    5  A    between atoms: C_16  and  C_17 
ROOT
HETATM    1  C   UNL     1     -44.749  58.067 -53.516  1.00  0.00     0.035 A 
HETATM    2  C   UNL     1     -44.348  57.576 -54.768  1.00  0.00     0.046 A 
HETATM    3  C   UNL     1     -44.357  58.399 -55.911  1.00  0.00     0.036 A 
HETATM    4  C   UNL     1     -44.763  59.734 -55.786  1.00  0.00     0.048 A 
HETATM    5 CL   UNL     1     -44.829  60.811 -57.137  1.00  0.00    -0.083 Cl
HETATM    6  C   UNL     1     -45.158  60.229 -54.543  1.00  0.00     0.027 A 
HETATM    7  C   UNL     1     -45.153  59.399 -53.417  1.00  0.00     0.031 A 
ENDROOT
BRANCH   1   8
HETATM    8  N   UNL     1     -44.667  57.189 -52.414  1.00  0.00    -0.327 N 
HETATM    9  C   UNL     1     -43.674  57.156 -51.441  1.00  0.00     0.226 C 
HETATM   10  O   UNL     1     -42.810  58.013 -51.271  1.00  0.00    -0.273 OA
HETATM   11  H   UNL     1     -45.401  56.495 -52.331  1.00  0.00     0.169 HD
BRANCH   9  12
HETATM   12  C   UNL     1     -43.692  55.887 -50.613  1.00  0.00     0.144 C 
BRANCH  12  13
HETATM   13  C   UNL     1     -42.542  54.938 -50.769  1.00  0.00    -0.021 A 
HETATM   14  C   UNL     1     -41.932  54.364 -51.939  1.00  0.00     0.001 A 
HETATM   15  C   UNL     1     -42.117  54.481 -53.335  1.00  0.00     0.051 A 
HETATM   16  C   UNL     1     -40.946  53.474 -51.498  1.00  0.00     0.043 A 
HETATM   17  C   UNL     1     -41.335  53.729 -54.229  1.00  0.00     0.069 A 
HETATM   18  C   UNL     1     -40.372  52.849 -53.741  1.00  0.00     0.039 A 
HETATM   19  C   UNL     1     -40.161  52.707 -52.367  1.00  0.00     0.033 A 
HETATM   20  N   UNL     1     -40.939  53.513 -50.127  1.00  0.00    -0.365 N 
HETATM   21  H   UNL     1     -40.333  52.955 -49.542  1.00  0.00     0.165 HD
HETATM   22  C   UNL     1     -41.883  54.389 -49.679  1.00  0.00     0.097 A 
BRANCH  17  23
HETATM   23  O   UNL     1     -41.613  53.949 -55.552  1.00  0.00    -0.356 OA
HETATM   24  C   UNL     1     -42.897  54.478 -55.861  1.00  0.00     0.210 C 
ENDBRANCH  17  23
ENDBRANCH  12  13
ENDBRANCH   9  12
ENDBRANCH   1   8
BRANCH   3  25
HETATM   25  C   UNL     1     -43.922  57.846 -57.188  1.00  0.00     0.165 A 
HETATM   26  N   UNL     1     -44.747  57.479 -58.231  1.00  0.00    -0.316 N 
HETATM   27  C   UNL     1     -43.919  57.022 -59.228  1.00  0.00     0.130 A 
HETATM   28  C   UNL     1     -46.194  57.526 -58.217  1.00  0.00     0.132 C 
HETATM   29  C   UNL     1     -44.345  56.514 -60.561  1.00  0.00     0.081 C 
HETATM   30  N   UNL     1     -42.673  57.099 -58.811  1.00  0.00    -0.134 NA
HETATM   31  C   UNL     1     -45.566  55.604 -60.482  1.00  0.00     0.008 C 
HETATM   32  C   UNL     1     -46.892  56.361 -60.389  1.00  0.00     0.002 C 
HETATM   33  C   UNL     1     -46.869  57.657 -59.578  1.00  0.00     0.020 C 
HETATM   34  N   UNL     1     -42.675  57.609 -57.540  1.00  0.00    -0.129 NA
ENDBRANCH   3  25
TORSDOF 5
ENDMDL
MODEL 4
REMARK VINA RESULT:      -7.9      3.661      8.674
REMARK  5 active torsions:
REMARK  status: ('A' for Active; 'I' for Inactive)
REMARK    1  A    between atoms: O_2  and  C_3 
REMARK    2  A    between atoms: C_10  and  C_11 
REMARK    3  A    between atoms: C_11  and  C_12 
REMARK       I    between atoms: C_12  and  N_13 
REMARK    4  A    between atoms: N_13  and  C_14 
REMARK    5  A    between atoms: C_16  and  C_17 
ROOT
HETATM    1  C   UNL     1     -42.660  55.712 -55.373  1.00  0.00     0.035 A 
HETATM    2  C   UNL     1     -41.814  54.929 -54.574  1.00  0.00     0.046 A 
HETATM    3  C   UNL     1     -41.975  54.875 -53.176  1.00  0.00     0.036 A 
HETATM    4  C   UNL     1     -43.007  55.610 -52.580  1.00  0.00     0.048 A 
HETATM    5 CL   UNL     1     -43.267  55.624 -50.871  1.00  0.00    -0.083 Cl
HETATM    6  C   UNL     1     -43.855  56.387 -53.370  1.00  0.00     0.027 A 
HETATM    7  C   UNL     1     -43.679  56.439 -54.757  1.00  0.00     0.031 A 
ENDROOT
BRANCH   1   8
HETATM    8  N   UNL     1     -42.457  55.675 -56.770  1.00  0.00    -0.327 N 
HETATM    9  C   UNL     1     -42.525  56.746 -57.655  1.00  0.00     0.226 C 
HETATM   10  O   UNL     1     -42.579  57.932 -57.340  1.00  0.00    -0.273 OA
HETATM   11  H   UNL     1     -42.258  54.768 -57.175  1.00  0.00     0.169 HD
BRANCH   9  12
HETATM   12  C   UNL     1     -42.608  56.316 -59.106  1.00  0.00     0.144 C 
BRANCH  12  13
HETATM   13  C   UNL     1     -43.960  55.977 -59.656  1.00  0.00    -0.021 A 
HETATM   14  C   UNL     1     -45.051  56.810 -60.087  1.00  0.00     0.001 A 
HETATM   15  C   UNL     1     -45.272  58.201 -60.207  1.00  0.00     0.051 A 
HETATM   16  C   UNL     1     -46.110  55.963 -60.430  1.00  0.00     0.043 A 
HETATM   17  C   UNL     1     -46.510  58.694 -60.655  1.00  0.00     0.069 A 
HETATM   18  C   UNL     1     -47.537  57.811 -60.976  1.00  0.00     0.039 A 
HETATM   19  C   UNL     1     -47.354  56.430 -60.869  1.00  0.00     0.033 A 
HETATM   20  N   UNL     1     -45.685  54.673 -60.237  1.00  0.00    -0.365 N 
HETATM   21  H   UNL     1     -46.255  53.853 -60.393  1.00  0.00     0.165 HD
HETATM   22  C   UNL     1     -44.400  54.667 -59.781  1.00  0.00     0.097 A 
BRANCH  17  23
HETATM   23  O   UNL     1     -46.583  60.061 -60.733  1.00  0.00    -0.356 OA
HETATM   24  C   UNL     1     -46.366  60.788 -59.530  1.00  0.00     0.210 C 
ENDBRANCH  17  23
ENDBRANCH  12  13
ENDBRANCH   9  12
ENDBRANCH   1   8
BRANCH   3  25
HETATM   25  C   UNL     1     -41.076  54.039 -52.389  1.00  0.00     0.165 A 
HETATM   26  N   UNL     1     -40.580  52.808 -52.766  1.00  0.00    -0.316 N 
HETATM   27  C   UNL     1     -39.775  52.390 -51.735  1.00  0.00     0.130 A 
HETATM   28  C   UNL     1     -40.913  52.105 -53.987  1.00  0.00     0.132 C 
HETATM   29  C   UNL     1     -39.012  51.112 -51.677  1.00  0.00     0.081 C 
HETATM   30  N   UNL     1     -39.790  53.305 -50.789  1.00  0.00    -0.134 NA
HETATM   31  C   UNL     1     -39.818  49.922 -52.184  1.00  0.00     0.008 C 
HETATM   32  C   UNL     1     -39.838  49.797 -53.709  1.00  0.00     0.002 C 
HETATM   33  C   UNL     1     -39.871  51.112 -54.489  1.00  0.00     0.020 C 
HETATM   34  N   UNL     1     -40.601  54.331 -51.195  1.00  0.00    -0.129 NA
ENDBRANCH   3  25
TORSDOF 5
ENDMDL
MODEL 5
REMARK VINA RESULT:      -7.7      3.198      4.883
REMARK  5 active torsions:
REMARK  status: ('A' for Active; 'I' for Inactive)
REMARK    1  A    between atoms: O_2  and  C_3 
REMARK    2  A    between atoms: C_10  and  C_11 
REMARK    3  A    between atoms: C_11  and  C_12 
REMARK       I    between atoms: C_12  and  N_13 
REMARK    4  A    between atoms: N_13  and  C_14 
REMARK    5  A    between atoms: C_16  and  C_17 
ROOT
HETATM    1  C   UNL     1     -42.527  56.790 -56.145  1.00  0.00     0.035 A 
HETATM    2  C   UNL     1     -42.367  57.476 -57.359  1.00  0.00     0.046 A 
HETATM    3  C   UNL     1     -43.243  58.514 -57.730  1.00  0.00     0.036 A 
HETATM    4  C   UNL     1     -44.283  58.871 -56.863  1.00  0.00     0.048 A 
HETATM    5 CL   UNL     1     -45.420  60.116 -57.244  1.00  0.00    -0.083 Cl
HETATM    6  C   UNL     1     -44.443  58.197 -55.652  1.00  0.00     0.027 A 
HETATM    7  C   UNL     1     -43.571  57.161 -55.299  1.00  0.00     0.031 A 
ENDROOT
BRANCH   1   8
HETATM    8  N   UNL     1     -41.578  55.793 -55.830  1.00  0.00    -0.327 N 
HETATM    9  C   UNL     1     -41.838  54.491 -55.416  1.00  0.00     0.226 C 
HETATM   10  O   UNL     1     -42.934  53.936 -55.446  1.00  0.00    -0.273 OA
HETATM   11  H   UNL     1     -40.602  56.058 -55.894  1.00  0.00     0.169 HD
BRANCH   9  12
HETATM   12  C   UNL     1     -40.626  53.799 -54.827  1.00  0.00     0.144 C 
BRANCH  12  13
HETATM   13  C   UNL     1     -40.595  53.591 -53.343  1.00  0.00    -0.021 A 
HETATM   14  C   UNL     1     -40.887  54.480 -52.250  1.00  0.00     0.001 A 
HETATM   15  C   UNL     1     -41.339  55.814 -52.126  1.00  0.00     0.051 A 
HETATM   16  C   UNL     1     -40.612  53.787 -51.066  1.00  0.00     0.043 A 
HETATM   17  C   UNL     1     -41.499  56.402 -50.859  1.00  0.00     0.069 A 
HETATM   18  C   UNL     1     -41.203  55.674 -49.710  1.00  0.00     0.039 A 
HETATM   19  C   UNL     1     -40.755  54.353 -49.795  1.00  0.00     0.033 A 
HETATM   20  N   UNL     1     -40.189  52.529 -51.414  1.00  0.00    -0.365 N 
HETATM   21  H   UNL     1     -39.906  51.817 -50.755  1.00  0.00     0.165 HD
HETATM   22  C   UNL     1     -40.181  52.398 -52.772  1.00  0.00     0.097 A 
BRANCH  17  23
HETATM   23  O   UNL     1     -41.953  57.695 -50.886  1.00  0.00    -0.356 OA
HETATM   24  C   UNL     1     -41.032  58.709 -50.501  1.00  0.00     0.210 C 
ENDBRANCH  17  23
ENDBRANCH  12  13
ENDBRANCH   9  12
ENDBRANCH   1   8
BRANCH   3  25
HETATM   25  C   UNL     1     -43.031  59.203 -58.998  1.00  0.00     0.165 A 
HETATM   26  N   UNL     1     -42.279  60.345 -59.180  1.00  0.00    -0.316 N 
HETATM   27  C   UNL     1     -42.347  60.635 -60.521  1.00  0.00     0.130 A 
HETATM   28  C   UNL     1     -41.615  61.091 -58.132  1.00  0.00     0.132 C 
HETATM   29  C   UNL     1     -41.690  61.783 -61.207  1.00  0.00     0.081 C 
HETATM   30  N   UNL     1     -43.100  59.732 -61.112  1.00  0.00    -0.134 NA
HETATM   31  C   UNL     1     -41.800  63.082 -60.417  1.00  0.00     0.008 C 
HETATM   32  C   UNL     1     -40.767  63.210 -59.297  1.00  0.00     0.002 C 
HETATM   33  C   UNL     1     -40.408  61.916 -58.565  1.00  0.00     0.020 C 
HETATM   34  N   UNL     1     -43.528  58.841 -60.163  1.00  0.00    -0.129 NA
ENDBRANCH   3  25
TORSDOF 5
ENDMDL
MODEL 6
REMARK VINA RESULT:      -7.7      3.911      5.962
REMARK  5 active torsions:
REMARK  status: ('A' for Active; 'I' for Inactive)
REMARK    1  A    between atoms: O_2  and  C_3 
REMARK    2  A    between atoms: C_10  and  C_11 
REMARK    3  A    between atoms: C_11  and  C_12 
REMARK       I    between atoms: C_12  and  N_13 
REMARK    4  A    between atoms: N_13  and  C_14 
REMARK    5  A    between atoms: C_16  and  C_17 
ROOT
HETATM    1  C   UNL     1     -43.428  56.126 -58.173  1.00  0.00     0.035 A 
HETATM    2  C   UNL     1     -44.353  57.177 -58.089  1.00  0.00     0.046 A 
HETATM    3  C   UNL     1     -45.463  57.242 -58.953  1.00  0.00     0.036 A 
HETATM    4  C   UNL     1     -45.647  56.231 -59.903  1.00  0.00     0.048 A 
HETATM    5 CL   UNL     1     -46.966  56.239 -61.021  1.00  0.00    -0.083 Cl
HETATM    6  C   UNL     1     -44.733  55.180 -59.989  1.00  0.00     0.027 A 
HETATM    7  C   UNL     1     -43.629  55.132 -59.130  1.00  0.00     0.031 A 
ENDROOT
BRANCH   1   8
HETATM    8  N   UNL     1     -42.368  56.113 -57.240  1.00  0.00    -0.327 N 
HETATM    9  C   UNL     1     -42.425  55.694 -55.915  1.00  0.00     0.226 C 
HETATM   10  O   UNL     1     -43.356  55.083 -55.397  1.00  0.00    -0.273 OA
HETATM   11  H   UNL     1     -41.474  56.463 -57.564  1.00  0.00     0.169 HD
BRANCH   9  12
HETATM   12  C   UNL     1     -41.225  56.132 -55.099  1.00  0.00     0.144 C 
BRANCH  12  13
HETATM   13  C   UNL     1     -41.053  55.531 -53.737  1.00  0.00    -0.021 A 
HETATM   14  C   UNL     1     -40.649  54.214 -53.320  1.00  0.00     0.001 A 
HETATM   15  C   UNL     1     -40.232  53.032 -53.973  1.00  0.00     0.051 A 
HETATM   16  C   UNL     1     -40.742  54.174 -51.925  1.00  0.00     0.043 A 
HETATM   17  C   UNL     1     -39.927  51.875 -53.235  1.00  0.00     0.069 A 
HETATM   18  C   UNL     1     -40.043  51.882 -51.848  1.00  0.00     0.039 A 
HETATM   19  C   UNL     1     -40.452  53.033 -51.169  1.00  0.00     0.033 A 
HETATM   20  N   UNL     1     -41.163  55.410 -51.504  1.00  0.00    -0.365 N 
HETATM   21  H   UNL     1     -41.331  55.660 -50.540  1.00  0.00     0.165 HD
HETATM   22  C   UNL     1     -41.346  56.232 -52.577  1.00  0.00     0.097 A 
BRANCH  17  23
HETATM   23  O   UNL     1     -39.526  50.806 -53.994  1.00  0.00    -0.356 OA
HETATM   24  C   UNL     1     -39.527  49.531 -53.363  1.00  0.00     0.210 C 
ENDBRANCH  17  23
ENDBRANCH  12  13
ENDBRANCH   9  12
ENDBRANCH   1   8
BRANCH   3  25
HETATM   25  C   UNL     1     -46.403  58.350 -58.820  1.00  0.00     0.165 A 
HETATM   26  N   UNL     1     -46.468  59.457 -59.640  1.00  0.00    -0.316 N 
HETATM   27  C   UNL     1     -47.496  60.229 -59.158  1.00  0.00     0.130 A 
HETATM   28  C   UNL     1     -45.574  59.739 -60.744  1.00  0.00     0.132 C 
HETATM   29  C   UNL     1     -47.955  61.531 -59.715  1.00  0.00     0.081 C 
HETATM   30  N   UNL     1     -48.015  59.632 -58.106  1.00  0.00    -0.134 NA
HETATM   31  C   UNL     1     -46.798  62.444 -60.107  1.00  0.00     0.008 C 
HETATM   32  C   UNL     1     -46.192  62.116 -61.473  1.00  0.00     0.002 C 
HETATM   33  C   UNL     1     -46.136  60.634 -61.843  1.00  0.00     0.020 C 
HETATM   34  N   UNL     1     -47.333  58.463 -57.894  1.00  0.00    -0.129 NA
ENDBRANCH   3  25
TORSDOF 5
ENDMDL
MODEL 7
REMARK VINA RESULT:      -7.6      2.188      5.008
REMARK  5 active torsions:
REMARK  status: ('A' for Active; 'I' for Inactive)
REMARK    1  A    between atoms: O_2  and  C_3 
REMARK    2  A    between atoms: C_10  and  C_11 
REMARK    3  A    between atoms: C_11  and  C_12 
REMARK       I    between atoms: C_12  and  N_13 
REMARK    4  A    between atoms: N_13  and  C_14 
REMARK    5  A    between atoms: C_16  and  C_17 
ROOT
HETATM    1  C   UNL     1     -43.158  58.238 -52.154  1.00  0.00     0.035 A 
HETATM    2  C   UNL     1     -43.477  58.068 -53.510  1.00  0.00     0.046 A 
HETATM    3  C   UNL     1     -44.326  58.971 -54.178  1.00  0.00     0.036 A 
HETATM    4  C   UNL     1     -44.851  60.062 -53.473  1.00  0.00     0.048 A 
HETATM    5 CL   UNL     1     -45.920  61.207 -54.203  1.00  0.00    -0.083 Cl
HETATM    6  C   UNL     1     -44.534  60.238 -52.126  1.00  0.00     0.027 A 
HETATM    7  C   UNL     1     -43.695  59.329 -51.472  1.00  0.00     0.031 A 
ENDROOT
BRANCH   1   8
HETATM    8  N   UNL     1     -42.264  57.312 -51.573  1.00  0.00    -0.327 N 
HETATM    9  C   UNL     1     -42.590  56.213 -50.787  1.00  0.00     0.226 C 
HETATM   10  O   UNL     1     -43.719  55.754 -50.632  1.00  0.00    -0.273 OA
HETATM   11  H   UNL     1     -41.276  57.476 -51.731  1.00  0.00     0.169 HD
BRANCH   9  12
HETATM   12  C   UNL     1     -41.402  55.640 -50.040  1.00  0.00     0.144 C 
BRANCH  12  13
HETATM   13  C   UNL     1     -40.842  54.335 -50.520  1.00  0.00    -0.021 A 
HETATM   14  C   UNL     1     -40.618  53.823 -51.846  1.00  0.00     0.001 A 
HETATM   15  C   UNL     1     -40.778  54.319 -53.160  1.00  0.00     0.051 A 
HETATM   16  C   UNL     1     -40.152  52.511 -51.710  1.00  0.00     0.043 A 
HETATM   17  C   UNL     1     -40.476  53.513 -54.272  1.00  0.00     0.069 A 
HETATM   18  C   UNL     1     -40.023  52.210 -54.086  1.00  0.00     0.039 A 
HETATM   19  C   UNL     1     -39.853  51.687 -52.801  1.00  0.00     0.033 A 
HETATM   20  N   UNL     1     -40.076  52.237 -50.369  1.00  0.00    -0.365 N 
HETATM   21  H   UNL     1     -39.782  51.351 -49.981  1.00  0.00     0.165 HD
HETATM   22  C   UNL     1     -40.479  53.321 -49.646  1.00  0.00     0.097 A 
BRANCH  17  23
HETATM   23  O   UNL     1     -40.667  54.124 -55.484  1.00  0.00    -0.356 OA
HETATM   24  C   UNL     1     -41.560  55.231 -55.514  1.00  0.00     0.210 C 
ENDBRANCH  17  23
ENDBRANCH  12  13
ENDBRANCH   9  12
ENDBRANCH   1   8
BRANCH   3  25
HETATM   25  C   UNL     1     -44.620  58.758 -55.591  1.00  0.00     0.165 A 
HETATM   26  N   UNL     1     -43.851  59.193 -56.650  1.00  0.00    -0.316 N 
HETATM   27  C   UNL     1     -44.493  58.766 -57.787  1.00  0.00     0.130 A 
HETATM   28  C   UNL     1     -42.645  59.987 -56.544  1.00  0.00     0.132 C 
HETATM   29  C   UNL     1     -44.044  58.994 -59.188  1.00  0.00     0.081 C 
HETATM   30  N   UNL     1     -45.587  58.123 -57.438  1.00  0.00    -0.134 NA
HETATM   31  C   UNL     1     -43.527  60.409 -59.418  1.00  0.00     0.008 C 
HETATM   32  C   UNL     1     -42.081  60.617 -58.962  1.00  0.00     0.002 C 
HETATM   33  C   UNL     1     -41.661  59.861 -57.701  1.00  0.00     0.020 C 
HETATM   34  N   UNL     1     -45.668  58.119 -56.070  1.00  0.00    -0.129 NA
ENDBRANCH   3  25
TORSDOF 5
ENDMDL
MODEL 8
REMARK VINA RESULT:      -7.6      3.352      6.596
REMARK  5 active torsions:
REMARK  status: ('A' for Active; 'I' for Inactive)
REMARK    1  A    between atoms: O_2  and  C_3 
REMARK    2  A    between atoms: C_10  and  C_11 
REMARK    3  A    between atoms: C_11  and  C_12 
REMARK       I    between atoms: C_12  and  N_13 
REMARK    4  A    between atoms: N_13  and  C_14 
REMARK    5  A    between atoms: C_16  and  C_17 
ROOT
HETATM    1  C   UNL     1     -41.603  55.278 -54.408  1.00  0.00     0.035 A 
HETATM    2  C   UNL     1     -41.587  56.491 -53.703  1.00  0.00     0.046 A 
HETATM    3  C   UNL     1     -41.405  56.520 -52.307  1.00  0.00     0.036 A 
HETATM    4  C   UNL     1     -41.226  55.314 -51.618  1.00  0.00     0.048 A 
HETATM    5 CL   UNL     1     -41.019  55.249 -49.903  1.00  0.00    -0.083 Cl
HETATM    6  C   UNL     1     -41.236  54.105 -52.314  1.00  0.00     0.027 A 
HETATM    7  C   UNL     1     -41.426  54.089 -53.701  1.00  0.00     0.031 A 
ENDROOT
BRANCH   1   8
HETATM    8  N   UNL     1     -41.746  55.341 -55.812  1.00  0.00    -0.327 N 
HETATM    9  C   UNL     1     -42.832  55.843 -56.521  1.00  0.00     0.226 C 
HETATM   10  O   UNL     1     -43.759  56.492 -56.044  1.00  0.00    -0.273 OA
HETATM   11  H   UNL     1     -40.983  54.965 -56.363  1.00  0.00     0.169 HD
BRANCH   9  12
HETATM   12  C   UNL     1     -42.823  55.447 -57.984  1.00  0.00     0.144 C 
BRANCH  12  13
HETATM   13  C   UNL     1     -43.169  56.500 -58.992  1.00  0.00    -0.021 A 
HETATM   14  C   UNL     1     -42.790  57.885 -59.094  1.00  0.00     0.001 A 
HETATM   15  C   UNL     1     -41.954  58.758 -58.362  1.00  0.00     0.051 A 
HETATM   16  C   UNL     1     -43.472  58.422 -60.190  1.00  0.00     0.043 A 
HETATM   17  C   UNL     1     -41.825  60.108 -58.736  1.00  0.00     0.069 A 
HETATM   18  C   UNL     1     -42.532  60.598 -59.830  1.00  0.00     0.039 A 
HETATM   19  C   UNL     1     -43.368  59.763 -60.576  1.00  0.00     0.033 A 
HETATM   20  N   UNL     1     -44.219  57.414 -60.746  1.00  0.00    -0.365 N 
HETATM   21  H   UNL     1     -44.826  57.526 -61.546  1.00  0.00     0.165 HD
HETATM   22  C   UNL     1     -44.042  56.259 -60.043  1.00  0.00     0.097 A 
BRANCH  17  23
HETATM   23  O   UNL     1     -40.975  60.837 -57.946  1.00  0.00    -0.356 OA
HETATM   24  C   UNL     1     -40.536  62.090 -58.458  1.00  0.00     0.210 C 
ENDBRANCH  17  23
ENDBRANCH  12  13
ENDBRANCH   9  12
ENDBRANCH   1   8
BRANCH   3  25
HETATM   25  C   UNL     1     -41.386  57.806 -51.619  1.00  0.00     0.165 A 
HETATM   26  N   UNL     1     -42.483  58.605 -51.372  1.00  0.00    -0.316 N 
HETATM   27  C   UNL     1     -42.008  59.705 -50.699  1.00  0.00     0.130 A 
HETATM   28  C   UNL     1     -43.838  58.333 -51.805  1.00  0.00     0.132 C 
HETATM   29  C   UNL     1     -42.819  60.856 -50.212  1.00  0.00     0.081 C 
HETATM   30  N   UNL     1     -40.706  59.583 -50.555  1.00  0.00    -0.134 NA
HETATM   31  C   UNL     1     -43.860  61.314 -51.228  1.00  0.00     0.008 C 
HETATM   32  C   UNL     1     -45.133  60.466 -51.228  1.00  0.00     0.002 C 
HETATM   33  C   UNL     1     -44.944  58.971 -50.972  1.00  0.00     0.020 C 
HETATM   34  N   UNL     1     -40.318  58.401 -51.130  1.00  0.00    -0.129 NA
ENDBRANCH   3  25
TORSDOF 5
ENDMDL
MODEL 9
REMARK VINA RESULT:      -7.5      2.952      8.262
REMARK  5 active torsions:
REMARK  status: ('A' for Active; 'I' for Inactive)
REMARK    1  A    between atoms: O_2  and  C_3 
REMARK    2  A    between atoms: C_10  and  C_11 
REMARK    3  A    between atoms: C_11  and  C_12 
REMARK       I    between atoms: C_12  and  N_13 
REMARK    4  A    between atoms: N_13  and  C_14 
REMARK    5  A    between atoms: C_16  and  C_17 
ROOT
HETATM    1  C   UNL     1     -42.637  57.847 -52.812  1.00  0.00     0.035 A 
HETATM    2  C   UNL     1     -41.764  56.805 -52.465  1.00  0.00     0.046 A 
HETATM    3  C   UNL     1     -42.197  55.724 -51.675  1.00  0.00     0.036 A 
HETATM    4  C   UNL     1     -43.528  55.688 -51.239  1.00  0.00     0.048 A 
HETATM    5 CL   UNL     1     -44.143  54.414 -50.246  1.00  0.00    -0.083 Cl
HETATM    6  C   UNL     1     -44.402  56.719 -51.585  1.00  0.00     0.027 A 
HETATM    7  C   UNL     1     -43.956  57.792 -52.365  1.00  0.00     0.031 A 
ENDROOT
BRANCH   1   8
HETATM    8  N   UNL     1     -42.133  58.870 -53.646  1.00  0.00    -0.327 N 
HETATM    9  C   UNL     1     -42.752  59.421 -54.763  1.00  0.00     0.226 C 
HETATM   10  O   UNL     1     -43.922  59.244 -55.092  1.00  0.00    -0.273 OA
HETATM   11  H   UNL     1     -41.215  59.231 -53.416  1.00  0.00     0.169 HD
BRANCH   9  12
HETATM   12  C   UNL     1     -41.810  60.235 -55.626  1.00  0.00     0.144 C 
BRANCH  12  13
HETATM   13  C   UNL     1     -42.061  60.254 -57.103  1.00  0.00    -0.021 A 
HETATM   14  C   UNL     1     -42.313  59.193 -58.042  1.00  0.00     0.001 A 
HETATM   15  C   UNL     1     -42.463  57.790 -57.963  1.00  0.00     0.051 A 
HETATM   16  C   UNL     1     -42.392  59.773 -59.313  1.00  0.00     0.043 A 
HETATM   17  C   UNL     1     -42.683  57.025 -59.123  1.00  0.00     0.069 A 
HETATM   18  C   UNL     1     -42.745  57.648 -60.366  1.00  0.00     0.039 A 
HETATM   19  C   UNL     1     -42.601  59.033 -60.482  1.00  0.00     0.033 A 
HETATM   20  N   UNL     1     -42.216  61.125 -59.160  1.00  0.00    -0.365 N 
HETATM   21  H   UNL     1     -42.210  61.791 -59.920  1.00  0.00     0.165 HD
HETATM   22  C   UNL     1     -42.024  61.426 -57.844  1.00  0.00     0.097 A 
BRANCH  17  23
HETATM   23  O   UNL     1     -42.821  55.680 -58.899  1.00  0.00    -0.356 OA
HETATM   24  C   UNL     1     -43.918  55.031 -59.531  1.00  0.00     0.210 C 
ENDBRANCH  17  23
ENDBRANCH  12  13
ENDBRANCH   9  12
ENDBRANCH   1   8
BRANCH   3  25
HETATM   25  C   UNL     1     -41.255  54.659 -51.348  1.00  0.00     0.165 A 
HETATM   26  N   UNL     1     -40.802  53.687 -52.215  1.00  0.00    -0.316 N 
HETATM   27  C   UNL     1     -39.931  52.908 -51.493  1.00  0.00     0.130 A 
HETATM   28  C   UNL     1     -41.230  53.520 -53.589  1.00  0.00     0.132 C 
HETATM   29  C   UNL     1     -39.182  51.725 -52.000  1.00  0.00     0.081 C 
HETATM   30  N   UNL     1     -39.867  53.374 -50.263  1.00  0.00    -0.134 NA
HETATM   31  C   UNL     1     -40.036  50.820 -52.879  1.00  0.00     0.008 C 
HETATM   32  C   UNL     1     -40.165  51.308 -54.323  1.00  0.00     0.002 C 
HETATM   33  C   UNL     1     -40.238  52.823 -54.514  1.00  0.00     0.020 C 
HETATM   34  N   UNL     1     -40.693  54.463 -50.172  1.00  0.00    -0.129 NA
ENDBRANCH   3  25
TORSDOF 5
ENDMDL
MODEL 10
REMARK VINA RESULT:      -7.5      2.627      4.356
REMARK  5 active torsions:
REMARK  status: ('A' for Active; 'I' for Inactive)
REMARK    1  A    between atoms: O_2  and  C_3 
REMARK    2  A    between atoms: C_10  and  C_11 
REMARK    3  A    between atoms: C_11  and  C_12 
REMARK       I    between atoms: C_12  and  N_13 
REMARK    4  A    between atoms: N_13  and  C_14 
REMARK    5  A    between atoms: C_16  and  C_17 
ROOT
HETATM    1  C   UNL     1     -43.399  58.243 -53.304  1.00  0.00     0.035 A 
HETATM    2  C   UNL     1     -43.800  58.727 -52.049  1.00  0.00     0.046 A 
HETATM    3  C   UNL     1     -44.873  59.630 -51.925  1.00  0.00     0.036 A 
HETATM    4  C   UNL     1     -45.556  60.039 -53.077  1.00  0.00     0.048 A 
HETATM    5 CL   UNL     1     -46.869  61.162 -53.024  1.00  0.00    -0.083 Cl
HETATM    6  C   UNL     1     -45.166  59.558 -54.326  1.00  0.00     0.027 A 
HETATM    7  C   UNL     1     -44.092  58.667 -54.438  1.00  0.00     0.031 A 
ENDROOT
BRANCH   1   8
HETATM    8  N   UNL     1     -42.343  57.306 -53.336  1.00  0.00    -0.327 N 
HETATM    9  C   UNL     1     -42.382  55.986 -52.901  1.00  0.00     0.226 C 
HETATM   10  O   UNL     1     -43.396  55.361 -52.600  1.00  0.00    -0.273 OA
HETATM   11  H   UNL     1     -41.456  57.635 -53.698  1.00  0.00     0.169 HD
BRANCH   9  12
HETATM   12  C   UNL     1     -41.007  55.368 -52.748  1.00  0.00     0.144 C 
BRANCH  12  13
HETATM   13  C   UNL     1     -40.815  54.359 -51.657  1.00  0.00    -0.021 A 
HETATM   14  C   UNL     1     -40.398  52.981 -51.694  1.00  0.00     0.001 A 
HETATM   15  C   UNL     1     -39.980  52.080 -52.699  1.00  0.00     0.051 A 
HETATM   16  C   UNL     1     -40.475  52.489 -50.387  1.00  0.00     0.043 A 
HETATM   17  C   UNL     1     -39.658  50.749 -52.381  1.00  0.00     0.069 A 
HETATM   18  C   UNL     1     -39.759  50.304 -51.065  1.00  0.00     0.039 A 
HETATM   19  C   UNL     1     -40.169  51.167 -50.046  1.00  0.00     0.033 A 
HETATM   20  N   UNL     1     -40.900  53.517 -49.584  1.00  0.00    -0.365 N 
HETATM   21  H   UNL     1     -41.059  53.438 -48.589  1.00  0.00     0.165 HD
HETATM   22  C   UNL     1     -41.100  54.641 -50.329  1.00  0.00     0.097 A 
BRANCH  17  23
HETATM   23  O   UNL     1     -39.258  49.990 -53.449  1.00  0.00    -0.356 OA
HETATM   24  C   UNL     1     -40.110  49.982 -54.589  1.00  0.00     0.210 C 
ENDBRANCH  17  23
ENDBRANCH  12  13
ENDBRANCH   9  12
ENDBRANCH   1   8
BRANCH   3  25
HETATM   25  C   UNL     1     -45.258  60.098 -50.598  1.00  0.00     0.165 A 
HETATM   26  N   UNL     1     -45.138  61.391 -50.132  1.00  0.00    -0.316 N 
HETATM   27  C   UNL     1     -45.626  61.378 -48.848  1.00  0.00     0.130 A 
HETATM   28  C   UNL     1     -44.556  62.498 -50.861  1.00  0.00     0.132 C 
HETATM   29  C   UNL     1     -45.708  62.546 -47.927  1.00  0.00     0.081 C 
HETATM   30  N   UNL     1     -46.008  60.154 -48.552  1.00  0.00    -0.134 NA
HETATM   31  C   UNL     1     -44.459  63.418 -47.969  1.00  0.00     0.008 C 
HETATM   32  C   UNL     1     -44.431  64.396 -49.145  1.00  0.00     0.002 C 
HETATM   33  C   UNL     1     -45.034  63.887 -50.455  1.00  0.00     0.020 C 
HETATM   34  N   UNL     1     -45.776  59.356 -49.641  1.00  0.00    -0.129 NA
ENDBRANCH   3  25
TORSDOF 5
ENDMDL
