MODEL 1
REMARK VINA RESULT:      -8.1      0.000      0.000
REMARK  10 active torsions:
REMARK  status: ('A' for Active; 'I' for Inactive)
REMARK    1  A    between atoms: N_15  and  C_16 
REMARK    2  A    between atoms: C_16  and  C_17 
REMARK    3  A    between atoms: C_17  and  N_18 
REMARK       I    between atoms: N_18  and  C_19 
REMARK    4  A    between atoms: C_19  and  C_20 
REMARK    5  A    between atoms: C_20  and  C_21 
REMARK    6  A    between atoms: C_21  and  C_22 
REMARK    7  A    between atoms: C_24  and  C_25 
REMARK    8  A    between atoms: C_29  and  O_30 
REMARK    9  A    between atoms: C_31  and  C_32 
REMARK   10  A    between atoms: C_38  and  O_39 
ROOT
HETATM    1  C   UNL     1     -43.195  57.150 -57.998  1.00  0.00     0.142 C 
ENDROOT
BRANCH   1   2
HETATM    2  C   UNL     1     -43.826  58.435 -57.442  1.00  0.00     0.151 C 
BRANCH   2   3
HETATM    3  N   UNL     1     -43.118  59.011 -56.283  1.00  0.00    -0.291 N 
HETATM    4  C   UNL     1     -42.032  59.825 -56.436  1.00  0.00     0.366 A 
HETATM    5  O   UNL     1     -41.681  60.354 -55.237  1.00  0.00    -0.287 OA
HETATM    6  O   UNL     1     -41.433  60.061 -57.468  1.00  0.00    -0.238 OA
HETATM    7  C   UNL     1     -42.575  59.921 -54.157  1.00  0.00     0.126 A 
HETATM    8  C   UNL     1     -41.620  59.189 -53.192  1.00  0.00     0.082 C 
HETATM    9  C   UNL     1     -43.606  59.021 -54.933  1.00  0.00     0.166 A 
HETATM   10  C   UNL     1     -43.049  61.250 -53.529  1.00  0.00     0.082 C 
HETATM   11  C   UNL     1     -42.119  59.016 -51.757  1.00  0.00     0.122 C 
HETATM   12  N   UNL     1     -42.525  60.372 -51.229  1.00  0.00    -0.059 N 
HETATM   13  C   UNL     1     -40.944  58.547 -50.871  1.00  0.00     0.046 C 
HETATM   14  C   UNL     1     -43.254  58.008 -51.572  1.00  0.00     0.046 C 
HETATM   15  C   UNL     1     -43.429  61.275 -52.035  1.00  0.00     0.122 C 
HETATM   16  H   UNL     1     -41.650  60.894 -51.060  1.00  0.00     0.279 HD
HETATM   17  H   UNL     1     -42.922  60.256 -50.283  1.00  0.00     0.279 HD
HETATM   18  C   UNL     1     -43.182  62.705 -51.494  1.00  0.00     0.046 C 
HETATM   19  C   UNL     1     -44.893  60.948 -51.726  1.00  0.00     0.046 C 
HETATM   20  C   UNL     1     -45.065  59.452 -54.859  1.00  0.00     0.074 C 
BRANCH   9  21
HETATM   21  O   UNL     1     -43.493  57.679 -54.491  1.00  0.00    -0.368 OA
HETATM   22  H   UNL     1     -43.956  57.168 -55.183  1.00  0.00     0.212 HD
ENDBRANCH   9  21
ENDBRANCH   2   3
ENDBRANCH   1   2
BRANCH   1  23
HETATM   23  N   UNL     1     -43.542  55.950 -57.252  1.00  0.00    -0.359 N 
HETATM   24  C   UNL     1     -42.692  55.426 -56.306  1.00  0.00     0.217 C 
HETATM   25  O   UNL     1     -41.600  55.926 -56.054  1.00  0.00    -0.274 OA
HETATM   26  H   UNL     1     -44.341  55.402 -57.542  1.00  0.00     0.162 HD
BRANCH  24  27
HETATM   27  C   UNL     1     -43.217  54.204 -55.574  1.00  0.00     0.107 C 
BRANCH  27  28
HETATM   28  C   UNL     1     -43.271  54.345 -54.051  1.00  0.00     0.048 C 
BRANCH  28  29
HETATM   29  C   UNL     1     -42.184  53.694 -53.218  1.00  0.00    -0.057 A 
HETATM   30  C   UNL     1     -41.813  54.142 -51.947  1.00  0.00     0.018 A 
HETATM   31  C   UNL     1     -40.773  53.556 -51.195  1.00  0.00    -0.016 A 
HETATM   32  C   UNL     1     -40.147  52.429 -51.772  1.00  0.00     0.079 A 
HETATM   33  C   UNL     1     -40.501  51.905 -53.041  1.00  0.00    -0.016 A 
HETATM   34  C   UNL     1     -41.515  52.581 -53.747  1.00  0.00     0.018 A 
BRANCH  31  35
HETATM   35  C   UNL     1     -40.498  54.116 -49.772  1.00  0.00    -0.021 C 
HETATM   36  C   UNL     1     -39.022  54.560 -49.719  1.00  0.00     0.019 C 
HETATM   37  C   UNL     1     -41.371  55.315 -49.340  1.00  0.00     0.019 C 
HETATM   38  C   UNL     1     -40.726  53.040 -48.673  1.00  0.00     0.019 C 
ENDBRANCH  31  35
BRANCH  32  39
HETATM   39  O   UNL     1     -39.177  51.763 -51.080  1.00  0.00    -0.360 OA
HETATM   40  H   UNL     1     -39.238  50.831 -51.347  1.00  0.00     0.217 HD
ENDBRANCH  32  39
BRANCH  33  41
HETATM   41  C   UNL     1     -39.843  50.626 -53.624  1.00  0.00    -0.021 C 
HETATM   42  C   UNL     1     -39.674  49.560 -52.518  1.00  0.00     0.019 C 
HETATM   43  C   UNL     1     -40.678  49.953 -54.745  1.00  0.00     0.019 C 
HETATM   44  C   UNL     1     -38.472  50.952 -54.256  1.00  0.00     0.019 C 
ENDBRANCH  33  41
ENDBRANCH  28  29
ENDBRANCH  27  28
ENDBRANCH  24  27
ENDBRANCH   1  23
TORSDOF 10
ENDMDL
MODEL 2
REMARK VINA RESULT:      -8.0      1.253      3.173
REMARK  10 active torsions:
REMARK  status: ('A' for Active; 'I' for Inactive)
REMARK    1  A    between atoms: N_15  and  C_16 
REMARK    2  A    between atoms: C_16  and  C_17 
REMARK    3  A    between atoms: C_17  and  N_18 
REMARK       I    between atoms: N_18  and  C_19 
REMARK    4  A    between atoms: C_19  and  C_20 
REMARK    5  A    between atoms: C_20  and  C_21 
REMARK    6  A    between atoms: C_21  and  C_22 
REMARK    7  A    between atoms: C_24  and  C_25 
REMARK    8  A    between atoms: C_29  and  O_30 
REMARK    9  A    between atoms: C_31  and  C_32 
REMARK   10  A    between atoms: C_38  and  O_39 
ROOT
HETATM    1  C   UNL     1     -42.335  57.995 -58.234  1.00  0.00     0.142 C 
ENDROOT
BRANCH   1   2
HETATM    2  C   UNL     1     -43.435  59.002 -57.870  1.00  0.00     0.151 C 
BRANCH   2   3
HETATM    3  N   UNL     1     -43.196  59.742 -56.617  1.00  0.00    -0.291 N 
HETATM    4  C   UNL     1     -42.557  60.949 -56.605  1.00  0.00     0.366 A 
HETATM    5  O   UNL     1     -42.622  61.491 -55.363  1.00  0.00    -0.287 OA
HETATM    6  O   UNL     1     -41.994  61.490 -57.538  1.00  0.00    -0.238 OA
HETATM    7  C   UNL     1     -43.370  60.645 -54.427  1.00  0.00     0.126 A 
HETATM    8  C   UNL     1     -42.322  60.322 -53.341  1.00  0.00     0.082 C 
HETATM    9  C   UNL     1     -43.806  59.449 -55.350  1.00  0.00     0.166 A 
HETATM   10  C   UNL     1     -44.444  61.598 -53.861  1.00  0.00     0.082 C 
HETATM   11  C   UNL     1     -42.873  59.853 -51.994  1.00  0.00     0.122 C 
HETATM   12  N   UNL     1     -43.886  60.867 -51.517  1.00  0.00    -0.059 N 
HETATM   13  C   UNL     1     -41.732  59.868 -50.954  1.00  0.00     0.046 C 
HETATM   14  C   UNL     1     -43.477  58.448 -51.984  1.00  0.00     0.046 C 
HETATM   15  C   UNL     1     -44.983  61.354 -52.436  1.00  0.00     0.122 C 
HETATM   16  H   UNL     1     -43.351  61.698 -51.220  1.00  0.00     0.279 HD
HETATM   17  H   UNL     1     -44.310  60.528 -50.639  1.00  0.00     0.279 HD
HETATM   18  C   UNL     1     -45.445  62.712 -51.852  1.00  0.00     0.046 C 
HETATM   19  C   UNL     1     -46.189  60.415 -52.344  1.00  0.00     0.046 C 
HETATM   20  C   UNL     1     -45.305  59.212 -55.483  1.00  0.00     0.074 C 
BRANCH   9  21
HETATM   21  O   UNL     1     -43.182  58.255 -54.910  1.00  0.00    -0.368 OA
HETATM   22  H   UNL     1     -43.533  58.130 -54.007  1.00  0.00     0.212 HD
ENDBRANCH   9  21
ENDBRANCH   2   3
ENDBRANCH   1   2
BRANCH   1  23
HETATM   23  N   UNL     1     -42.140  56.949 -57.242  1.00  0.00    -0.359 N 
HETATM   24  C   UNL     1     -42.851  55.773 -57.294  1.00  0.00     0.217 C 
HETATM   25  O   UNL     1     -43.690  55.549 -58.161  1.00  0.00    -0.274 OA
HETATM   26  H   UNL     1     -41.597  57.151 -56.412  1.00  0.00     0.162 HD
BRANCH  24  27
HETATM   27  C   UNL     1     -42.497  54.759 -56.221  1.00  0.00     0.107 C 
BRANCH  27  28
HETATM   28  C   UNL     1     -41.307  55.147 -55.341  1.00  0.00     0.048 C 
BRANCH  28  29
HETATM   29  C   UNL     1     -40.952  54.263 -54.161  1.00  0.00    -0.057 A 
HETATM   30  C   UNL     1     -40.552  52.929 -54.289  1.00  0.00     0.018 A 
HETATM   31  C   UNL     1     -40.261  52.101 -53.184  1.00  0.00    -0.016 A 
HETATM   32  C   UNL     1     -40.336  52.711 -51.913  1.00  0.00     0.079 A 
HETATM   33  C   UNL     1     -40.701  54.068 -51.719  1.00  0.00    -0.016 A 
HETATM   34  C   UNL     1     -41.024  54.810 -52.872  1.00  0.00     0.018 A 
BRANCH  31  35
HETATM   35  C   UNL     1     -39.774  50.653 -53.468  1.00  0.00    -0.021 C 
HETATM   36  C   UNL     1     -38.347  50.742 -54.045  1.00  0.00     0.019 C 
HETATM   37  C   UNL     1     -39.736  49.705 -52.249  1.00  0.00     0.019 C 
HETATM   38  C   UNL     1     -40.679  49.931 -54.506  1.00  0.00     0.019 C 
ENDBRANCH  31  35
BRANCH  32  39
HETATM   39  O   UNL     1     -40.005  51.998 -50.797  1.00  0.00    -0.360 OA
HETATM   40  H   UNL     1     -40.726  52.132 -50.160  1.00  0.00     0.217 HD
ENDBRANCH  32  39
BRANCH  33  41
HETATM   41  C   UNL     1     -40.712  54.732 -50.317  1.00  0.00    -0.021 C 
HETATM   42  C   UNL     1     -40.797  56.269 -50.454  1.00  0.00     0.019 C 
HETATM   43  C   UNL     1     -41.920  54.312 -49.439  1.00  0.00     0.019 C 
HETATM   44  C   UNL     1     -39.451  54.343 -49.513  1.00  0.00     0.019 C 
ENDBRANCH  33  41
ENDBRANCH  28  29
ENDBRANCH  27  28
ENDBRANCH  24  27
ENDBRANCH   1  23
TORSDOF 10
ENDMDL
MODEL 3
REMARK VINA RESULT:      -8.0      2.229      6.043
REMARK  10 active torsions:
REMARK  status: ('A' for Active; 'I' for Inactive)
REMARK    1  A    between atoms: N_15  and  C_16 
REMARK    2  A    between atoms: C_16  and  C_17 
REMARK    3  A    between atoms: C_17  and  N_18 
REMARK       I    between atoms: N_18  and  C_19 
REMARK    4  A    between atoms: C_19  and  C_20 
REMARK    5  A    between atoms: C_20  and  C_21 
REMARK    6  A    between atoms: C_21  and  C_22 
REMARK    7  A    between atoms: C_24  and  C_25 
REMARK    8  A    between atoms: C_29  and  O_30 
REMARK    9  A    between atoms: C_31  and  C_32 
REMARK   10  A    between atoms: C_38  and  O_39 
ROOT
HETATM    1  C   UNL     1     -43.929  61.506 -54.244  1.00  0.00     0.142 C 
ENDROOT
BRANCH   1   2
HETATM    2  C   UNL     1     -45.215  60.977 -54.896  1.00  0.00     0.151 C 
BRANCH   2   3
HETATM    3  N   UNL     1     -45.014  59.825 -55.795  1.00  0.00    -0.291 N 
HETATM    4  C   UNL     1     -45.003  58.541 -55.328  1.00  0.00     0.366 A 
HETATM    5  O   UNL     1     -44.977  57.673 -56.370  1.00  0.00    -0.287 OA
HETATM    6  O   UNL     1     -45.004  58.184 -54.165  1.00  0.00    -0.238 OA
HETATM    7  C   UNL     1     -44.997  58.361 -57.666  1.00  0.00     0.126 A 
HETATM    8  C   UNL     1     -43.673  57.908 -58.316  1.00  0.00     0.082 C 
HETATM    9  C   UNL     1     -45.076  59.870 -57.229  1.00  0.00     0.166 A 
HETATM   10  C   UNL     1     -46.195  57.718 -58.396  1.00  0.00     0.082 C 
HETATM   11  C   UNL     1     -43.586  58.059 -59.836  1.00  0.00     0.122 C 
HETATM   12  N   UNL     1     -44.782  57.371 -60.451  1.00  0.00    -0.059 N 
HETATM   13  C   UNL     1     -42.345  57.293 -60.344  1.00  0.00     0.046 C 
HETATM   14  C   UNL     1     -43.473  59.495 -60.348  1.00  0.00     0.046 C 
HETATM   15  C   UNL     1     -46.176  57.642 -59.937  1.00  0.00     0.122 C 
HETATM   16  H   UNL     1     -44.617  56.356 -60.355  1.00  0.00     0.279 HD
HETATM   17  H   UNL     1     -44.765  57.522 -61.472  1.00  0.00     0.279 HD
HETATM   18  C   UNL     1     -47.027  56.424 -60.374  1.00  0.00     0.046 C 
HETATM   19  C   UNL     1     -46.766  58.856 -60.659  1.00  0.00     0.046 C 
HETATM   20  C   UNL     1     -46.288  60.651 -57.720  1.00  0.00     0.074 C 
BRANCH   9  21
HETATM   21  O   UNL     1     -43.894  60.544 -57.627  1.00  0.00    -0.368 OA
HETATM   22  H   UNL     1     -43.956  60.564 -58.601  1.00  0.00     0.212 HD
ENDBRANCH   9  21
ENDBRANCH   2   3
ENDBRANCH   1   2
BRANCH   1  23
HETATM   23  N   UNL     1     -43.562  60.817 -53.016  1.00  0.00    -0.359 N 
HETATM   24  C   UNL     1     -42.351  60.176 -52.891  1.00  0.00     0.217 C 
HETATM   25  O   UNL     1     -41.529  60.138 -53.801  1.00  0.00    -0.274 OA
HETATM   26  H   UNL     1     -44.266  60.665 -52.306  1.00  0.00     0.162 HD
BRANCH  24  27
HETATM   27  C   UNL     1     -42.092  59.549 -51.532  1.00  0.00     0.107 C 
BRANCH  27  28
HETATM   28  C   UNL     1     -42.870  58.259 -51.264  1.00  0.00     0.048 C 
BRANCH  28  29
HETATM   29  C   UNL     1     -42.243  56.934 -51.653  1.00  0.00    -0.057 A 
HETATM   30  C   UNL     1     -42.192  56.462 -52.968  1.00  0.00     0.018 A 
HETATM   31  C   UNL     1     -41.642  55.209 -53.317  1.00  0.00    -0.016 A 
HETATM   32  C   UNL     1     -41.079  54.461 -52.261  1.00  0.00     0.079 A 
HETATM   33  C   UNL     1     -41.069  54.901 -50.912  1.00  0.00    -0.016 A 
HETATM   34  C   UNL     1     -41.683  56.139 -50.643  1.00  0.00     0.018 A 
BRANCH  31  35
HETATM   35  C   UNL     1     -41.597  54.828 -54.823  1.00  0.00    -0.021 C 
HETATM   36  C   UNL     1     -41.877  56.106 -55.640  1.00  0.00     0.019 C 
HETATM   37  C   UNL     1     -40.266  54.225 -55.325  1.00  0.00     0.019 C 
HETATM   38  C   UNL     1     -42.676  53.769 -55.184  1.00  0.00     0.019 C 
ENDBRANCH  31  35
BRANCH  32  39
HETATM   39  O   UNL     1     -40.468  53.269 -52.523  1.00  0.00    -0.360 OA
HETATM   40  H   UNL     1     -40.266  53.265 -53.473  1.00  0.00     0.217 HD
ENDBRANCH  32  39
BRANCH  33  41
HETATM   41  C   UNL     1     -40.386  54.089 -49.780  1.00  0.00    -0.021 C 
HETATM   42  C   UNL     1     -40.900  54.558 -48.400  1.00  0.00     0.019 C 
HETATM   43  C   UNL     1     -40.668  52.565 -49.849  1.00  0.00     0.019 C 
HETATM   44  C   UNL     1     -38.849  54.236 -49.848  1.00  0.00     0.019 C 
ENDBRANCH  33  41
ENDBRANCH  28  29
ENDBRANCH  27  28
ENDBRANCH  24  27
ENDBRANCH   1  23
TORSDOF 10
ENDMDL
MODEL 4
REMARK VINA RESULT:      -7.8      1.505      2.802
REMARK  10 active torsions:
REMARK  status: ('A' for Active; 'I' for Inactive)
REMARK    1  A    between atoms: N_15  and  C_16 
REMARK    2  A    between atoms: C_16  and  C_17 
REMARK    3  A    between atoms: C_17  and  N_18 
REMARK       I    between atoms: N_18  and  C_19 
REMARK    4  A    between atoms: C_19  and  C_20 
REMARK    5  A    between atoms: C_20  and  C_21 
REMARK    6  A    between atoms: C_21  and  C_22 
REMARK    7  A    between atoms: C_24  and  C_25 
REMARK    8  A    between atoms: C_29  and  O_30 
REMARK    9  A    between atoms: C_31  and  C_32 
REMARK   10  A    between atoms: C_38  and  O_39 
ROOT
HETATM    1  C   UNL     1     -42.263  57.963 -58.374  1.00  0.00     0.142 C 
ENDROOT
BRANCH   1   2
HETATM    2  C   UNL     1     -42.634  59.374 -57.895  1.00  0.00     0.151 C 
BRANCH   2   3
HETATM    3  N   UNL     1     -43.587  59.406 -56.769  1.00  0.00    -0.291 N 
HETATM    4  C   UNL     1     -44.817  58.818 -56.851  1.00  0.00     0.366 A 
HETATM    5  O   UNL     1     -45.418  58.840 -55.635  1.00  0.00    -0.287 OA
HETATM    6  O   UNL     1     -45.338  58.343 -57.842  1.00  0.00    -0.238 OA
HETATM    7  C   UNL     1     -44.570  59.455 -54.608  1.00  0.00     0.126 A 
HETATM    8  C   UNL     1     -45.415  60.657 -54.138  1.00  0.00     0.082 C 
HETATM    9  C   UNL     1     -43.270  59.794 -55.424  1.00  0.00     0.166 A 
HETATM   10  C   UNL     1     -44.513  58.381 -53.500  1.00  0.00     0.082 C 
HETATM   11  C   UNL     1     -45.050  61.241 -52.772  1.00  0.00     0.122 C 
HETATM   12  N   UNL     1     -45.055  60.119 -51.761  1.00  0.00    -0.059 N 
HETATM   13  C   UNL     1     -46.164  62.216 -52.331  1.00  0.00     0.046 C 
HETATM   14  C   UNL     1     -43.729  62.007 -52.716  1.00  0.00     0.046 C 
HETATM   15  C   UNL     1     -44.319  58.828 -52.037  1.00  0.00     0.122 C 
HETATM   16  H   UNL     1     -46.044  59.873 -51.600  1.00  0.00     0.279 HD
HETATM   17  H   UNL     1     -44.748  60.491 -50.848  1.00  0.00     0.279 HD
HETATM   18  C   UNL     1     -44.971  57.769 -51.114  1.00  0.00     0.046 C 
HETATM   19  C   UNL     1     -42.863  58.956 -51.579  1.00  0.00     0.046 C 
HETATM   20  C   UNL     1     -41.980  59.147 -54.936  1.00  0.00     0.074 C 
BRANCH   9  21
HETATM   21  O   UNL     1     -43.095  61.201 -55.478  1.00  0.00    -0.368 OA
HETATM   22  H   UNL     1     -43.642  61.530 -54.740  1.00  0.00     0.212 HD
ENDBRANCH   9  21
ENDBRANCH   2   3
ENDBRANCH   1   2
BRANCH   1  23
HETATM   23  N   UNL     1     -42.142  56.988 -57.301  1.00  0.00    -0.359 N 
HETATM   24  C   UNL     1     -42.846  55.807 -57.326  1.00  0.00     0.217 C 
HETATM   25  O   UNL     1     -43.617  55.520 -58.236  1.00  0.00    -0.274 OA
HETATM   26  H   UNL     1     -41.663  57.249 -56.449  1.00  0.00     0.162 HD
BRANCH  24  27
HETATM   27  C   UNL     1     -42.573  54.870 -56.163  1.00  0.00     0.107 C 
BRANCH  27  28
HETATM   28  C   UNL     1     -41.236  55.102 -55.454  1.00  0.00     0.048 C 
BRANCH  28  29
HETATM   29  C   UNL     1     -40.904  54.270 -54.231  1.00  0.00    -0.057 A 
HETATM   30  C   UNL     1     -40.974  54.760 -52.923  1.00  0.00     0.018 A 
HETATM   31  C   UNL     1     -40.625  53.993 -51.791  1.00  0.00    -0.016 A 
HETATM   32  C   UNL     1     -40.249  52.655 -52.039  1.00  0.00     0.079 A 
HETATM   33  C   UNL     1     -40.191  52.089 -53.339  1.00  0.00    -0.016 A 
HETATM   34  C   UNL     1     -40.507  52.939 -54.416  1.00  0.00     0.018 A 
BRANCH  31  35
HETATM   35  C   UNL     1     -40.802  54.640 -50.390  1.00  0.00    -0.021 C 
HETATM   36  C   UNL     1     -42.168  54.189 -49.833  1.00  0.00     0.019 C 
HETATM   37  C   UNL     1     -39.721  54.287 -49.344  1.00  0.00     0.019 C 
HETATM   38  C   UNL     1     -40.791  56.193 -50.465  1.00  0.00     0.019 C 
ENDBRANCH  31  35
BRANCH  32  39
HETATM   39  O   UNL     1     -39.960  51.825 -50.994  1.00  0.00    -0.360 OA
HETATM   40  H   UNL     1     -40.777  51.341 -50.792  1.00  0.00     0.217 HD
ENDBRANCH  32  39
BRANCH  33  41
HETATM   41  C   UNL     1     -39.838  50.597 -53.579  1.00  0.00    -0.021 C 
HETATM   42  C   UNL     1     -38.490  50.480 -54.326  1.00  0.00     0.019 C 
HETATM   43  C   UNL     1     -39.677  49.778 -52.271  1.00  0.00     0.019 C 
HETATM   44  C   UNL     1     -40.951  49.890 -54.385  1.00  0.00     0.019 C 
ENDBRANCH  33  41
ENDBRANCH  28  29
ENDBRANCH  27  28
ENDBRANCH  24  27
ENDBRANCH   1  23
TORSDOF 10
ENDMDL
MODEL 5
REMARK VINA RESULT:      -7.7      2.834      8.375
REMARK  10 active torsions:
REMARK  status: ('A' for Active; 'I' for Inactive)
REMARK    1  A    between atoms: N_15  and  C_16 
REMARK    2  A    between atoms: C_16  and  C_17 
REMARK    3  A    between atoms: C_17  and  N_18 
REMARK       I    between atoms: N_18  and  C_19 
REMARK    4  A    between atoms: C_19  and  C_20 
REMARK    5  A    between atoms: C_20  and  C_21 
REMARK    6  A    between atoms: C_21  and  C_22 
REMARK    7  A    between atoms: C_24  and  C_25 
REMARK    8  A    between atoms: C_29  and  O_30 
REMARK    9  A    between atoms: C_31  and  C_32 
REMARK   10  A    between atoms: C_38  and  O_39 
ROOT
HETATM    1  C   UNL     1     -43.235  61.361 -51.985  1.00  0.00     0.142 C 
ENDROOT
BRANCH   1   2
HETATM    2  C   UNL     1     -43.283  60.233 -50.944  1.00  0.00     0.151 C 
BRANCH   2   3
HETATM    3  N   UNL     1     -42.405  59.085 -51.246  1.00  0.00    -0.291 N 
HETATM    4  C   UNL     1     -41.106  59.043 -50.826  1.00  0.00     0.366 A 
HETATM    5  O   UNL     1     -40.580  57.819 -51.080  1.00  0.00    -0.287 OA
HETATM    6  O   UNL     1     -40.474  59.945 -50.308  1.00  0.00    -0.238 OA
HETATM    7  C   UNL     1     -41.557  56.913 -51.695  1.00  0.00     0.126 A 
HETATM    8  C   UNL     1     -40.904  56.572 -53.050  1.00  0.00     0.082 C 
HETATM    9  C   UNL     1     -42.844  57.815 -51.750  1.00  0.00     0.166 A 
HETATM   10  C   UNL     1     -41.533  55.678 -50.769  1.00  0.00     0.082 C 
HETATM   11  C   UNL     1     -41.416  55.308 -53.743  1.00  0.00     0.122 C 
HETATM   12  N   UNL     1     -41.320  54.160 -52.765  1.00  0.00    -0.059 N 
HETATM   13  C   UNL     1     -40.466  54.956 -54.908  1.00  0.00     0.046 C 
HETATM   14  C   UNL     1     -42.828  55.401 -54.322  1.00  0.00     0.046 C 
HETATM   15  C   UNL     1     -41.864  54.294 -51.362  1.00  0.00     0.122 C 
HETATM   16  H   UNL     1     -40.317  53.931 -52.679  1.00  0.00     0.279 HD
HETATM   17  H   UNL     1     -41.722  53.316 -53.202  1.00  0.00     0.279 HD
HETATM   18  C   UNL     1     -41.130  53.217 -50.525  1.00  0.00     0.046 C 
HETATM   19  C   UNL     1     -43.347  53.911 -51.345  1.00  0.00     0.046 C 
HETATM   20  C   UNL     1     -44.062  57.296 -50.997  1.00  0.00     0.074 C 
BRANCH   9  21
HETATM   21  O   UNL     1     -43.199  58.057 -53.101  1.00  0.00    -0.368 OA
HETATM   22  H   UNL     1     -43.019  57.206 -53.543  1.00  0.00     0.212 HD
ENDBRANCH   9  21
ENDBRANCH   2   3
ENDBRANCH   1   2
BRANCH   1  23
HETATM   23  N   UNL     1     -44.212  61.219 -53.054  1.00  0.00    -0.359 N 
HETATM   24  C   UNL     1     -43.832  60.864 -54.328  1.00  0.00     0.217 C 
HETATM   25  O   UNL     1     -42.660  60.665 -54.633  1.00  0.00    -0.274 OA
HETATM   26  H   UNL     1     -45.159  61.542 -52.903  1.00  0.00     0.162 HD
BRANCH  24  27
HETATM   27  C   UNL     1     -44.971  60.705 -55.319  1.00  0.00     0.107 C 
BRANCH  27  28
HETATM   28  C   UNL     1     -45.392  59.257 -55.581  1.00  0.00     0.048 C 
BRANCH  28  29
HETATM   29  C   UNL     1     -45.350  58.730 -57.002  1.00  0.00    -0.057 A 
HETATM   30  C   UNL     1     -44.544  57.661 -57.405  1.00  0.00     0.018 A 
HETATM   31  C   UNL     1     -44.480  57.202 -58.738  1.00  0.00    -0.016 A 
HETATM   32  C   UNL     1     -45.332  57.847 -59.659  1.00  0.00     0.079 A 
HETATM   33  C   UNL     1     -46.198  58.914 -59.306  1.00  0.00    -0.016 A 
HETATM   34  C   UNL     1     -46.163  59.344 -57.966  1.00  0.00     0.018 A 
BRANCH  31  35
HETATM   35  C   UNL     1     -43.585  55.968 -59.041  1.00  0.00    -0.021 C 
HETATM   36  C   UNL     1     -42.983  55.485 -57.705  1.00  0.00     0.019 C 
HETATM   37  C   UNL     1     -44.295  54.768 -59.705  1.00  0.00     0.019 C 
HETATM   38  C   UNL     1     -42.418  56.323 -60.005  1.00  0.00     0.019 C 
ENDBRANCH  31  35
BRANCH  32  39
HETATM   39  O   UNL     1     -45.381  57.420 -60.955  1.00  0.00    -0.360 OA
HETATM   40  H   UNL     1     -45.016  58.138 -61.497  1.00  0.00     0.217 HD
ENDBRANCH  32  39
BRANCH  33  41
HETATM   41  C   UNL     1     -47.173  59.563 -60.324  1.00  0.00    -0.021 C 
HETATM   42  C   UNL     1     -46.409  60.534 -61.253  1.00  0.00     0.019 C 
HETATM   43  C   UNL     1     -47.872  58.538 -61.256  1.00  0.00     0.019 C 
HETATM   44  C   UNL     1     -48.310  60.314 -59.596  1.00  0.00     0.019 C 
ENDBRANCH  33  41
ENDBRANCH  28  29
ENDBRANCH  27  28
ENDBRANCH  24  27
ENDBRANCH   1  23
TORSDOF 10
ENDMDL
MODEL 6
REMARK VINA RESULT:      -7.7      2.175      5.773
REMARK  10 active torsions:
REMARK  status: ('A' for Active; 'I' for Inactive)
REMARK    1  A    between atoms: N_15  and  C_16 
REMARK    2  A    between atoms: C_16  and  C_17 
REMARK    3  A    between atoms: C_17  and  N_18 
REMARK       I    between atoms: N_18  and  C_19 
REMARK    4  A    between atoms: C_19  and  C_20 
REMARK    5  A    between atoms: C_20  and  C_21 
REMARK    6  A    between atoms: C_21  and  C_22 
REMARK    7  A    between atoms: C_24  and  C_25 
REMARK    8  A    between atoms: C_29  and  O_30 
REMARK    9  A    between atoms: C_31  and  C_32 
REMARK   10  A    between atoms: C_38  and  O_39 
ROOT
HETATM    1  C   UNL     1     -41.758  59.158 -53.836  1.00  0.00     0.142 C 
ENDROOT
BRANCH   1   2
HETATM    2  C   UNL     1     -42.110  60.255 -54.852  1.00  0.00     0.151 C 
BRANCH   2   3
HETATM    3  N   UNL     1     -43.024  59.822 -55.926  1.00  0.00    -0.291 N 
HETATM    4  C   UNL     1     -44.378  59.961 -55.818  1.00  0.00     0.366 A 
HETATM    5  O   UNL     1     -44.969  59.652 -56.999  1.00  0.00    -0.287 OA
HETATM    6  O   UNL     1     -45.004  60.298 -54.830  1.00  0.00    -0.238 OA
HETATM    7  C   UNL     1     -43.989  59.293 -58.031  1.00  0.00     0.126 A 
HETATM    8  C   UNL     1     -44.383  57.846 -58.391  1.00  0.00     0.082 C 
HETATM    9  C   UNL     1     -42.630  59.474 -57.262  1.00  0.00     0.166 A 
HETATM   10  C   UNL     1     -44.333  60.243 -59.198  1.00  0.00     0.082 C 
HETATM   11  C   UNL     1     -43.878  57.328 -59.738  1.00  0.00     0.122 C 
HETATM   12  N   UNL     1     -44.293  58.309 -60.809  1.00  0.00    -0.059 N 
HETATM   13  C   UNL     1     -44.601  56.004 -60.069  1.00  0.00     0.046 C 
HETATM   14  C   UNL     1     -42.376  57.054 -59.816  1.00  0.00     0.046 C 
HETATM   15  C   UNL     1     -44.037  59.788 -60.642  1.00  0.00     0.122 C 
HETATM   16  H   UNL     1     -45.311  58.192 -60.935  1.00  0.00     0.279 HD
HETATM   17  H   UNL     1     -43.903  58.001 -61.713  1.00  0.00     0.279 HD
HETATM   18  C   UNL     1     -45.037  60.496 -61.590  1.00  0.00     0.046 C 
HETATM   19  C   UNL     1     -42.638  60.132 -61.163  1.00  0.00     0.046 C 
HETATM   20  C   UNL     1     -41.653  60.485 -57.847  1.00  0.00     0.074 C 
BRANCH   9  21
HETATM   21  O   UNL     1     -41.982  58.218 -57.137  1.00  0.00    -0.368 OA
HETATM   22  H   UNL     1     -41.131  58.351 -57.598  1.00  0.00     0.212 HD
ENDBRANCH   9  21
ENDBRANCH   2   3
ENDBRANCH   1   2
BRANCH   1  23
HETATM   23  N   UNL     1     -42.893  58.343 -53.430  1.00  0.00    -0.359 N 
HETATM   24  C   UNL     1     -43.454  58.472 -52.180  1.00  0.00     0.217 C 
HETATM   25  O   UNL     1     -43.024  59.260 -51.344  1.00  0.00    -0.274 OA
HETATM   26  H   UNL     1     -43.172  57.561 -54.008  1.00  0.00     0.162 HD
BRANCH  24  27
HETATM   27  C   UNL     1     -44.665  57.592 -51.924  1.00  0.00     0.107 C 
BRANCH  27  28
HETATM   28  C   UNL     1     -44.399  56.384 -51.022  1.00  0.00     0.048 C 
BRANCH  28  29
HETATM   29  C   UNL     1     -43.254  55.452 -51.368  1.00  0.00    -0.057 A 
HETATM   30  C   UNL     1     -42.979  55.018 -52.668  1.00  0.00     0.018 A 
HETATM   31  C   UNL     1     -41.936  54.119 -52.977  1.00  0.00    -0.016 A 
HETATM   32  C   UNL     1     -41.125  53.713 -51.895  1.00  0.00     0.079 A 
HETATM   33  C   UNL     1     -41.331  54.145 -50.560  1.00  0.00    -0.016 A 
HETATM   34  C   UNL     1     -42.424  55.002 -50.332  1.00  0.00     0.018 A 
BRANCH  31  35
HETATM   35  C   UNL     1     -41.702  53.759 -54.471  1.00  0.00    -0.021 C 
HETATM   36  C   UNL     1     -42.947  54.209 -55.262  1.00  0.00     0.019 C 
HETATM   37  C   UNL     1     -40.461  54.400 -55.131  1.00  0.00     0.019 C 
HETATM   38  C   UNL     1     -41.517  52.229 -54.675  1.00  0.00     0.019 C 
ENDBRANCH  31  35
BRANCH  32  39
HETATM   39  O   UNL     1     -40.053  52.897 -52.118  1.00  0.00    -0.360 OA
HETATM   40  H   UNL     1     -40.413  52.033 -52.376  1.00  0.00     0.217 HD
ENDBRANCH  32  39
BRANCH  33  41
HETATM   41  C   UNL     1     -40.385  53.736 -49.400  1.00  0.00    -0.021 C 
HETATM   42  C   UNL     1     -38.940  54.197 -49.700  1.00  0.00     0.019 C 
HETATM   43  C   UNL     1     -40.763  54.371 -48.036  1.00  0.00     0.019 C 
HETATM   44  C   UNL     1     -40.415  52.208 -49.177  1.00  0.00     0.019 C 
ENDBRANCH  33  41
ENDBRANCH  28  29
ENDBRANCH  27  28
ENDBRANCH  24  27
ENDBRANCH   1  23
TORSDOF 10
ENDMDL
MODEL 7
REMARK VINA RESULT:      -7.6      2.854      8.189
REMARK  10 active torsions:
REMARK  status: ('A' for Active; 'I' for Inactive)
REMARK    1  A    between atoms: N_15  and  C_16 
REMARK    2  A    between atoms: C_16  and  C_17 
REMARK    3  A    between atoms: C_17  and  N_18 
REMARK       I    between atoms: N_18  and  C_19 
REMARK    4  A    between atoms: C_19  and  C_20 
REMARK    5  A    between atoms: C_20  and  C_21 
REMARK    6  A    between atoms: C_21  and  C_22 
REMARK    7  A    between atoms: C_24  and  C_25 
REMARK    8  A    between atoms: C_29  and  O_30 
REMARK    9  A    between atoms: C_31  and  C_32 
REMARK   10  A    between atoms: C_38  and  O_39 
ROOT
HETATM    1  C   UNL     1     -43.617  61.451 -51.923  1.00  0.00     0.142 C 
ENDROOT
BRANCH   1   2
HETATM    2  C   UNL     1     -43.767  60.232 -51.002  1.00  0.00     0.151 C 
BRANCH   2   3
HETATM    3  N   UNL     1     -42.804  59.145 -51.265  1.00  0.00    -0.291 N 
HETATM    4  C   UNL     1     -41.516  59.201 -50.816  1.00  0.00     0.366 A 
HETATM    5  O   UNL     1     -40.899  58.014 -51.038  1.00  0.00    -0.287 OA
HETATM    6  O   UNL     1     -40.961  60.152 -50.298  1.00  0.00    -0.238 OA
HETATM    7  C   UNL     1     -41.795  57.032 -51.661  1.00  0.00     0.126 A 
HETATM    8  C   UNL     1     -41.088  56.719 -52.996  1.00  0.00     0.082 C 
HETATM    9  C   UNL     1     -43.140  57.840 -51.759  1.00  0.00     0.166 A 
HETATM   10  C   UNL     1     -41.706  55.815 -50.715  1.00  0.00     0.082 C 
HETATM   11  C   UNL     1     -41.493  55.412 -53.680  1.00  0.00     0.122 C 
HETATM   12  N   UNL     1     -41.339  54.288 -52.683  1.00  0.00    -0.059 N 
HETATM   13  C   UNL     1     -40.493  55.112 -54.818  1.00  0.00     0.046 C 
HETATM   14  C   UNL     1     -42.893  55.398 -54.293  1.00  0.00     0.046 C 
HETATM   15  C   UNL     1     -41.925  54.402 -51.295  1.00  0.00     0.122 C 
HETATM   16  H   UNL     1     -40.325  54.132 -52.570  1.00  0.00     0.279 HD
HETATM   17  H   UNL     1     -41.671  53.411 -53.115  1.00  0.00     0.279 HD
HETATM   18  C   UNL     1     -41.137  53.393 -50.424  1.00  0.00     0.046 C 
HETATM   19  C   UNL     1     -43.377  53.917 -51.305  1.00  0.00     0.046 C 
HETATM   20  C   UNL     1     -44.337  57.247 -51.027  1.00  0.00     0.074 C 
BRANCH   9  21
HETATM   21  O   UNL     1     -43.479  58.038 -53.122  1.00  0.00    -0.368 OA
HETATM   22  H   UNL     1     -42.721  58.540 -53.477  1.00  0.00     0.212 HD
ENDBRANCH   9  21
ENDBRANCH   2   3
ENDBRANCH   1   2
BRANCH   1  23
HETATM   23  N   UNL     1     -44.361  61.345 -53.169  1.00  0.00    -0.359 N 
HETATM   24  C   UNL     1     -43.744  60.967 -54.340  1.00  0.00     0.217 C 
HETATM   25  O   UNL     1     -42.544  60.718 -54.400  1.00  0.00    -0.274 OA
HETATM   26  H   UNL     1     -45.305  61.707 -53.214  1.00  0.00     0.162 HD
BRANCH  24  27
HETATM   27  C   UNL     1     -44.663  60.849 -55.543  1.00  0.00     0.107 C 
BRANCH  27  28
HETATM   28  C   UNL     1     -45.305  59.472 -55.725  1.00  0.00     0.048 C 
BRANCH  28  29
HETATM   29  C   UNL     1     -45.369  58.874 -57.117  1.00  0.00    -0.057 A 
HETATM   30  C   UNL     1     -46.190  59.371 -58.133  1.00  0.00     0.018 A 
HETATM   31  C   UNL     1     -46.274  58.784 -59.414  1.00  0.00    -0.016 A 
HETATM   32  C   UNL     1     -45.426  57.680 -59.649  1.00  0.00     0.079 A 
HETATM   33  C   UNL     1     -44.546  57.151 -58.670  1.00  0.00    -0.016 A 
HETATM   34  C   UNL     1     -44.561  57.764 -57.403  1.00  0.00     0.018 A 
BRANCH  31  35
HETATM   35  C   UNL     1     -47.184  59.470 -60.471  1.00  0.00    -0.021 C 
HETATM   36  C   UNL     1     -46.285  60.342 -61.370  1.00  0.00     0.019 C 
HETATM   37  C   UNL     1     -47.990  58.518 -61.383  1.00  0.00     0.019 C 
HETATM   38  C   UNL     1     -48.251  60.386 -59.808  1.00  0.00     0.019 C 
ENDBRANCH  31  35
BRANCH  32  39
HETATM   39  O   UNL     1     -45.397  57.096 -60.882  1.00  0.00    -0.360 OA
HETATM   40  H   UNL     1     -44.726  57.573 -61.397  1.00  0.00     0.217 HD
ENDBRANCH  32  39
BRANCH  33  41
HETATM   41  C   UNL     1     -43.576  55.978 -58.974  1.00  0.00    -0.021 C 
HETATM   42  C   UNL     1     -44.339  54.814 -59.646  1.00  0.00     0.019 C 
HETATM   43  C   UNL     1     -42.428  56.357 -59.947  1.00  0.00     0.019 C 
HETATM   44  C   UNL     1     -42.889  55.482 -57.683  1.00  0.00     0.019 C 
ENDBRANCH  33  41
ENDBRANCH  28  29
ENDBRANCH  27  28
ENDBRANCH  24  27
ENDBRANCH   1  23
TORSDOF 10
ENDMDL
MODEL 8
REMARK VINA RESULT:      -7.5      3.269      5.390
REMARK  10 active torsions:
REMARK  status: ('A' for Active; 'I' for Inactive)
REMARK    1  A    between atoms: N_15  and  C_16 
REMARK    2  A    between atoms: C_16  and  C_17 
REMARK    3  A    between atoms: C_17  and  N_18 
REMARK       I    between atoms: N_18  and  C_19 
REMARK    4  A    between atoms: C_19  and  C_20 
REMARK    5  A    between atoms: C_20  and  C_21 
REMARK    6  A    between atoms: C_21  and  C_22 
REMARK    7  A    between atoms: C_24  and  C_25 
REMARK    8  A    between atoms: C_29  and  O_30 
REMARK    9  A    between atoms: C_31  and  C_32 
REMARK   10  A    between atoms: C_38  and  O_39 
ROOT
HETATM    1  C   UNL     1     -44.933  57.270 -58.044  1.00  0.00     0.142 C 
ENDROOT
BRANCH   1   2
HETATM    2  C   UNL     1     -44.800  57.542 -59.549  1.00  0.00     0.151 C 
BRANCH   2   3
HETATM    3  N   UNL     1     -43.673  58.422 -59.914  1.00  0.00    -0.291 N 
HETATM    4  C   UNL     1     -42.479  57.919 -60.345  1.00  0.00     0.366 A 
HETATM    5  O   UNL     1     -41.684  58.930 -60.777  1.00  0.00    -0.287 OA
HETATM    6  O   UNL     1     -42.133  56.753 -60.350  1.00  0.00    -0.238 OA
HETATM    7  C   UNL     1     -42.345  60.236 -60.678  1.00  0.00     0.126 A 
HETATM    8  C   UNL     1     -41.425  61.016 -59.717  1.00  0.00     0.082 C 
HETATM    9  C   UNL     1     -43.760  59.840 -60.119  1.00  0.00     0.166 A 
HETATM   10  C   UNL     1     -42.225  60.807 -62.107  1.00  0.00     0.082 C 
HETATM   11  C   UNL     1     -41.553  62.540 -59.753  1.00  0.00     0.122 C 
HETATM   12  N   UNL     1     -41.389  62.995 -61.185  1.00  0.00    -0.059 N 
HETATM   13  C   UNL     1     -40.374  63.160 -58.972  1.00  0.00     0.046 C 
HETATM   14  C   UNL     1     -42.840  63.106 -59.155  1.00  0.00     0.046 C 
HETATM   15  C   UNL     1     -42.171  62.337 -62.298  1.00  0.00     0.122 C 
HETATM   16  H   UNL     1     -40.389  62.887 -61.414  1.00  0.00     0.279 HD
HETATM   17  H   UNL     1     -41.537  64.016 -61.229  1.00  0.00     0.279 HD
HETATM   18  C   UNL     1     -41.383  62.638 -63.596  1.00  0.00     0.046 C 
HETATM   19  C   UNL     1     -43.529  63.027 -62.452  1.00  0.00     0.046 C 
HETATM   20  C   UNL     1     -44.956  60.217 -60.984  1.00  0.00     0.074 C 
BRANCH   9  21
HETATM   21  O   UNL     1     -43.931  60.389 -58.822  1.00  0.00    -0.368 OA
HETATM   22  H   UNL     1     -43.270  59.915 -58.282  1.00  0.00     0.212 HD
ENDBRANCH   9  21
ENDBRANCH   2   3
ENDBRANCH   1   2
BRANCH   1  23
HETATM   23  N   UNL     1     -44.050  56.223 -57.553  1.00  0.00    -0.359 N 
HETATM   24  C   UNL     1     -42.905  56.524 -56.853  1.00  0.00     0.217 C 
HETATM   25  O   UNL     1     -42.560  57.679 -56.621  1.00  0.00    -0.274 OA
HETATM   26  H   UNL     1     -44.190  55.271 -57.867  1.00  0.00     0.162 HD
BRANCH  24  27
HETATM   27  C   UNL     1     -42.116  55.324 -56.361  1.00  0.00     0.107 C 
BRANCH  27  28
HETATM   28  C   UNL     1     -42.795  54.526 -55.246  1.00  0.00     0.048 C 
BRANCH  28  29
HETATM   29  C   UNL     1     -41.939  53.952 -54.133  1.00  0.00    -0.057 A 
HETATM   30  C   UNL     1     -41.753  54.583 -52.899  1.00  0.00     0.018 A 
HETATM   31  C   UNL     1     -40.923  54.061 -51.884  1.00  0.00    -0.016 A 
HETATM   32  C   UNL     1     -40.321  52.813 -52.152  1.00  0.00     0.079 A 
HETATM   33  C   UNL     1     -40.498  52.107 -53.370  1.00  0.00    -0.016 A 
HETATM   34  C   UNL     1     -41.302  52.722 -54.349  1.00  0.00     0.018 A 
BRANCH  31  35
HETATM   35  C   UNL     1     -40.847  54.835 -50.538  1.00  0.00    -0.021 C 
HETATM   36  C   UNL     1     -41.034  56.334 -50.846  1.00  0.00     0.019 C 
HETATM   37  C   UNL     1     -41.890  54.434 -49.472  1.00  0.00     0.019 C 
HETATM   38  C   UNL     1     -39.470  54.646 -49.840  1.00  0.00     0.019 C 
ENDBRANCH  31  35
BRANCH  32  39
HETATM   39  O   UNL     1     -39.557  52.208 -51.196  1.00  0.00    -0.360 OA
HETATM   40  H   UNL     1     -39.284  52.906 -50.579  1.00  0.00     0.217 HD
ENDBRANCH  32  39
BRANCH  33  41
HETATM   41  C   UNL     1     -39.878  50.706 -53.614  1.00  0.00    -0.021 C 
HETATM   42  C   UNL     1     -38.404  50.843 -54.056  1.00  0.00     0.019 C 
HETATM   43  C   UNL     1     -39.866  49.803 -52.352  1.00  0.00     0.019 C 
HETATM   44  C   UNL     1     -40.679  49.928 -54.682  1.00  0.00     0.019 C 
ENDBRANCH  33  41
ENDBRANCH  28  29
ENDBRANCH  27  28
ENDBRANCH  24  27
ENDBRANCH   1  23
TORSDOF 10
ENDMDL
MODEL 9
REMARK VINA RESULT:      -7.5      3.297      6.086
REMARK  10 active torsions:
REMARK  status: ('A' for Active; 'I' for Inactive)
REMARK    1  A    between atoms: N_15  and  C_16 
REMARK    2  A    between atoms: C_16  and  C_17 
REMARK    3  A    between atoms: C_17  and  N_18 
REMARK       I    between atoms: N_18  and  C_19 
REMARK    4  A    between atoms: C_19  and  C_20 
REMARK    5  A    between atoms: C_20  and  C_21 
REMARK    6  A    between atoms: C_21  and  C_22 
REMARK    7  A    between atoms: C_24  and  C_25 
REMARK    8  A    between atoms: C_29  and  O_30 
REMARK    9  A    between atoms: C_31  and  C_32 
REMARK   10  A    between atoms: C_38  and  O_39 
ROOT
HETATM    1  C   UNL     1     -44.917  57.333 -58.028  1.00  0.00     0.142 C 
ENDROOT
BRANCH   1   2
HETATM    2  C   UNL     1     -44.798  57.597 -59.536  1.00  0.00     0.151 C 
BRANCH   2   3
HETATM    3  N   UNL     1     -43.666  58.463 -59.917  1.00  0.00    -0.291 N 
HETATM    4  C   UNL     1     -42.479  57.946 -60.350  1.00  0.00     0.366 A 
HETATM    5  O   UNL     1     -41.677  58.945 -60.797  1.00  0.00    -0.287 OA
HETATM    6  O   UNL     1     -42.144  56.776 -60.346  1.00  0.00    -0.238 OA
HETATM    7  C   UNL     1     -42.326  60.258 -60.707  1.00  0.00     0.126 A 
HETATM    8  C   UNL     1     -41.392  61.039 -59.759  1.00  0.00     0.082 C 
HETATM    9  C   UNL     1     -43.741  59.880 -60.134  1.00  0.00     0.166 A 
HETATM   10  C   UNL     1     -42.211  60.815 -62.142  1.00  0.00     0.082 C 
HETATM   11  C   UNL     1     -41.507  62.563 -59.809  1.00  0.00     0.122 C 
HETATM   12  N   UNL     1     -41.349  63.004 -61.246  1.00  0.00    -0.059 N 
HETATM   13  C   UNL     1     -40.317  63.180 -59.041  1.00  0.00     0.046 C 
HETATM   14  C   UNL     1     -42.785  63.147 -59.208  1.00  0.00     0.046 C 
HETATM   15  C   UNL     1     -42.144  62.342 -62.347  1.00  0.00     0.122 C 
HETATM   16  H   UNL     1     -40.351  62.884 -61.481  1.00  0.00     0.279 HD
HETATM   17  H   UNL     1     -41.488  64.025 -61.299  1.00  0.00     0.279 HD
HETATM   18  C   UNL     1     -41.362  62.623 -63.654  1.00  0.00     0.046 C 
HETATM   19  C   UNL     1     -43.497  63.042 -62.500  1.00  0.00     0.046 C 
HETATM   20  C   UNL     1     -44.939  60.260 -60.995  1.00  0.00     0.074 C 
BRANCH   9  21
HETATM   21  O   UNL     1     -43.898  60.443 -58.842  1.00  0.00    -0.368 OA
HETATM   22  H   UNL     1     -43.173  61.094 -58.784  1.00  0.00     0.212 HD
ENDBRANCH   9  21
ENDBRANCH   2   3
ENDBRANCH   1   2
BRANCH   1  23
HETATM   23  N   UNL     1     -44.027  56.290 -57.539  1.00  0.00    -0.359 N 
HETATM   24  C   UNL     1     -42.895  56.597 -56.820  1.00  0.00     0.217 C 
HETATM   25  O   UNL     1     -42.569  57.752 -56.568  1.00  0.00    -0.274 OA
HETATM   26  H   UNL     1     -44.151  55.341 -57.868  1.00  0.00     0.162 HD
BRANCH  24  27
HETATM   27  C   UNL     1     -42.098  55.400 -56.334  1.00  0.00     0.107 C 
BRANCH  27  28
HETATM   28  C   UNL     1     -42.804  54.547 -55.277  1.00  0.00     0.048 C 
BRANCH  28  29
HETATM   29  C   UNL     1     -41.977  53.922 -54.170  1.00  0.00    -0.057 A 
HETATM   30  C   UNL     1     -41.324  52.692 -54.297  1.00  0.00     0.018 A 
HETATM   31  C   UNL     1     -40.589  52.098 -53.249  1.00  0.00    -0.016 A 
HETATM   32  C   UNL     1     -40.490  52.846 -52.056  1.00  0.00     0.079 A 
HETATM   33  C   UNL     1     -41.100  54.114 -51.878  1.00  0.00    -0.016 A 
HETATM   34  C   UNL     1     -41.857  54.612 -52.956  1.00  0.00     0.018 A 
BRANCH  31  35
HETATM   35  C   UNL     1     -39.865  50.753 -53.539  1.00  0.00    -0.021 C 
HETATM   36  C   UNL     1     -38.419  51.081 -53.965  1.00  0.00     0.019 C 
HETATM   37  C   UNL     1     -39.799  49.757 -52.360  1.00  0.00     0.019 C 
HETATM   38  C   UNL     1     -40.550  49.964 -54.690  1.00  0.00     0.019 C 
ENDBRANCH  31  35
BRANCH  32  39
HETATM   39  O   UNL     1     -39.742  52.373 -51.017  1.00  0.00    -0.360 OA
HETATM   40  H   UNL     1     -40.214  52.614 -50.204  1.00  0.00     0.217 HD
ENDBRANCH  32  39
BRANCH  33  41
HETATM   41  C   UNL     1     -40.922  54.946 -50.580  1.00  0.00    -0.021 C 
HETATM   42  C   UNL     1     -41.067  56.454 -50.887  1.00  0.00     0.019 C 
HETATM   43  C   UNL     1     -41.975  54.626 -49.487  1.00  0.00     0.019 C 
HETATM   44  C   UNL     1     -39.546  54.670 -49.934  1.00  0.00     0.019 C 
ENDBRANCH  33  41
ENDBRANCH  28  29
ENDBRANCH  27  28
ENDBRANCH  24  27
ENDBRANCH   1  23
TORSDOF 10
ENDMDL
MODEL 10
REMARK VINA RESULT:      -7.4      1.884      4.833
REMARK  10 active torsions:
REMARK  status: ('A' for Active; 'I' for Inactive)
REMARK    1  A    between atoms: N_15  and  C_16 
REMARK    2  A    between atoms: C_16  and  C_17 
REMARK    3  A    between atoms: C_17  and  N_18 
REMARK       I    between atoms: N_18  and  C_19 
REMARK    4  A    between atoms: C_19  and  C_20 
REMARK    5  A    between atoms: C_20  and  C_21 
REMARK    6  A    between atoms: C_21  and  C_22 
REMARK    7  A    between atoms: C_24  and  C_25 
REMARK    8  A    between atoms: C_29  and  O_30 
REMARK    9  A    between atoms: C_31  and  C_32 
REMARK   10  A    between atoms: C_38  and  O_39 
ROOT
HETATM    1  C   UNL     1     -42.126  60.033 -53.823  1.00  0.00     0.142 C 
ENDROOT
BRANCH   1   2
HETATM    2  C   UNL     1     -43.029  60.737 -54.846  1.00  0.00     0.151 C 
BRANCH   2   3
HETATM    3  N   UNL     1     -43.711  59.827 -55.788  1.00  0.00    -0.291 N 
HETATM    4  C   UNL     1     -44.856  59.166 -55.447  1.00  0.00     0.366 A 
HETATM    5  O   UNL     1     -45.367  58.540 -56.537  1.00  0.00    -0.287 OA
HETATM    6  O   UNL     1     -45.370  59.110 -54.346  1.00  0.00    -0.238 OA
HETATM    7  C   UNL     1     -44.564  58.781 -57.741  1.00  0.00     0.126 A 
HETATM    8  C   UNL     1     -44.121  57.360 -58.148  1.00  0.00     0.082 C 
HETATM    9  C   UNL     1     -43.438  59.731 -57.194  1.00  0.00     0.166 A 
HETATM   10  C   UNL     1     -45.592  59.326 -58.755  1.00  0.00     0.082 C 
HETATM   11  C   UNL     1     -43.665  57.189 -59.598  1.00  0.00     0.122 C 
HETATM   12  N   UNL     1     -44.751  57.722 -60.503  1.00  0.00    -0.059 N 
HETATM   13  C   UNL     1     -43.550  55.681 -59.912  1.00  0.00     0.046 C 
HETATM   14  C   UNL     1     -42.319  57.826 -59.944  1.00  0.00     0.046 C 
HETATM   15  C   UNL     1     -45.358  59.084 -60.260  1.00  0.00     0.122 C 
HETATM   16  H   UNL     1     -45.523  57.038 -60.469  1.00  0.00     0.279 HD
HETATM   17  H   UNL     1     -44.426  57.669 -61.481  1.00  0.00     0.279 HD
HETATM   18  C   UNL     1     -46.734  59.061 -60.969  1.00  0.00     0.046 C 
HETATM   19  C   UNL     1     -44.527  60.154 -60.974  1.00  0.00     0.046 C 
HETATM   20  C   UNL     1     -43.337  61.103 -57.847  1.00  0.00     0.074 C 
BRANCH   9  21
HETATM   21  O   UNL     1     -42.181  59.080 -57.281  1.00  0.00    -0.368 OA
HETATM   22  H   UNL     1     -41.937  58.924 -56.348  1.00  0.00     0.212 HD
ENDBRANCH   9  21
ENDBRANCH   2   3
ENDBRANCH   1   2
BRANCH   1  23
HETATM   23  N   UNL     1     -41.400  58.893 -54.362  1.00  0.00    -0.359 N 
HETATM   24  C   UNL     1     -41.768  57.603 -54.058  1.00  0.00     0.217 C 
HETATM   25  O   UNL     1     -42.707  57.345 -53.312  1.00  0.00    -0.274 OA
HETATM   26  H   UNL     1     -40.518  59.047 -54.833  1.00  0.00     0.162 HD
BRANCH  24  27
HETATM   27  C   UNL     1     -40.947  56.522 -54.739  1.00  0.00     0.107 C 
BRANCH  27  28
HETATM   28  C   UNL     1     -41.572  55.125 -54.701  1.00  0.00     0.048 C 
BRANCH  28  29
HETATM   29  C   UNL     1     -41.076  54.131 -53.669  1.00  0.00    -0.057 A 
HETATM   30  C   UNL     1     -40.964  54.425 -52.307  1.00  0.00     0.018 A 
HETATM   31  C   UNL     1     -40.463  53.507 -51.359  1.00  0.00    -0.016 A 
HETATM   32  C   UNL     1     -40.129  52.226 -51.849  1.00  0.00     0.079 A 
HETATM   33  C   UNL     1     -40.254  51.856 -53.213  1.00  0.00    -0.016 A 
HETATM   34  C   UNL     1     -40.713  52.847 -54.101  1.00  0.00     0.018 A 
BRANCH  31  35
HETATM   35  C   UNL     1     -40.442  53.941 -49.866  1.00  0.00    -0.021 C 
HETATM   36  C   UNL     1     -38.998  54.354 -49.518  1.00  0.00     0.019 C 
HETATM   37  C   UNL     1     -41.377  55.113 -49.493  1.00  0.00     0.019 C 
HETATM   38  C   UNL     1     -40.862  52.780 -48.921  1.00  0.00     0.019 C 
ENDBRANCH  31  35
BRANCH  32  39
HETATM   39  O   UNL     1     -39.701  51.259 -50.986  1.00  0.00    -0.360 OA
HETATM   40  H   UNL     1     -39.813  50.410 -51.445  1.00  0.00     0.217 HD
ENDBRANCH  32  39
BRANCH  33  41
HETATM   41  C   UNL     1     -39.942  50.421 -53.715  1.00  0.00    -0.021 C 
HETATM   42  C   UNL     1     -38.700  50.434 -54.635  1.00  0.00     0.019 C 
HETATM   43  C   UNL     1     -39.621  49.419 -52.574  1.00  0.00     0.019 C 
HETATM   44  C   UNL     1     -41.151  49.826 -54.470  1.00  0.00     0.019 C 
ENDBRANCH  33  41
ENDBRANCH  28  29
ENDBRANCH  27  28
ENDBRANCH  24  27
ENDBRANCH   1  23
TORSDOF 10
ENDMDL
