MODEL 1
REMARK VINA RESULT:      -7.0      0.000      0.000
REMARK  3 active torsions:
REMARK  status: ('A' for Active; 'I' for Inactive)
REMARK       I    between atoms: C_2  and  N_3 
REMARK    1  A    between atoms: N_3  and  C_4 
REMARK    2  A    between atoms: C_7  and  N_8 
REMARK       I    between atoms: N_8  and  C_9 
REMARK    3  A    between atoms: C_9  and  C_10 
ROOT
HETATM    1  C   UNL     1     -40.608  52.977 -53.351  1.00  0.00     0.034 A 
HETATM    2  C   UNL     1     -41.926  53.438 -53.278  1.00  0.00     0.032 A 
HETATM    3  C   UNL     1     -42.473  54.224 -54.300  1.00  0.00     0.032 A 
HETATM    4  C   UNL     1     -41.708  54.563 -55.414  1.00  0.00     0.035 A 
HETATM    5  C   UNL     1     -40.381  54.129 -55.474  1.00  0.00     0.032 A 
HETATM    6  C   UNL     1     -39.835  53.340 -54.453  1.00  0.00     0.032 A 
ENDROOT
BRANCH   4   7
HETATM    7  N   UNL     1     -42.196  55.298 -56.507  1.00  0.00    -0.322 N 
HETATM    8  C   UNL     1     -42.491  56.646 -56.569  1.00  0.00     0.274 C 
HETATM    9  O   UNL     1     -42.308  57.490 -55.700  1.00  0.00    -0.266 OA
HETATM   10  H   UNL     1     -42.425  54.783 -57.354  1.00  0.00     0.169 HD
BRANCH   8  11
HETATM   11  C   UNL     1     -43.125  57.040 -57.871  1.00  0.00     0.126 A 
HETATM   12  N   UNL     1     -43.111  58.374 -58.163  1.00  0.00    -0.255 NA
HETATM   13  C   UNL     1     -43.646  58.741 -59.347  1.00  0.00     0.119 A 
HETATM   14  C   UNL     1     -44.190  57.846 -60.250  1.00  0.00     0.043 A 
HETATM   15  C   UNL     1     -44.186  56.498 -59.914  1.00  0.00     0.037 A 
HETATM   16 CL   UNL     1     -44.844  55.347 -61.011  1.00  0.00    -0.084 Cl
HETATM   17  C   UNL     1     -43.651  56.070 -58.709  1.00  0.00     0.061 A 
ENDBRANCH   8  11
ENDBRANCH   4   7
BRANCH   1  18
HETATM   18  N   UNL     1     -40.153  52.152 -52.304  1.00  0.00    -0.328 N 
HETATM   19  C   UNL     1     -39.745  50.832 -52.387  1.00  0.00     0.218 C 
HETATM   20  C   UNL     1     -39.392  50.268 -51.033  1.00  0.00     0.117 C 
HETATM   21  O   UNL     1     -39.672  50.141 -53.397  1.00  0.00    -0.274 OA
HETATM   22  H   UNL     1     -40.158  52.567 -51.380  1.00  0.00     0.169 HD
ENDBRANCH   1  18
TORSDOF 3
ENDMDL
MODEL 2
REMARK VINA RESULT:      -6.9      2.534      3.005
REMARK  3 active torsions:
REMARK  status: ('A' for Active; 'I' for Inactive)
REMARK       I    between atoms: C_2  and  N_3 
REMARK    1  A    between atoms: N_3  and  C_4 
REMARK    2  A    between atoms: C_7  and  N_8 
REMARK       I    between atoms: N_8  and  C_9 
REMARK    3  A    between atoms: C_9  and  C_10 
ROOT
HETATM    1  C   UNL     1     -41.450  54.111 -52.817  1.00  0.00     0.034 A 
HETATM    2  C   UNL     1     -40.626  54.107 -53.947  1.00  0.00     0.032 A 
HETATM    3  C   UNL     1     -41.154  54.331 -55.225  1.00  0.00     0.032 A 
HETATM    4  C   UNL     1     -42.518  54.562 -55.393  1.00  0.00     0.035 A 
HETATM    5  C   UNL     1     -43.347  54.536 -54.268  1.00  0.00     0.032 A 
HETATM    6  C   UNL     1     -42.818  54.315 -52.990  1.00  0.00     0.032 A 
ENDROOT
BRANCH   4   7
HETATM    7  N   UNL     1     -43.118  54.851 -56.630  1.00  0.00    -0.322 N 
HETATM    8  C   UNL     1     -43.063  56.026 -57.355  1.00  0.00     0.274 C 
HETATM    9  O   UNL     1     -42.408  57.029 -57.098  1.00  0.00    -0.266 OA
HETATM   10  H   UNL     1     -43.724  54.141 -57.036  1.00  0.00     0.169 HD
BRANCH   8  11
HETATM   11  C   UNL     1     -43.949  56.001 -58.565  1.00  0.00     0.126 A 
HETATM   12  N   UNL     1     -43.973  54.829 -59.265  1.00  0.00    -0.255 NA
HETATM   13  C   UNL     1     -44.791  54.779 -60.338  1.00  0.00     0.119 A 
HETATM   14  C   UNL     1     -45.586  55.836 -60.743  1.00  0.00     0.043 A 
HETATM   15  C   UNL     1     -45.532  57.012 -60.003  1.00  0.00     0.037 A 
HETATM   16 CL   UNL     1     -46.510  58.350 -60.464  1.00  0.00    -0.084 Cl
HETATM   17  C   UNL     1     -44.704  57.114 -58.896  1.00  0.00     0.061 A 
ENDBRANCH   8  11
ENDBRANCH   4   7
BRANCH   1  18
HETATM   18  N   UNL     1     -40.831  53.926 -51.565  1.00  0.00    -0.328 N 
HETATM   19  C   UNL     1     -40.624  54.875 -50.579  1.00  0.00     0.218 C 
HETATM   20  C   UNL     1     -39.864  54.306 -49.406  1.00  0.00     0.117 C 
HETATM   21  O   UNL     1     -40.970  56.050 -50.597  1.00  0.00    -0.274 OA
HETATM   22  H   UNL     1     -40.469  52.998 -51.385  1.00  0.00     0.169 HD
ENDBRANCH   1  18
TORSDOF 3
ENDMDL
MODEL 3
REMARK VINA RESULT:      -6.8     14.455     17.222
REMARK  3 active torsions:
REMARK  status: ('A' for Active; 'I' for Inactive)
REMARK       I    between atoms: C_2  and  N_3 
REMARK    1  A    between atoms: N_3  and  C_4 
REMARK    2  A    between atoms: C_7  and  N_8 
REMARK       I    between atoms: N_8  and  C_9 
REMARK    3  A    between atoms: C_9  and  C_10 
ROOT
HETATM    1  C   UNL     1     -36.521  42.154 -57.433  1.00  0.00     0.034 A 
HETATM    2  C   UNL     1     -37.573  41.781 -56.590  1.00  0.00     0.032 A 
HETATM    3  C   UNL     1     -37.323  41.252 -55.317  1.00  0.00     0.032 A 
HETATM    4  C   UNL     1     -36.015  41.087 -54.867  1.00  0.00     0.035 A 
HETATM    5  C   UNL     1     -34.964  41.432 -55.720  1.00  0.00     0.032 A 
HETATM    6  C   UNL     1     -35.213  41.963 -56.992  1.00  0.00     0.032 A 
ENDROOT
BRANCH   4   7
HETATM    7  N   UNL     1     -35.679  40.619 -53.586  1.00  0.00    -0.322 N 
HETATM    8  C   UNL     1     -35.354  41.355 -52.463  1.00  0.00     0.274 C 
HETATM    9  O   UNL     1     -35.373  42.575 -52.341  1.00  0.00    -0.266 OA
HETATM   10  H   UNL     1     -35.602  39.612 -53.459  1.00  0.00     0.169 HD
BRANCH   8  11
HETATM   11  C   UNL     1     -34.918  40.496 -51.314  1.00  0.00     0.126 A 
HETATM   12  N   UNL     1     -35.829  39.580 -50.872  1.00  0.00    -0.255 NA
HETATM   13  C   UNL     1     -35.440  38.776 -49.860  1.00  0.00     0.119 A 
HETATM   14  C   UNL     1     -34.189  38.837 -49.273  1.00  0.00     0.043 A 
HETATM   15  C   UNL     1     -33.291  39.784 -49.752  1.00  0.00     0.037 A 
HETATM   16 CL   UNL     1     -31.720  39.891 -49.057  1.00  0.00    -0.084 Cl
HETATM   17  C   UNL     1     -33.645  40.636 -50.786  1.00  0.00     0.061 A 
ENDBRANCH   8  11
ENDBRANCH   4   7
BRANCH   1  18
HETATM   18  N   UNL     1     -36.861  42.722 -58.677  1.00  0.00    -0.328 N 
HETATM   19  C   UNL     1     -37.227  42.059 -59.835  1.00  0.00     0.218 C 
HETATM   20  C   UNL     1     -37.449  43.014 -60.981  1.00  0.00     0.117 C 
HETATM   21  O   UNL     1     -37.356  40.849 -59.987  1.00  0.00    -0.274 OA
HETATM   22  H   UNL     1     -36.797  43.731 -58.734  1.00  0.00     0.169 HD
ENDBRANCH   1  18
TORSDOF 3
ENDMDL
MODEL 4
REMARK VINA RESULT:      -6.7      2.962      8.136
REMARK  3 active torsions:
REMARK  status: ('A' for Active; 'I' for Inactive)
REMARK       I    between atoms: C_2  and  N_3 
REMARK    1  A    between atoms: N_3  and  C_4 
REMARK    2  A    between atoms: C_7  and  N_8 
REMARK       I    between atoms: N_8  and  C_9 
REMARK    3  A    between atoms: C_9  and  C_10 
ROOT
HETATM    1  C   UNL     1     -43.542  57.575 -58.276  1.00  0.00     0.034 A 
HETATM    2  C   UNL     1     -42.930  58.021 -57.101  1.00  0.00     0.032 A 
HETATM    3  C   UNL     1     -42.374  57.114 -56.189  1.00  0.00     0.032 A 
HETATM    4  C   UNL     1     -42.423  55.744 -56.440  1.00  0.00     0.035 A 
HETATM    5  C   UNL     1     -43.060  55.296 -57.600  1.00  0.00     0.032 A 
HETATM    6  C   UNL     1     -43.614  56.203 -58.513  1.00  0.00     0.032 A 
ENDROOT
BRANCH   4   7
HETATM    7  N   UNL     1     -41.840  54.773 -55.609  1.00  0.00    -0.322 N 
HETATM    8  C   UNL     1     -42.323  54.263 -54.419  1.00  0.00     0.274 C 
HETATM    9  O   UNL     1     -43.403  54.501 -53.891  1.00  0.00    -0.266 OA
HETATM   10  H   UNL     1     -40.917  54.429 -55.863  1.00  0.00     0.169 HD
BRANCH   8  11
HETATM   11  C   UNL     1     -41.350  53.340 -53.747  1.00  0.00     0.126 A 
HETATM   12  N   UNL     1     -40.964  53.693 -52.486  1.00  0.00    -0.255 NA
HETATM   13  C   UNL     1     -40.115  52.855 -51.855  1.00  0.00     0.119 A 
HETATM   14  C   UNL     1     -39.638  51.684 -52.416  1.00  0.00     0.043 A 
HETATM   15  C   UNL     1     -40.056  51.361 -53.701  1.00  0.00     0.037 A 
HETATM   16 CL   UNL     1     -39.495  49.910 -54.437  1.00  0.00    -0.084 Cl
HETATM   17  C   UNL     1     -40.923  52.192 -54.394  1.00  0.00     0.061 A 
ENDBRANCH   8  11
ENDBRANCH   4   7
BRANCH   1  18
HETATM   18  N   UNL     1     -44.032  58.556 -59.161  1.00  0.00    -0.328 N 
HETATM   19  C   UNL     1     -43.385  59.103 -60.255  1.00  0.00     0.218 C 
HETATM   20  C   UNL     1     -44.212  60.178 -60.916  1.00  0.00     0.117 C 
HETATM   21  O   UNL     1     -42.273  58.813 -60.680  1.00  0.00    -0.274 OA
HETATM   22  H   UNL     1     -44.952  58.923 -58.948  1.00  0.00     0.169 HD
ENDBRANCH   1  18
TORSDOF 3
ENDMDL
MODEL 5
REMARK VINA RESULT:      -6.6      4.990      5.712
REMARK  3 active torsions:
REMARK  status: ('A' for Active; 'I' for Inactive)
REMARK       I    between atoms: C_2  and  N_3 
REMARK    1  A    between atoms: N_3  and  C_4 
REMARK    2  A    between atoms: C_7  and  N_8 
REMARK       I    between atoms: N_8  and  C_9 
REMARK    3  A    between atoms: C_9  and  C_10 
ROOT
HETATM    1  C   UNL     1     -40.671  53.381 -54.007  1.00  0.00     0.034 A 
HETATM    2  C   UNL     1     -41.428  53.656 -52.864  1.00  0.00     0.032 A 
HETATM    3  C   UNL     1     -41.771  54.971 -52.525  1.00  0.00     0.032 A 
HETATM    4  C   UNL     1     -41.360  56.035 -53.327  1.00  0.00     0.035 A 
HETATM    5  C   UNL     1     -40.578  55.763 -54.452  1.00  0.00     0.032 A 
HETATM    6  C   UNL     1     -40.237  54.448 -54.792  1.00  0.00     0.032 A 
ENDROOT
BRANCH   4   7
HETATM    7  N   UNL     1     -41.708  57.375 -53.091  1.00  0.00    -0.322 N 
HETATM    8  C   UNL     1     -41.326  58.187 -52.041  1.00  0.00     0.274 C 
HETATM    9  O   UNL     1     -40.536  57.920 -51.143  1.00  0.00    -0.266 OA
HETATM   10  H   UNL     1     -42.373  57.807 -53.729  1.00  0.00     0.169 HD
BRANCH   8  11
HETATM   11  C   UNL     1     -42.014  59.520 -52.059  1.00  0.00     0.126 A 
HETATM   12  N   UNL     1     -42.111  60.127 -53.278  1.00  0.00    -0.255 NA
HETATM   13  C   UNL     1     -42.758  61.310 -53.317  1.00  0.00     0.119 A 
HETATM   14  C   UNL     1     -43.315  61.914 -52.203  1.00  0.00     0.043 A 
HETATM   15  C   UNL     1     -43.194  61.264 -50.981  1.00  0.00     0.037 A 
HETATM   16 CL   UNL     1     -43.878  61.973 -49.571  1.00  0.00    -0.084 Cl
HETATM   17  C   UNL     1     -42.534  60.048 -50.889  1.00  0.00     0.061 A 
ENDBRANCH   8  11
ENDBRANCH   4   7
BRANCH   1  18
HETATM   18  N   UNL     1     -40.412  52.027 -54.300  1.00  0.00    -0.328 N 
HETATM   19  C   UNL     1     -39.684  51.125 -53.544  1.00  0.00     0.218 C 
HETATM   20  C   UNL     1     -39.573  49.785 -54.226  1.00  0.00     0.117 C 
HETATM   21  O   UNL     1     -39.153  51.327 -52.458  1.00  0.00    -0.274 OA
HETATM   22  H   UNL     1     -40.776  51.690 -55.183  1.00  0.00     0.169 HD
ENDBRANCH   1  18
TORSDOF 3
ENDMDL
MODEL 6
REMARK VINA RESULT:      -6.6      4.992      8.294
REMARK  3 active torsions:
REMARK  status: ('A' for Active; 'I' for Inactive)
REMARK       I    between atoms: C_2  and  N_3 
REMARK    1  A    between atoms: N_3  and  C_4 
REMARK    2  A    between atoms: C_7  and  N_8 
REMARK       I    between atoms: N_8  and  C_9 
REMARK    3  A    between atoms: C_9  and  C_10 
ROOT
HETATM    1  C   UNL     1     -43.750  58.790 -51.539  1.00  0.00     0.034 A 
HETATM    2  C   UNL     1     -42.363  58.826 -51.371  1.00  0.00     0.032 A 
HETATM    3  C   UNL     1     -41.592  57.661 -51.480  1.00  0.00     0.032 A 
HETATM    4  C   UNL     1     -42.200  56.439 -51.759  1.00  0.00     0.035 A 
HETATM    5  C   UNL     1     -43.590  56.396 -51.897  1.00  0.00     0.032 A 
HETATM    6  C   UNL     1     -44.360  57.561 -51.791  1.00  0.00     0.032 A 
ENDROOT
BRANCH   4   7
HETATM    7  N   UNL     1     -41.496  55.237 -51.940  1.00  0.00    -0.322 N 
HETATM    8  C   UNL     1     -41.161  54.611 -53.125  1.00  0.00     0.274 C 
HETATM    9  O   UNL     1     -41.344  55.026 -54.264  1.00  0.00    -0.266 OA
HETATM   10  H   UNL     1     -41.242  54.710 -51.107  1.00  0.00     0.169 HD
BRANCH   8  11
HETATM   11  C   UNL     1     -40.528  53.268 -52.913  1.00  0.00     0.126 A 
HETATM   12  N   UNL     1     -40.017  53.038 -51.668  1.00  0.00    -0.255 NA
HETATM   13  C   UNL     1     -39.474  51.822 -51.450  1.00  0.00     0.119 A 
HETATM   14  C   UNL     1     -39.420  50.825 -52.408  1.00  0.00     0.043 A 
HETATM   15  C   UNL     1     -39.951  51.100 -53.663  1.00  0.00     0.037 A 
HETATM   16 CL   UNL     1     -39.914  49.889 -54.884  1.00  0.00    -0.084 Cl
HETATM   17  C   UNL     1     -40.515  52.336 -53.938  1.00  0.00     0.061 A 
ENDBRANCH   8  11
ENDBRANCH   4   7
BRANCH   1  18
HETATM   18  N   UNL     1     -44.443  60.014 -51.461  1.00  0.00    -0.328 N 
HETATM   19  C   UNL     1     -45.538  60.314 -50.670  1.00  0.00     0.218 C 
HETATM   20  C   UNL     1     -46.041  61.715 -50.918  1.00  0.00     0.117 C 
HETATM   21  O   UNL     1     -46.092  59.579 -49.861  1.00  0.00    -0.274 OA
HETATM   22  H   UNL     1     -44.118  60.745 -52.082  1.00  0.00     0.169 HD
ENDBRANCH   1  18
TORSDOF 3
ENDMDL
MODEL 7
REMARK VINA RESULT:      -6.5      4.698      5.487
REMARK  3 active torsions:
REMARK  status: ('A' for Active; 'I' for Inactive)
REMARK       I    between atoms: C_2  and  N_3 
REMARK    1  A    between atoms: N_3  and  C_4 
REMARK    2  A    between atoms: C_7  and  N_8 
REMARK       I    between atoms: N_8  and  C_9 
REMARK    3  A    between atoms: C_9  and  C_10 
ROOT
HETATM    1  C   UNL     1     -40.667  53.365 -53.976  1.00  0.00     0.034 A 
HETATM    2  C   UNL     1     -41.394  53.603 -52.806  1.00  0.00     0.032 A 
HETATM    3  C   UNL     1     -41.739  54.906 -52.424  1.00  0.00     0.032 A 
HETATM    4  C   UNL     1     -41.360  55.993 -53.209  1.00  0.00     0.035 A 
HETATM    5  C   UNL     1     -40.607  55.758 -54.362  1.00  0.00     0.032 A 
HETATM    6  C   UNL     1     -40.264  54.455 -54.745  1.00  0.00     0.032 A 
ENDROOT
BRANCH   4   7
HETATM    7  N   UNL     1     -41.713  57.324 -52.929  1.00  0.00    -0.322 N 
HETATM    8  C   UNL     1     -41.367  58.089 -51.832  1.00  0.00     0.274 C 
HETATM    9  O   UNL     1     -40.611  57.782 -50.918  1.00  0.00    -0.266 OA
HETATM   10  H   UNL     1     -42.354  57.785 -53.571  1.00  0.00     0.169 HD
BRANCH   8  11
HETATM   11  C   UNL     1     -42.052  59.424 -51.818  1.00  0.00     0.126 A 
HETATM   12  N   UNL     1     -42.361  59.925 -50.587  1.00  0.00    -0.255 NA
HETATM   13  C   UNL     1     -42.946  61.141 -50.555  1.00  0.00     0.119 A 
HETATM   14  C   UNL     1     -43.234  61.881 -51.688  1.00  0.00     0.043 A 
HETATM   15  C   UNL     1     -42.903  61.334 -52.923  1.00  0.00     0.037 A 
HETATM   16 CL   UNL     1     -43.234  62.222 -54.359  1.00  0.00    -0.084 Cl
HETATM   17  C   UNL     1     -42.305  60.087 -53.008  1.00  0.00     0.061 A 
ENDBRANCH   8  11
ENDBRANCH   4   7
BRANCH   1  18
HETATM   18  N   UNL     1     -40.404  52.021 -54.311  1.00  0.00    -0.328 N 
HETATM   19  C   UNL     1     -39.661  51.103 -53.590  1.00  0.00     0.218 C 
HETATM   20  C   UNL     1     -39.551  49.783 -54.311  1.00  0.00     0.117 C 
HETATM   21  O   UNL     1     -39.118  51.276 -52.505  1.00  0.00    -0.274 OA
HETATM   22  H   UNL     1     -40.777  51.707 -55.198  1.00  0.00     0.169 HD
ENDBRANCH   1  18
TORSDOF 3
ENDMDL
MODEL 8
REMARK VINA RESULT:      -6.4      1.931      2.154
REMARK  3 active torsions:
REMARK  status: ('A' for Active; 'I' for Inactive)
REMARK       I    between atoms: C_2  and  N_3 
REMARK    1  A    between atoms: N_3  and  C_4 
REMARK    2  A    between atoms: C_7  and  N_8 
REMARK       I    between atoms: N_8  and  C_9 
REMARK    3  A    between atoms: C_9  and  C_10 
ROOT
HETATM    1  C   UNL     1     -40.519  52.949 -53.414  1.00  0.00     0.034 A 
HETATM    2  C   UNL     1     -41.631  53.690 -53.003  1.00  0.00     0.032 A 
HETATM    3  C   UNL     1     -42.147  54.718 -53.802  1.00  0.00     0.032 A 
HETATM    4  C   UNL     1     -41.556  55.023 -55.026  1.00  0.00     0.035 A 
HETATM    5  C   UNL     1     -40.426  54.303 -55.424  1.00  0.00     0.032 A 
HETATM    6  C   UNL     1     -39.912  53.273 -54.626  1.00  0.00     0.032 A 
ENDROOT
BRANCH   4   7
HETATM    7  N   UNL     1     -42.044  55.998 -55.912  1.00  0.00    -0.322 N 
HETATM    8  C   UNL     1     -42.845  55.822 -57.023  1.00  0.00     0.274 C 
HETATM    9  O   UNL     1     -43.360  54.780 -57.412  1.00  0.00    -0.266 OA
HETATM   10  H   UNL     1     -41.732  56.957 -55.773  1.00  0.00     0.169 HD
BRANCH   8  11
HETATM   11  C   UNL     1     -43.044  57.089 -57.801  1.00  0.00     0.126 A 
HETATM   12  N   UNL     1     -44.144  57.129 -58.609  1.00  0.00    -0.255 NA
HETATM   13  C   UNL     1     -44.356  58.275 -59.289  1.00  0.00     0.119 A 
HETATM   14  C   UNL     1     -43.529  59.381 -59.200  1.00  0.00     0.043 A 
HETATM   15  C   UNL     1     -42.420  59.299 -58.367  1.00  0.00     0.037 A 
HETATM   16 CL   UNL     1     -41.368  60.653 -58.219  1.00  0.00    -0.084 Cl
HETATM   17  C   UNL     1     -42.156  58.142 -57.651  1.00  0.00     0.061 A 
ENDBRANCH   8  11
ENDBRANCH   4   7
BRANCH   1  18
HETATM   18  N   UNL     1     -40.095  51.900 -52.573  1.00  0.00    -0.328 N 
HETATM   19  C   UNL     1     -39.863  50.581 -52.922  1.00  0.00     0.218 C 
HETATM   20  C   UNL     1     -39.485  49.744 -51.726  1.00  0.00     0.117 C 
HETATM   21  O   UNL     1     -39.952  50.083 -54.039  1.00  0.00    -0.274 OA
HETATM   22  H   UNL     1     -39.979  52.138 -51.596  1.00  0.00     0.169 HD
ENDBRANCH   1  18
TORSDOF 3
ENDMDL
MODEL 9
REMARK VINA RESULT:      -6.4     14.674     18.062
REMARK  3 active torsions:
REMARK  status: ('A' for Active; 'I' for Inactive)
REMARK       I    between atoms: C_2  and  N_3 
REMARK    1  A    between atoms: N_3  and  C_4 
REMARK    2  A    between atoms: C_7  and  N_8 
REMARK       I    between atoms: N_8  and  C_9 
REMARK    3  A    between atoms: C_9  and  C_10 
ROOT
HETATM    1  C   UNL     1     -35.608  41.978 -57.072  1.00  0.00     0.034 A 
HETATM    2  C   UNL     1     -36.328  42.215 -55.896  1.00  0.00     0.032 A 
HETATM    3  C   UNL     1     -35.846  41.776 -54.656  1.00  0.00     0.032 A 
HETATM    4  C   UNL     1     -34.636  41.092 -54.572  1.00  0.00     0.035 A 
HETATM    5  C   UNL     1     -33.931  40.829 -55.750  1.00  0.00     0.032 A 
HETATM    6  C   UNL     1     -34.411  41.269 -56.990  1.00  0.00     0.032 A 
ENDROOT
BRANCH   4   7
HETATM    7  N   UNL     1     -34.055  40.669 -53.365  1.00  0.00    -0.322 N 
HETATM    8  C   UNL     1     -33.984  39.389 -52.851  1.00  0.00     0.274 C 
HETATM    9  O   UNL     1     -34.347  38.349 -53.389  1.00  0.00    -0.266 OA
HETATM   10  H   UNL     1     -33.685  41.386 -52.745  1.00  0.00     0.169 HD
BRANCH   8  11
HETATM   11  C   UNL     1     -33.409  39.352 -51.466  1.00  0.00     0.126 A 
HETATM   12  N   UNL     1     -32.162  39.889 -51.321  1.00  0.00    -0.255 NA
HETATM   13  C   UNL     1     -31.645  39.895 -50.075  1.00  0.00     0.119 A 
HETATM   14  C   UNL     1     -32.309  39.397 -48.969  1.00  0.00     0.043 A 
HETATM   15  C   UNL     1     -33.576  38.858 -49.159  1.00  0.00     0.037 A 
HETATM   16 CL   UNL     1     -34.444  38.233 -47.811  1.00  0.00    -0.084 Cl
HETATM   17  C   UNL     1     -34.149  38.825 -50.420  1.00  0.00     0.061 A 
ENDBRANCH   8  11
ENDBRANCH   4   7
BRANCH   1  18
HETATM   18  N   UNL     1     -36.140  42.495 -58.270  1.00  0.00    -0.328 N 
HETATM   19  C   UNL     1     -37.153  41.957 -59.044  1.00  0.00     0.218 C 
HETATM   20  C   UNL     1     -37.395  42.768 -60.293  1.00  0.00     0.117 C 
HETATM   21  O   UNL     1     -37.801  40.943 -58.816  1.00  0.00    -0.274 OA
HETATM   22  H   UNL     1     -35.705  43.342 -58.617  1.00  0.00     0.169 HD
ENDBRANCH   1  18
TORSDOF 3
ENDMDL
MODEL 10
REMARK VINA RESULT:      -6.4      2.438      2.525
REMARK  3 active torsions:
REMARK  status: ('A' for Active; 'I' for Inactive)
REMARK       I    between atoms: C_2  and  N_3 
REMARK    1  A    between atoms: N_3  and  C_4 
REMARK    2  A    between atoms: C_7  and  N_8 
REMARK       I    between atoms: N_8  and  C_9 
REMARK    3  A    between atoms: C_9  and  C_10 
ROOT
HETATM    1  C   UNL     1     -40.663  54.498 -51.934  1.00  0.00     0.034 A 
HETATM    2  C   UNL     1     -40.960  55.853 -52.113  1.00  0.00     0.032 A 
HETATM    3  C   UNL     1     -41.287  56.358 -53.378  1.00  0.00     0.032 A 
HETATM    4  C   UNL     1     -41.322  55.514 -54.486  1.00  0.00     0.035 A 
HETATM    5  C   UNL     1     -40.995  54.167 -54.314  1.00  0.00     0.032 A 
HETATM    6  C   UNL     1     -40.670  53.661 -53.049  1.00  0.00     0.032 A 
ENDROOT
BRANCH   4   7
HETATM    7  N   UNL     1     -41.695  55.928 -55.776  1.00  0.00    -0.322 N 
HETATM    8  C   UNL     1     -42.910  56.433 -56.195  1.00  0.00     0.274 C 
HETATM    9  O   UNL     1     -43.886  56.697 -55.502  1.00  0.00    -0.266 OA
HETATM   10  H   UNL     1     -41.021  55.793 -56.526  1.00  0.00     0.169 HD
BRANCH   8  11
HETATM   11  C   UNL     1     -42.973  56.632 -57.680  1.00  0.00     0.126 A 
HETATM   12  N   UNL     1     -42.233  57.666 -58.178  1.00  0.00    -0.255 NA
HETATM   13  C   UNL     1     -42.252  57.837 -59.516  1.00  0.00     0.119 A 
HETATM   14  C   UNL     1     -42.968  57.028 -60.381  1.00  0.00     0.043 A 
HETATM   15  C   UNL     1     -43.709  55.987 -59.834  1.00  0.00     0.037 A 
HETATM   16 CL   UNL     1     -44.609  54.951 -60.871  1.00  0.00    -0.084 Cl
HETATM   17  C   UNL     1     -43.726  55.773 -58.465  1.00  0.00     0.061 A 
ENDBRANCH   8  11
ENDBRANCH   4   7
BRANCH   1  18
HETATM   18  N   UNL     1     -40.391  54.064 -50.621  1.00  0.00    -0.328 N 
HETATM   19  C   UNL     1     -41.234  54.118 -49.525  1.00  0.00     0.218 C 
HETATM   20  C   UNL     1     -40.557  53.618 -48.273  1.00  0.00     0.117 C 
HETATM   21  O   UNL     1     -42.390  54.525 -49.498  1.00  0.00    -0.274 OA
HETATM   22  H   UNL     1     -39.460  53.702 -50.460  1.00  0.00     0.169 HD
ENDBRANCH   1  18
TORSDOF 3
ENDMDL
