MODEL 1
REMARK VINA RESULT:      -8.1      0.000      0.000
REMARK  8 active torsions:
REMARK  status: ('A' for Active; 'I' for Inactive)
REMARK    1  A    between atoms: C_2  and  C_3 
REMARK    2  A    between atoms: C_3  and  O_4 
REMARK    3  A    between atoms: O_4  and  C_5 
REMARK    4  A    between atoms: C_6  and  C_7 
REMARK    5  A    between atoms: C_11  and  C_12 
REMARK       I    between atoms: C_12  and  N_13 
REMARK    6  A    between atoms: N_13  and  N_14 
REMARK    7  A    between atoms: C_15  and  C_16 
REMARK    8  A    between atoms: C_19  and  N_20 
ROOT
HETATM    1  C   UNL     1     -40.760  53.289 -54.477  1.00  0.00     0.092 A 
HETATM    2  N   UNL     1     -39.879  54.183 -54.960  1.00  0.00    -0.174 NA
HETATM    3  N   UNL     1     -40.632  55.102 -55.579  1.00  0.00    -0.272 N 
HETATM    4  H   UNL     1     -40.177  55.887 -56.036  1.00  0.00     0.189 HD
HETATM    5  C   UNL     1     -41.976  54.871 -55.509  1.00  0.00     0.121 A 
HETATM    6  C   UNL     1     -42.089  53.698 -54.791  1.00  0.00     0.071 A 
ENDROOT
BRANCH   5   7
HETATM    7  C   UNL     1     -42.917  55.781 -56.114  1.00  0.00     0.289 C 
HETATM    8  N   UNL     1     -42.856  55.846 -57.498  1.00  0.00    -0.242 N 
HETATM    9  H   UNL     1     -42.187  55.287 -58.009  1.00  0.00     0.192 HD
HETATM   10  O   UNL     1     -43.701  56.428 -55.424  1.00  0.00    -0.264 OA
BRANCH   8  11
HETATM   11  N   UNL     1     -43.728  56.643 -58.180  1.00  0.00    -0.184 NA
HETATM   12  C   UNL     1     -44.513  56.038 -59.015  1.00  0.00     0.150 C 
BRANCH  12  13
HETATM   13  C   UNL     1     -45.519  56.780 -59.800  1.00  0.00    -0.017 A 
HETATM   14  C   UNL     1     -45.433  58.162 -59.955  1.00  0.00     0.015 A 
HETATM   15  C   UNL     1     -46.414  58.848 -60.681  1.00  0.00     0.030 A 
HETATM   16  C   UNL     1     -47.495  58.180 -61.281  1.00  0.00     0.029 A 
HETATM   17  C   UNL     1     -47.555  56.785 -61.099  1.00  0.00     0.030 A 
HETATM   18  C   UNL     1     -46.583  56.086 -60.372  1.00  0.00     0.015 A 
BRANCH  16  19
HETATM   19  N   UNL     1     -48.509  58.842 -61.991  1.00  0.00    -0.390 N 
HETATM   20  C   UNL     1     -49.177  59.919 -61.253  1.00  0.00     0.149 C 
HETATM   21  C   UNL     1     -49.402  58.043 -62.831  1.00  0.00     0.149 C 
ENDBRANCH  16  19
ENDBRANCH  12  13
ENDBRANCH   8  11
ENDBRANCH   5   7
BRANCH   1  22
HETATM   22  C   UNL     1     -40.308  52.114 -53.713  1.00  0.00     0.028 A 
HETATM   23  C   UNL     1     -39.985  52.161 -52.340  1.00  0.00     0.081 A 
HETATM   24  C   UNL     1     -39.554  50.990 -51.695  1.00  0.00     0.038 A 
HETATM   25  C   UNL     1     -39.452  49.783 -52.390  1.00  0.00     0.003 A 
HETATM   26  C   UNL     1     -39.777  49.728 -53.739  1.00  0.00     0.001 A 
HETATM   27  C   UNL     1     -40.202  50.883 -54.392  1.00  0.00     0.017 A 
BRANCH  23  28
HETATM   28  O   UNL     1     -40.117  53.368 -51.699  1.00  0.00    -0.350 OA
BRANCH  28  29
HETATM   29  C   UNL     1     -41.009  53.442 -50.586  1.00  0.00     0.175 C 
BRANCH  29  30
HETATM   30  C   UNL     1     -42.022  54.546 -50.876  1.00  0.00     0.022 C 
HETATM   31  C   UNL     1     -43.310  53.991 -51.456  1.00  0.00     0.007 C 
ENDBRANCH  29  30
ENDBRANCH  28  29
ENDBRANCH  23  28
ENDBRANCH   1  22
TORSDOF 8
ENDMDL
MODEL 2
REMARK VINA RESULT:      -7.6      5.577      7.031
REMARK  8 active torsions:
REMARK  status: ('A' for Active; 'I' for Inactive)
REMARK    1  A    between atoms: C_2  and  C_3 
REMARK    2  A    between atoms: C_3  and  O_4 
REMARK    3  A    between atoms: O_4  and  C_5 
REMARK    4  A    between atoms: C_6  and  C_7 
REMARK    5  A    between atoms: C_11  and  C_12 
REMARK       I    between atoms: C_12  and  N_13 
REMARK    6  A    between atoms: N_13  and  N_14 
REMARK    7  A    between atoms: C_15  and  C_16 
REMARK    8  A    between atoms: C_19  and  N_20 
ROOT
HETATM    1  C   UNL     1     -40.498  53.624 -53.874  1.00  0.00     0.092 A 
HETATM    2  N   UNL     1     -40.023  54.161 -55.012  1.00  0.00    -0.174 NA
HETATM    3  N   UNL     1     -40.490  55.417 -55.016  1.00  0.00    -0.272 N 
HETATM    4  H   UNL     1     -40.262  56.026 -55.797  1.00  0.00     0.189 HD
HETATM    5  C   UNL     1     -41.234  55.746 -53.919  1.00  0.00     0.121 A 
HETATM    6  C   UNL     1     -41.251  54.597 -53.155  1.00  0.00     0.071 A 
ENDROOT
BRANCH   5   7
HETATM    7  C   UNL     1     -41.791  57.067 -53.771  1.00  0.00     0.289 C 
HETATM    8  N   UNL     1     -42.175  57.396 -52.479  1.00  0.00    -0.242 N 
HETATM    9  H   UNL     1     -42.062  56.731 -51.725  1.00  0.00     0.192 HD
HETATM   10  O   UNL     1     -41.896  57.820 -54.736  1.00  0.00    -0.264 OA
BRANCH   8  11
HETATM   11  N   UNL     1     -42.677  58.636 -52.213  1.00  0.00    -0.184 NA
HETATM   12  C   UNL     1     -43.740  58.671 -51.475  1.00  0.00     0.150 C 
BRANCH  12  13
HETATM   13  C   UNL     1     -44.371  59.950 -51.093  1.00  0.00    -0.017 A 
HETATM   14  C   UNL     1     -43.670  60.905 -50.360  1.00  0.00     0.015 A 
HETATM   15  C   UNL     1     -44.297  62.100 -49.984  1.00  0.00     0.030 A 
HETATM   16  C   UNL     1     -45.626  62.382 -50.340  1.00  0.00     0.029 A 
HETATM   17  C   UNL     1     -46.307  61.393 -51.076  1.00  0.00     0.030 A 
HETATM   18  C   UNL     1     -45.695  60.192 -51.454  1.00  0.00     0.015 A 
BRANCH  16  19
HETATM   19  N   UNL     1     -46.291  63.557 -49.956  1.00  0.00    -0.390 N 
HETATM   20  C   UNL     1     -45.413  64.661 -49.557  1.00  0.00     0.149 C 
HETATM   21  C   UNL     1     -47.508  63.434 -49.152  1.00  0.00     0.149 C 
ENDBRANCH  16  19
ENDBRANCH  12  13
ENDBRANCH   8  11
ENDBRANCH   5   7
BRANCH   1  22
HETATM   22  C   UNL     1     -40.189  52.233 -53.505  1.00  0.00     0.028 A 
HETATM   23  C   UNL     1     -39.704  51.860 -52.233  1.00  0.00     0.081 A 
HETATM   24  C   UNL     1     -39.428  50.507 -51.972  1.00  0.00     0.038 A 
HETATM   25  C   UNL     1     -39.638  49.530 -52.948  1.00  0.00     0.003 A 
HETATM   26  C   UNL     1     -40.124  49.889 -54.198  1.00  0.00     0.001 A 
HETATM   27  C   UNL     1     -40.398  51.228 -54.471  1.00  0.00     0.017 A 
BRANCH  23  28
HETATM   28  O   UNL     1     -39.530  52.856 -51.303  1.00  0.00    -0.350 OA
BRANCH  28  29
HETATM   29  C   UNL     1     -40.322  52.811 -50.117  1.00  0.00     0.175 C 
BRANCH  29  30
HETATM   30  C   UNL     1     -40.097  54.116 -49.359  1.00  0.00     0.022 C 
HETATM   31  C   UNL     1     -40.297  53.943 -47.864  1.00  0.00     0.007 C 
ENDBRANCH  29  30
ENDBRANCH  28  29
ENDBRANCH  23  28
ENDBRANCH   1  22
TORSDOF 8
ENDMDL
MODEL 3
REMARK VINA RESULT:      -7.5      1.027      1.410
REMARK  8 active torsions:
REMARK  status: ('A' for Active; 'I' for Inactive)
REMARK    1  A    between atoms: C_2  and  C_3 
REMARK    2  A    between atoms: C_3  and  O_4 
REMARK    3  A    between atoms: O_4  and  C_5 
REMARK    4  A    between atoms: C_6  and  C_7 
REMARK    5  A    between atoms: C_11  and  C_12 
REMARK       I    between atoms: C_12  and  N_13 
REMARK    6  A    between atoms: N_13  and  N_14 
REMARK    7  A    between atoms: C_15  and  C_16 
REMARK    8  A    between atoms: C_19  and  N_20 
ROOT
HETATM    1  C   UNL     1     -40.743  53.262 -54.330  1.00  0.00     0.092 A 
HETATM    2  N   UNL     1     -39.871  54.076 -54.952  1.00  0.00    -0.174 NA
HETATM    3  N   UNL     1     -40.630  55.044 -55.483  1.00  0.00    -0.272 N 
HETATM    4  H   UNL     1     -40.184  55.785 -56.017  1.00  0.00     0.189 HD
HETATM    5  C   UNL     1     -41.965  54.923 -55.221  1.00  0.00     0.121 A 
HETATM    6  C   UNL     1     -42.066  53.772 -54.466  1.00  0.00     0.071 A 
ENDROOT
BRANCH   5   7
HETATM    7  C   UNL     1     -42.908  55.897 -55.711  1.00  0.00     0.289 C 
HETATM    8  N   UNL     1     -42.796  56.186 -57.063  1.00  0.00    -0.242 N 
HETATM    9  H   UNL     1     -42.093  55.732 -57.629  1.00  0.00     0.192 HD
HETATM   10  O   UNL     1     -43.736  56.407 -54.960  1.00  0.00    -0.264 OA
BRANCH   8  11
HETATM   11  N   UNL     1     -43.665  57.063 -57.645  1.00  0.00    -0.184 NA
HETATM   12  C   UNL     1     -43.844  56.921 -58.919  1.00  0.00     0.150 C 
BRANCH  12  13
HETATM   13  C   UNL     1     -44.775  57.789 -59.667  1.00  0.00    -0.017 A 
HETATM   14  C   UNL     1     -44.315  58.908 -60.358  1.00  0.00     0.015 A 
HETATM   15  C   UNL     1     -45.219  59.733 -61.038  1.00  0.00     0.030 A 
HETATM   16  C   UNL     1     -46.597  59.461 -61.061  1.00  0.00     0.029 A 
HETATM   17  C   UNL     1     -47.029  58.326 -60.348  1.00  0.00     0.030 A 
HETATM   18  C   UNL     1     -46.137  57.494 -59.660  1.00  0.00     0.015 A 
BRANCH  16  19
HETATM   19  N   UNL     1     -47.532  60.283 -61.710  1.00  0.00    -0.390 N 
HETATM   20  C   UNL     1     -47.084  61.658 -61.949  1.00  0.00     0.149 C 
HETATM   21  C   UNL     1     -48.940  60.165 -61.329  1.00  0.00     0.149 C 
ENDBRANCH  16  19
ENDBRANCH  12  13
ENDBRANCH   8  11
ENDBRANCH   5   7
BRANCH   1  22
HETATM   22  C   UNL     1     -40.280  52.064 -53.609  1.00  0.00     0.028 A 
HETATM   23  C   UNL     1     -39.899  52.079 -52.250  1.00  0.00     0.081 A 
HETATM   24  C   UNL     1     -39.463  50.888 -51.646  1.00  0.00     0.038 A 
HETATM   25  C   UNL     1     -39.412  49.693 -52.367  1.00  0.00     0.003 A 
HETATM   26  C   UNL     1     -39.796  49.670 -53.702  1.00  0.00     0.001 A 
HETATM   27  C   UNL     1     -40.226  50.845 -54.315  1.00  0.00     0.017 A 
BRANCH  23  28
HETATM   28  O   UNL     1     -39.982  53.275 -51.581  1.00  0.00    -0.350 OA
BRANCH  28  29
HETATM   29  C   UNL     1     -41.030  53.437 -50.625  1.00  0.00     0.175 C 
BRANCH  29  30
HETATM   30  C   UNL     1     -40.605  54.534 -49.652  1.00  0.00     0.022 C 
HETATM   31  C   UNL     1     -40.312  53.979 -48.270  1.00  0.00     0.007 C 
ENDBRANCH  29  30
ENDBRANCH  28  29
ENDBRANCH  23  28
ENDBRANCH   1  22
TORSDOF 8
ENDMDL
MODEL 4
REMARK VINA RESULT:      -7.4      3.611      4.405
REMARK  8 active torsions:
REMARK  status: ('A' for Active; 'I' for Inactive)
REMARK    1  A    between atoms: C_2  and  C_3 
REMARK    2  A    between atoms: C_3  and  O_4 
REMARK    3  A    between atoms: O_4  and  C_5 
REMARK    4  A    between atoms: C_6  and  C_7 
REMARK    5  A    between atoms: C_11  and  C_12 
REMARK       I    between atoms: C_12  and  N_13 
REMARK    6  A    between atoms: N_13  and  N_14 
REMARK    7  A    between atoms: C_15  and  C_16 
REMARK    8  A    between atoms: C_19  and  N_20 
ROOT
HETATM    1  C   UNL     1     -41.801  53.919 -54.596  1.00  0.00     0.092 A 
HETATM    2  N   UNL     1     -43.133  54.008 -54.431  1.00  0.00    -0.174 NA
HETATM    3  N   UNL     1     -43.547  54.804 -55.425  1.00  0.00    -0.272 N 
HETATM    4  H   UNL     1     -44.536  55.026 -55.501  1.00  0.00     0.189 HD
HETATM    5  C   UNL     1     -42.552  55.229 -56.259  1.00  0.00     0.121 A 
HETATM    6  C   UNL     1     -41.404  54.662 -55.745  1.00  0.00     0.071 A 
ENDROOT
BRANCH   5   7
HETATM    7  C   UNL     1     -42.844  56.079 -57.386  1.00  0.00     0.289 C 
HETATM    8  N   UNL     1     -42.149  57.280 -57.405  1.00  0.00    -0.242 N 
HETATM    9  H   UNL     1     -41.500  57.509 -56.664  1.00  0.00     0.192 HD
HETATM   10  O   UNL     1     -43.647  55.731 -58.248  1.00  0.00    -0.264 OA
BRANCH   8  11
HETATM   11  N   UNL     1     -42.314  58.145 -58.447  1.00  0.00    -0.184 NA
HETATM   12  C   UNL     1     -41.755  59.305 -58.314  1.00  0.00     0.150 C 
BRANCH  12  13
HETATM   13  C   UNL     1     -41.836  60.326 -59.377  1.00  0.00    -0.017 A 
HETATM   14  C   UNL     1     -42.463  60.049 -60.591  1.00  0.00     0.015 A 
HETATM   15  C   UNL     1     -42.505  61.023 -61.596  1.00  0.00     0.030 A 
HETATM   16  C   UNL     1     -41.940  62.297 -61.417  1.00  0.00     0.029 A 
HETATM   17  C   UNL     1     -41.310  62.541 -60.182  1.00  0.00     0.030 A 
HETATM   18  C   UNL     1     -41.256  61.575 -59.169  1.00  0.00     0.015 A 
BRANCH  16  19
HETATM   19  N   UNL     1     -41.941  63.285 -62.415  1.00  0.00    -0.390 N 
HETATM   20  C   UNL     1     -42.969  63.118 -63.447  1.00  0.00     0.149 C 
HETATM   21  C   UNL     1     -40.653  63.762 -62.918  1.00  0.00     0.149 C 
ENDBRANCH  16  19
ENDBRANCH  12  13
ENDBRANCH   8  11
ENDBRANCH   5   7
BRANCH   1  22
HETATM   22  C   UNL     1     -40.975  53.109 -53.685  1.00  0.00     0.028 A 
HETATM   23  C   UNL     1     -40.672  53.500 -52.363  1.00  0.00     0.081 A 
HETATM   24  C   UNL     1     -39.869  52.666 -51.567  1.00  0.00     0.038 A 
HETATM   25  C   UNL     1     -39.378  51.456 -52.063  1.00  0.00     0.003 A 
HETATM   26  C   UNL     1     -39.681  51.061 -53.359  1.00  0.00     0.001 A 
HETATM   27  C   UNL     1     -40.473  51.881 -54.161  1.00  0.00     0.017 A 
BRANCH  23  28
HETATM   28  O   UNL     1     -41.192  54.690 -51.918  1.00  0.00    -0.350 OA
BRANCH  28  29
HETATM   29  C   UNL     1     -42.026  54.666 -50.759  1.00  0.00     0.175 C 
BRANCH  29  30
HETATM   30  C   UNL     1     -41.327  55.474 -49.669  1.00  0.00     0.022 C 
HETATM   31  C   UNL     1     -40.827  54.587 -48.543  1.00  0.00     0.007 C 
ENDBRANCH  29  30
ENDBRANCH  28  29
ENDBRANCH  23  28
ENDBRANCH   1  22
TORSDOF 8
ENDMDL
MODEL 5
REMARK VINA RESULT:      -7.4      2.567      3.248
REMARK  8 active torsions:
REMARK  status: ('A' for Active; 'I' for Inactive)
REMARK    1  A    between atoms: C_2  and  C_3 
REMARK    2  A    between atoms: C_3  and  O_4 
REMARK    3  A    between atoms: O_4  and  C_5 
REMARK    4  A    between atoms: C_6  and  C_7 
REMARK    5  A    between atoms: C_11  and  C_12 
REMARK       I    between atoms: C_12  and  N_13 
REMARK    6  A    between atoms: N_13  and  N_14 
REMARK    7  A    between atoms: C_15  and  C_16 
REMARK    8  A    between atoms: C_19  and  N_20 
ROOT
HETATM    1  C   UNL     1     -41.249  53.567 -53.978  1.00  0.00     0.092 A 
HETATM    2  N   UNL     1     -42.387  53.979 -53.391  1.00  0.00    -0.174 NA
HETATM    3  N   UNL     1     -42.664  55.153 -53.972  1.00  0.00    -0.272 N 
HETATM    4  H   UNL     1     -43.491  55.667 -53.680  1.00  0.00     0.189 HD
HETATM    5  C   UNL     1     -41.774  55.528 -54.938  1.00  0.00     0.121 A 
HETATM    6  C   UNL     1     -40.844  54.509 -54.966  1.00  0.00     0.071 A 
ENDROOT
BRANCH   5   7
HETATM    7  C   UNL     1     -41.947  56.760 -55.667  1.00  0.00     0.289 C 
HETATM    8  N   UNL     1     -42.063  56.612 -57.041  1.00  0.00    -0.242 N 
HETATM    9  H   UNL     1     -42.020  55.695 -57.464  1.00  0.00     0.192 HD
HETATM   10  O   UNL     1     -41.989  57.839 -55.080  1.00  0.00    -0.264 OA
BRANCH   8  11
HETATM   11  N   UNL     1     -42.272  57.707 -57.828  1.00  0.00    -0.184 NA
HETATM   12  C   UNL     1     -42.711  57.470 -59.023  1.00  0.00     0.150 C 
BRANCH  12  13
HETATM   13  C   UNL     1     -43.001  58.567 -59.968  1.00  0.00    -0.017 A 
HETATM   14  C   UNL     1     -44.310  58.979 -60.209  1.00  0.00     0.015 A 
HETATM   15  C   UNL     1     -44.565  60.002 -61.130  1.00  0.00     0.030 A 
HETATM   16  C   UNL     1     -43.528  60.650 -61.822  1.00  0.00     0.029 A 
HETATM   17  C   UNL     1     -42.218  60.206 -61.559  1.00  0.00     0.030 A 
HETATM   18  C   UNL     1     -41.949  59.180 -60.644  1.00  0.00     0.015 A 
BRANCH  16  19
HETATM   19  N   UNL     1     -43.752  61.660 -62.771  1.00  0.00    -0.390 N 
HETATM   20  C   UNL     1     -42.624  61.924 -63.669  1.00  0.00     0.149 C 
HETATM   21  C   UNL     1     -44.480  62.857 -62.350  1.00  0.00     0.149 C 
ENDBRANCH  16  19
ENDBRANCH  12  13
ENDBRANCH   8  11
ENDBRANCH   5   7
BRANCH   1  22
HETATM   22  C   UNL     1     -40.621  52.288 -53.603  1.00  0.00     0.028 A 
HETATM   23  C   UNL     1     -39.939  52.090 -52.383  1.00  0.00     0.081 A 
HETATM   24  C   UNL     1     -39.363  50.837 -52.114  1.00  0.00     0.038 A 
HETATM   25  C   UNL     1     -39.467  49.787 -53.029  1.00  0.00     0.003 A 
HETATM   26  C   UNL     1     -40.145  49.973 -54.227  1.00  0.00     0.001 A 
HETATM   27  C   UNL     1     -40.717  51.212 -54.509  1.00  0.00     0.017 A 
BRANCH  23  28
HETATM   28  O   UNL     1     -39.880  53.149 -51.510  1.00  0.00    -0.350 OA
BRANCH  28  29
HETATM   29  C   UNL     1     -40.638  53.066 -50.304  1.00  0.00     0.175 C 
BRANCH  29  30
HETATM   30  C   UNL     1     -40.353  54.325 -49.490  1.00  0.00     0.022 C 
HETATM   31  C   UNL     1     -40.300  54.035 -48.001  1.00  0.00     0.007 C 
ENDBRANCH  29  30
ENDBRANCH  28  29
ENDBRANCH  23  28
ENDBRANCH   1  22
TORSDOF 8
ENDMDL
MODEL 6
REMARK VINA RESULT:      -7.3      3.622      4.996
REMARK  8 active torsions:
REMARK  status: ('A' for Active; 'I' for Inactive)
REMARK    1  A    between atoms: C_2  and  C_3 
REMARK    2  A    between atoms: C_3  and  O_4 
REMARK    3  A    between atoms: O_4  and  C_5 
REMARK    4  A    between atoms: C_6  and  C_7 
REMARK    5  A    between atoms: C_11  and  C_12 
REMARK       I    between atoms: C_12  and  N_13 
REMARK    6  A    between atoms: N_13  and  N_14 
REMARK    7  A    between atoms: C_15  and  C_16 
REMARK    8  A    between atoms: C_19  and  N_20 
ROOT
HETATM    1  C   UNL     1     -42.093  54.536 -53.836  1.00  0.00     0.092 A 
HETATM    2  N   UNL     1     -43.387  54.258 -54.077  1.00  0.00    -0.174 NA
HETATM    3  N   UNL     1     -43.644  54.832 -55.259  1.00  0.00    -0.272 N 
HETATM    4  H   UNL     1     -44.579  54.760 -55.651  1.00  0.00     0.189 HD
HETATM    5  C   UNL     1     -42.571  55.458 -55.828  1.00  0.00     0.121 A 
HETATM    6  C   UNL     1     -41.545  55.276 -54.924  1.00  0.00     0.071 A 
ENDROOT
BRANCH   5   7
HETATM    7  C   UNL     1     -42.686  56.108 -57.110  1.00  0.00     0.289 C 
HETATM    8  N   UNL     1     -42.127  57.376 -57.172  1.00  0.00    -0.242 N 
HETATM    9  H   UNL     1     -41.684  57.782 -56.359  1.00  0.00     0.192 HD
HETATM   10  O   UNL     1     -43.240  55.549 -58.053  1.00  0.00    -0.264 OA
BRANCH   8  11
HETATM   11  N   UNL     1     -42.140  58.068 -58.348  1.00  0.00    -0.184 NA
HETATM   12  C   UNL     1     -41.848  59.327 -58.267  1.00  0.00     0.150 C 
BRANCH  12  13
HETATM   13  C   UNL     1     -41.804  60.186 -59.467  1.00  0.00    -0.017 A 
HETATM   14  C   UNL     1     -42.254  59.719 -60.700  1.00  0.00     0.015 A 
HETATM   15  C   UNL     1     -42.177  60.541 -61.832  1.00  0.00     0.030 A 
HETATM   16  C   UNL     1     -41.666  61.848 -61.764  1.00  0.00     0.029 A 
HETATM   17  C   UNL     1     -41.214  62.285 -60.504  1.00  0.00     0.030 A 
HETATM   18  C   UNL     1     -41.281  61.473 -59.365  1.00  0.00     0.015 A 
BRANCH  16  19
HETATM   19  N   UNL     1     -41.550  62.686 -62.884  1.00  0.00    -0.390 N 
HETATM   20  C   UNL     1     -42.236  62.207 -64.087  1.00  0.00     0.149 C 
HETATM   21  C   UNL     1     -40.258  63.325 -63.140  1.00  0.00     0.149 C 
ENDBRANCH  16  19
ENDBRANCH  12  13
ENDBRANCH   8  11
ENDBRANCH   5   7
BRANCH   1  22
HETATM   22  C   UNL     1     -41.429  54.060 -52.611  1.00  0.00     0.028 A 
HETATM   23  C   UNL     1     -40.422  53.070 -52.613  1.00  0.00     0.081 A 
HETATM   24  C   UNL     1     -39.849  52.671 -51.393  1.00  0.00     0.038 A 
HETATM   25  C   UNL     1     -40.255  53.247 -50.187  1.00  0.00     0.003 A 
HETATM   26  C   UNL     1     -41.238  54.228 -50.180  1.00  0.00     0.001 A 
HETATM   27  C   UNL     1     -41.817  54.630 -51.382  1.00  0.00     0.017 A 
BRANCH  23  28
HETATM   28  O   UNL     1     -40.048  52.547 -53.826  1.00  0.00    -0.350 OA
BRANCH  28  29
HETATM   29  C   UNL     1     -40.696  51.355 -54.270  1.00  0.00     0.175 C 
BRANCH  29  30
HETATM   30  C   UNL     1     -39.647  50.248 -54.318  1.00  0.00     0.022 C 
HETATM   31  C   UNL     1     -39.601  49.458 -53.023  1.00  0.00     0.007 C 
ENDBRANCH  29  30
ENDBRANCH  28  29
ENDBRANCH  23  28
ENDBRANCH   1  22
TORSDOF 8
ENDMDL
MODEL 7
REMARK VINA RESULT:      -7.1      2.572      2.927
REMARK  8 active torsions:
REMARK  status: ('A' for Active; 'I' for Inactive)
REMARK    1  A    between atoms: C_2  and  C_3 
REMARK    2  A    between atoms: C_3  and  O_4 
REMARK    3  A    between atoms: O_4  and  C_5 
REMARK    4  A    between atoms: C_6  and  C_7 
REMARK    5  A    between atoms: C_11  and  C_12 
REMARK       I    between atoms: C_12  and  N_13 
REMARK    6  A    between atoms: N_13  and  N_14 
REMARK    7  A    between atoms: C_15  and  C_16 
REMARK    8  A    between atoms: C_19  and  N_20 
ROOT
HETATM    1  C   UNL     1     -40.715  53.472 -54.117  1.00  0.00     0.092 A 
HETATM    2  N   UNL     1     -39.979  54.096 -55.054  1.00  0.00    -0.174 NA
HETATM    3  N   UNL     1     -40.652  55.222 -55.322  1.00  0.00    -0.272 N 
HETATM    4  H   UNL     1     -40.284  55.864 -56.019  1.00  0.00     0.189 HD
HETATM    5  C   UNL     1     -41.791  55.387 -54.587  1.00  0.00     0.121 A 
HETATM    6  C   UNL     1     -41.854  54.263 -53.789  1.00  0.00     0.071 A 
ENDROOT
BRANCH   5   7
HETATM    7  C   UNL     1     -42.615  56.559 -54.749  1.00  0.00     0.289 C 
HETATM    8  N   UNL     1     -43.877  56.316 -55.270  1.00  0.00    -0.242 N 
HETATM    9  H   UNL     1     -44.161  55.376 -55.509  1.00  0.00     0.192 HD
HETATM   10  O   UNL     1     -42.198  57.672 -54.435  1.00  0.00    -0.264 OA
BRANCH   8  11
HETATM   11  N   UNL     1     -44.758  57.346 -55.428  1.00  0.00    -0.184 NA
HETATM   12  C   UNL     1     -44.874  57.812 -56.631  1.00  0.00     0.150 C 
BRANCH  12  13
HETATM   13  C   UNL     1     -45.809  58.911 -56.943  1.00  0.00    -0.017 A 
HETATM   14  C   UNL     1     -45.603  60.194 -56.440  1.00  0.00     0.015 A 
HETATM   15  C   UNL     1     -46.517  61.215 -56.727  1.00  0.00     0.030 A 
HETATM   16  C   UNL     1     -47.648  60.992 -57.529  1.00  0.00     0.029 A 
HETATM   17  C   UNL     1     -47.830  59.683 -58.016  1.00  0.00     0.030 A 
HETATM   18  C   UNL     1     -46.925  58.651 -57.735  1.00  0.00     0.015 A 
BRANCH  16  19
HETATM   19  N   UNL     1     -48.598  61.986 -57.812  1.00  0.00    -0.390 N 
HETATM   20  C   UNL     1     -48.537  63.164 -56.941  1.00  0.00     0.149 C 
HETATM   21  C   UNL     1     -49.955  61.568 -58.167  1.00  0.00     0.149 C 
ENDBRANCH  16  19
ENDBRANCH  12  13
ENDBRANCH   8  11
ENDBRANCH   5   7
BRANCH   1  22
HETATM   22  C   UNL     1     -40.290  52.180 -53.553  1.00  0.00     0.028 A 
HETATM   23  C   UNL     1     -39.849  52.026 -52.221  1.00  0.00     0.081 A 
HETATM   24  C   UNL     1     -39.455  50.754 -51.771  1.00  0.00     0.038 A 
HETATM   25  C   UNL     1     -39.504  49.645 -52.619  1.00  0.00     0.003 A 
HETATM   26  C   UNL     1     -39.946  49.789 -53.927  1.00  0.00     0.001 A 
HETATM   27  C   UNL     1     -40.336  51.045 -54.388  1.00  0.00     0.017 A 
BRANCH  23  28
HETATM   28  O   UNL     1     -39.835  53.144 -51.424  1.00  0.00    -0.350 OA
BRANCH  28  29
HETATM   29  C   UNL     1     -40.305  53.016 -50.082  1.00  0.00     0.175 C 
BRANCH  29  30
HETATM   30  C   UNL     1     -40.022  54.333 -49.364  1.00  0.00     0.022 C 
HETATM   31  C   UNL     1     -40.860  55.470 -49.919  1.00  0.00     0.007 C 
ENDBRANCH  29  30
ENDBRANCH  28  29
ENDBRANCH  23  28
ENDBRANCH   1  22
TORSDOF 8
ENDMDL
MODEL 8
REMARK VINA RESULT:      -7.0      1.275      2.761
REMARK  8 active torsions:
REMARK  status: ('A' for Active; 'I' for Inactive)
REMARK    1  A    between atoms: C_2  and  C_3 
REMARK    2  A    between atoms: C_3  and  O_4 
REMARK    3  A    between atoms: O_4  and  C_5 
REMARK    4  A    between atoms: C_6  and  C_7 
REMARK    5  A    between atoms: C_11  and  C_12 
REMARK       I    between atoms: C_12  and  N_13 
REMARK    6  A    between atoms: N_13  and  N_14 
REMARK    7  A    between atoms: C_15  and  C_16 
REMARK    8  A    between atoms: C_19  and  N_20 
ROOT
HETATM    1  C   UNL     1     -41.589  55.096 -53.854  1.00  0.00     0.092 A 
HETATM    2  N   UNL     1     -40.867  55.162 -54.986  1.00  0.00    -0.174 NA
HETATM    3  N   UNL     1     -41.642  55.836 -55.846  1.00  0.00    -0.272 N 
HETATM    4  H   UNL     1     -41.303  56.005 -56.789  1.00  0.00     0.189 HD
HETATM    5  C   UNL     1     -42.839  56.242 -55.328  1.00  0.00     0.121 A 
HETATM    6  C   UNL     1     -42.828  55.779 -54.028  1.00  0.00     0.071 A 
ENDROOT
BRANCH   5   7
HETATM    7  C   UNL     1     -43.775  56.993 -56.126  1.00  0.00     0.289 C 
HETATM    8  N   UNL     1     -43.686  56.769 -57.492  1.00  0.00    -0.242 N 
HETATM    9  H   UNL     1     -43.001  56.125 -57.863  1.00  0.00     0.192 HD
HETATM   10  O   UNL     1     -44.580  57.759 -55.601  1.00  0.00    -0.264 OA
BRANCH   8  11
HETATM   11  N   UNL     1     -44.552  57.394 -58.342  1.00  0.00    -0.184 NA
HETATM   12  C   UNL     1     -45.271  56.619 -59.088  1.00  0.00     0.150 C 
BRANCH  12  13
HETATM   13  C   UNL     1     -46.264  57.165 -60.034  1.00  0.00    -0.017 A 
HETATM   14  C   UNL     1     -46.482  58.538 -60.132  1.00  0.00     0.015 A 
HETATM   15  C   UNL     1     -47.449  59.033 -61.016  1.00  0.00     0.030 A 
HETATM   16  C   UNL     1     -48.209  58.182 -61.834  1.00  0.00     0.029 A 
HETATM   17  C   UNL     1     -47.967  56.800 -61.707  1.00  0.00     0.030 A 
HETATM   18  C   UNL     1     -47.007  56.290 -60.823  1.00  0.00     0.015 A 
BRANCH  16  19
HETATM   19  N   UNL     1     -49.204  58.644 -62.711  1.00  0.00    -0.390 N 
HETATM   20  C   UNL     1     -50.527  58.820 -62.105  1.00  0.00     0.149 C 
HETATM   21  C   UNL     1     -49.230  58.109 -64.073  1.00  0.00     0.149 C 
ENDBRANCH  16  19
ENDBRANCH  12  13
ENDBRANCH   8  11
ENDBRANCH   5   7
BRANCH   1  22
HETATM   22  C   UNL     1     -41.061  54.426 -52.654  1.00  0.00     0.028 A 
HETATM   23  C   UNL     1     -40.343  53.211 -52.700  1.00  0.00     0.081 A 
HETATM   24  C   UNL     1     -39.883  52.639 -51.501  1.00  0.00     0.038 A 
HETATM   25  C   UNL     1     -40.117  53.261 -50.273  1.00  0.00     0.003 A 
HETATM   26  C   UNL     1     -40.814  54.461 -50.222  1.00  0.00     0.001 A 
HETATM   27  C   UNL     1     -41.280  55.037 -51.403  1.00  0.00     0.017 A 
BRANCH  23  28
HETATM   28  O   UNL     1     -40.126  52.649 -53.934  1.00  0.00    -0.350 OA
BRANCH  28  29
HETATM   29  C   UNL     1     -40.885  51.492 -54.285  1.00  0.00     0.175 C 
BRANCH  29  30
HETATM   30  C   UNL     1     -39.908  50.333 -54.465  1.00  0.00     0.022 C 
HETATM   31  C   UNL     1     -39.643  49.610 -53.157  1.00  0.00     0.007 C 
ENDBRANCH  29  30
ENDBRANCH  28  29
ENDBRANCH  23  28
ENDBRANCH   1  22
TORSDOF 8
ENDMDL
MODEL 9
REMARK VINA RESULT:      -6.9      7.281     11.813
REMARK  8 active torsions:
REMARK  status: ('A' for Active; 'I' for Inactive)
REMARK    1  A    between atoms: C_2  and  C_3 
REMARK    2  A    between atoms: C_3  and  O_4 
REMARK    3  A    between atoms: O_4  and  C_5 
REMARK    4  A    between atoms: C_6  and  C_7 
REMARK    5  A    between atoms: C_11  and  C_12 
REMARK       I    between atoms: C_12  and  N_13 
REMARK    6  A    between atoms: N_13  and  N_14 
REMARK    7  A    between atoms: C_15  and  C_16 
REMARK    8  A    between atoms: C_19  and  N_20 
ROOT
HETATM    1  C   UNL     1     -44.603  62.352 -49.775  1.00  0.00     0.092 A 
HETATM    2  N   UNL     1     -43.599  63.106 -50.255  1.00  0.00    -0.174 NA
HETATM    3  N   UNL     1     -42.624  62.233 -50.542  1.00  0.00    -0.272 N 
HETATM    4  H   UNL     1     -41.746  62.578 -50.919  1.00  0.00     0.189 HD
HETATM    5  C   UNL     1     -42.946  60.928 -50.297  1.00  0.00     0.121 A 
HETATM    6  C   UNL     1     -44.233  60.976 -49.802  1.00  0.00     0.071 A 
ENDROOT
BRANCH   5   7
HETATM    7  C   UNL     1     -42.006  59.870 -50.572  1.00  0.00     0.289 C 
HETATM    8  N   UNL     1     -42.567  58.603 -50.663  1.00  0.00    -0.242 N 
HETATM    9  H   UNL     1     -43.561  58.472 -50.537  1.00  0.00     0.192 HD
HETATM   10  O   UNL     1     -40.810  60.109 -50.713  1.00  0.00    -0.264 OA
BRANCH   8  11
HETATM   11  N   UNL     1     -41.778  57.531 -50.962  1.00  0.00    -0.184 NA
HETATM   12  C   UNL     1     -42.346  56.370 -50.879  1.00  0.00     0.150 C 
BRANCH  12  13
HETATM   13  C   UNL     1     -41.611  55.130 -51.198  1.00  0.00    -0.017 A 
HETATM   14  C   UNL     1     -40.722  54.567 -50.284  1.00  0.00     0.015 A 
HETATM   15  C   UNL     1     -40.015  53.405 -50.619  1.00  0.00     0.030 A 
HETATM   16  C   UNL     1     -40.184  52.767 -51.858  1.00  0.00     0.029 A 
HETATM   17  C   UNL     1     -41.086  53.364 -52.760  1.00  0.00     0.030 A 
HETATM   18  C   UNL     1     -41.796  54.529 -52.441  1.00  0.00     0.015 A 
BRANCH  16  19
HETATM   19  N   UNL     1     -39.471  51.617 -52.234  1.00  0.00    -0.390 N 
HETATM   20  C   UNL     1     -39.568  51.268 -53.654  1.00  0.00     0.149 C 
HETATM   21  C   UNL     1     -39.483  50.468 -51.328  1.00  0.00     0.149 C 
ENDBRANCH  16  19
ENDBRANCH  12  13
ENDBRANCH   8  11
ENDBRANCH   5   7
BRANCH   1  22
HETATM   22  C   UNL     1     -45.874  62.961 -49.350  1.00  0.00     0.028 A 
HETATM   23  C   UNL     1     -46.149  63.325 -48.014  1.00  0.00     0.081 A 
HETATM   24  C   UNL     1     -47.394  63.895 -47.698  1.00  0.00     0.038 A 
HETATM   25  C   UNL     1     -48.355  64.114 -48.688  1.00  0.00     0.003 A 
HETATM   26  C   UNL     1     -48.087  63.767 -50.006  1.00  0.00     0.001 A 
HETATM   27  C   UNL     1     -46.858  63.197 -50.332  1.00  0.00     0.017 A 
BRANCH  23  28
HETATM   28  O   UNL     1     -45.165  63.104 -47.081  1.00  0.00    -0.350 OA
BRANCH  28  29
HETATM   29  C   UNL     1     -45.519  62.405 -45.888  1.00  0.00     0.175 C 
BRANCH  29  30
HETATM   30  C   UNL     1     -45.037  60.965 -46.033  1.00  0.00     0.022 C 
HETATM   31  C   UNL     1     -46.185  60.011 -46.310  1.00  0.00     0.007 C 
ENDBRANCH  29  30
ENDBRANCH  28  29
ENDBRANCH  23  28
ENDBRANCH   1  22
TORSDOF 8
ENDMDL
MODEL 10
REMARK VINA RESULT:      -6.8      1.844      2.456
REMARK  8 active torsions:
REMARK  status: ('A' for Active; 'I' for Inactive)
REMARK    1  A    between atoms: C_2  and  C_3 
REMARK    2  A    between atoms: C_3  and  O_4 
REMARK    3  A    between atoms: O_4  and  C_5 
REMARK    4  A    between atoms: C_6  and  C_7 
REMARK    5  A    between atoms: C_11  and  C_12 
REMARK       I    between atoms: C_12  and  N_13 
REMARK    6  A    between atoms: N_13  and  N_14 
REMARK    7  A    between atoms: C_15  and  C_16 
REMARK    8  A    between atoms: C_19  and  N_20 
ROOT
HETATM    1  C   UNL     1     -42.016  54.350 -54.324  1.00  0.00     0.092 A 
HETATM    2  N   UNL     1     -43.339  54.343 -54.082  1.00  0.00    -0.174 NA
HETATM    3  N   UNL     1     -43.833  55.310 -54.866  1.00  0.00    -0.272 N 
HETATM    4  H   UNL     1     -44.832  55.499 -54.848  1.00  0.00     0.189 HD
HETATM    5  C   UNL     1     -42.900  55.944 -55.637  1.00  0.00     0.121 A 
HETATM    6  C   UNL     1     -41.707  55.334 -55.308  1.00  0.00     0.071 A 
ENDROOT
BRANCH   5   7
HETATM    7  C   UNL     1     -43.281  56.996 -56.546  1.00  0.00     0.289 C 
HETATM    8  N   UNL     1     -44.305  56.667 -57.422  1.00  0.00    -0.242 N 
HETATM    9  H   UNL     1     -44.725  55.747 -57.399  1.00  0.00     0.192 HD
HETATM   10  O   UNL     1     -42.723  58.090 -56.514  1.00  0.00    -0.264 OA
BRANCH   8  11
HETATM   11  N   UNL     1     -44.776  57.600 -58.299  1.00  0.00    -0.184 NA
HETATM   12  C   UNL     1     -46.049  57.833 -58.248  1.00  0.00     0.150 C 
BRANCH  12  13
HETATM   13  C   UNL     1     -46.684  58.836 -59.126  1.00  0.00    -0.017 A 
HETATM   14  C   UNL     1     -47.591  59.763 -58.617  1.00  0.00     0.015 A 
HETATM   15  C   UNL     1     -48.202  60.688 -59.473  1.00  0.00     0.030 A 
HETATM   16  C   UNL     1     -47.919  60.724 -60.848  1.00  0.00     0.029 A 
HETATM   17  C   UNL     1     -47.003  59.769 -61.330  1.00  0.00     0.030 A 
HETATM   18  C   UNL     1     -46.387  58.835 -60.487  1.00  0.00     0.015 A 
BRANCH  16  19
HETATM   19  N   UNL     1     -48.535  61.619 -61.737  1.00  0.00    -0.390 N 
HETATM   20  C   UNL     1     -47.618  62.533 -62.425  1.00  0.00     0.149 C 
HETATM   21  C   UNL     1     -49.805  62.226 -61.338  1.00  0.00     0.149 C 
ENDBRANCH  16  19
ENDBRANCH  12  13
ENDBRANCH   8  11
ENDBRANCH   5   7
BRANCH   1  22
HETATM   22  C   UNL     1     -41.115  53.406 -53.643  1.00  0.00     0.028 A 
HETATM   23  C   UNL     1     -40.673  53.580 -52.314  1.00  0.00     0.081 A 
HETATM   24  C   UNL     1     -39.806  52.630 -51.747  1.00  0.00     0.038 A 
HETATM   25  C   UNL     1     -39.387  51.515 -52.477  1.00  0.00     0.003 A 
HETATM   26  C   UNL     1     -39.826  51.333 -53.782  1.00  0.00     0.001 A 
HETATM   27  C   UNL     1     -40.682  52.270 -54.357  1.00  0.00     0.017 A 
BRANCH  23  28
HETATM   28  O   UNL     1     -41.127  54.684 -51.634  1.00  0.00    -0.350 OA
BRANCH  28  29
HETATM   29  C   UNL     1     -41.917  54.472 -50.465  1.00  0.00     0.175 C 
BRANCH  29  30
HETATM   30  C   UNL     1     -41.212  55.158 -49.298  1.00  0.00     0.022 C 
HETATM   31  C   UNL     1     -40.497  54.159 -48.405  1.00  0.00     0.007 C 
ENDBRANCH  29  30
ENDBRANCH  28  29
ENDBRANCH  23  28
ENDBRANCH   1  22
TORSDOF 8
ENDMDL
