MODEL 1
REMARK VINA RESULT:      -9.0      0.000      0.000
REMARK  5 active torsions:
REMARK  status: ('A' for Active; 'I' for Inactive)
REMARK    1  A    between atoms: C_5  and  C_6 
REMARK    2  A    between atoms: C_9  and  O_10 
REMARK    3  A    between atoms: N_14  and  C_15 
REMARK    4  A    between atoms: C_15  and  C_16 
REMARK       I    between atoms: C_16  and  N_17 
REMARK    5  A    between atoms: N_17  and  C_18 
ROOT
HETATM    1  C   UNL     1     -43.493  59.719 -55.848  1.00  0.00     0.156 C 
HETATM    2  N   UNL     1     -43.802  58.867 -54.724  1.00  0.00    -0.346 N 
HETATM    3  C   UNL     1     -43.481  57.559 -54.609  1.00  0.00     0.113 A 
HETATM    4  C   UNL     1     -43.967  57.062 -53.430  1.00  0.00     0.014 A 
HETATM    5  C   UNL     1     -43.648  55.617 -53.309  1.00  0.00     0.158 A 
HETATM    6  N   UNL     1     -42.828  55.439 -54.534  1.00  0.00    -0.325 N 
HETATM    7  C   UNL     1     -42.782  56.568 -55.355  1.00  0.00     0.272 A 
HETATM    8  O   UNL     1     -42.250  56.677 -56.445  1.00  0.00    -0.266 OA
HETATM    9  C   UNL     1     -44.596  58.115 -52.742  1.00  0.00     0.002 A 
HETATM   10  C   UNL     1     -44.472  59.253 -53.568  1.00  0.00     0.045 A 
HETATM   11  C   UNL     1     -45.239  58.240 -51.497  1.00  0.00     0.014 A 
HETATM   12  C   UNL     1     -45.733  59.487 -51.102  1.00  0.00     0.001 A 
HETATM   13  C   UNL     1     -45.601  60.599 -51.929  1.00  0.00     0.002 A 
HETATM   14  C   UNL     1     -44.972  60.504 -53.174  1.00  0.00     0.030 A 
ENDROOT
BRANCH   6  15
HETATM   15  C   UNL     1     -42.375  54.132 -54.993  1.00  0.00     0.229 C 
BRANCH  15  16
HETATM   16  C   UNL     1     -40.935  53.775 -54.589  1.00  0.00     0.235 C 
HETATM   17  N   UNL     1     -40.840  52.815 -53.613  1.00  0.00    -0.355 N 
HETATM   18  H   UNL     1     -41.721  52.580 -53.175  1.00  0.00     0.162 HD
HETATM   19  O   UNL     1     -39.979  54.276 -55.170  1.00  0.00    -0.272 OA
BRANCH  17  20
HETATM   20  C   UNL     1     -39.647  52.298 -52.954  1.00  0.00     0.084 C 
HETATM   21  C   UNL     1     -39.667  52.347 -51.419  1.00  0.00     0.025 C 
HETATM   22  C   UNL     1     -40.139  51.073 -50.716  1.00  0.00     0.002 C 
HETATM   23  C   UNL     1     -39.562  49.806 -51.333  1.00  0.00     0.000 C 
HETATM   24  C   UNL     1     -39.813  49.749 -52.834  1.00  0.00     0.002 C 
HETATM   25  C   UNL     1     -39.201  50.953 -53.535  1.00  0.00     0.025 C 
ENDBRANCH  17  20
ENDBRANCH  15  16
ENDBRANCH   6  15
BRANCH   5  26
HETATM   26  C   UNL     1     -42.897  55.353 -52.025  1.00  0.00    -0.030 A 
HETATM   27  C   UNL     1     -41.801  56.175 -51.715  1.00  0.00     0.012 A 
HETATM   28  C   UNL     1     -41.094  56.011 -50.519  1.00  0.00     0.037 A 
HETATM   29  C   UNL     1     -41.464  55.030 -49.601  1.00  0.00     0.068 A 
HETATM   30  C   UNL     1     -42.552  54.210 -49.889  1.00  0.00     0.037 A 
HETATM   31  C   UNL     1     -43.263  54.374 -51.085  1.00  0.00     0.012 A 
BRANCH  29  32
HETATM   32  O   UNL     1     -40.691  54.979 -48.476  1.00  0.00    -0.356 OA
HETATM   33  C   UNL     1     -40.367  53.688 -47.976  1.00  0.00     0.210 C 
ENDBRANCH  29  32
ENDBRANCH   5  26
TORSDOF 5
ENDMDL
MODEL 2
REMARK VINA RESULT:      -8.6      2.593      5.243
REMARK  5 active torsions:
REMARK  status: ('A' for Active; 'I' for Inactive)
REMARK    1  A    between atoms: C_5  and  C_6 
REMARK    2  A    between atoms: C_9  and  O_10 
REMARK    3  A    between atoms: N_14  and  C_15 
REMARK    4  A    between atoms: C_15  and  C_16 
REMARK       I    between atoms: C_16  and  N_17 
REMARK    5  A    between atoms: N_17  and  C_18 
ROOT
HETATM    1  C   UNL     1     -46.209  59.069 -57.080  1.00  0.00     0.156 C 
HETATM    2  N   UNL     1     -44.978  58.315 -57.095  1.00  0.00    -0.346 N 
HETATM    3  C   UNL     1     -44.112  58.193 -56.065  1.00  0.00     0.113 A 
HETATM    4  C   UNL     1     -43.037  57.438 -56.449  1.00  0.00     0.014 A 
HETATM    5  C   UNL     1     -42.062  57.325 -55.334  1.00  0.00     0.158 A 
HETATM    6  N   UNL     1     -42.818  58.029 -54.269  1.00  0.00    -0.325 N 
HETATM    7  C   UNL     1     -44.008  58.615 -54.709  1.00  0.00     0.272 A 
HETATM    8  O   UNL     1     -44.779  59.308 -54.072  1.00  0.00    -0.266 OA
HETATM    9  C   UNL     1     -43.247  57.027 -57.777  1.00  0.00     0.002 A 
HETATM   10  C   UNL     1     -44.485  57.579 -58.167  1.00  0.00     0.045 A 
HETATM   11  C   UNL     1     -42.536  56.227 -58.690  1.00  0.00     0.014 A 
HETATM   12  C   UNL     1     -43.074  55.990 -59.959  1.00  0.00     0.001 A 
HETATM   13  C   UNL     1     -44.298  56.542 -60.327  1.00  0.00     0.002 A 
HETATM   14  C   UNL     1     -45.024  57.346 -59.442  1.00  0.00     0.030 A 
ENDROOT
BRANCH   6  15
HETATM   15  C   UNL     1     -42.237  58.348 -52.971  1.00  0.00     0.229 C 
BRANCH  15  16
HETATM   16  C   UNL     1     -42.768  57.498 -51.805  1.00  0.00     0.235 C 
HETATM   17  N   UNL     1     -41.972  56.431 -51.470  1.00  0.00    -0.355 N 
HETATM   18  H   UNL     1     -41.225  56.248 -52.127  1.00  0.00     0.162 HD
HETATM   19  O   UNL     1     -43.785  57.825 -51.203  1.00  0.00    -0.272 OA
BRANCH  17  20
HETATM   20  C   UNL     1     -42.207  55.394 -50.473  1.00  0.00     0.084 C 
HETATM   21  C   UNL     1     -42.402  53.976 -51.030  1.00  0.00     0.025 C 
HETATM   22  C   UNL     1     -41.149  53.101 -51.083  1.00  0.00     0.002 C 
HETATM   23  C   UNL     1     -40.294  53.211 -49.828  1.00  0.00     0.000 C 
HETATM   24  C   UNL     1     -39.958  54.660 -49.502  1.00  0.00     0.002 C 
HETATM   25  C   UNL     1     -41.224  55.481 -49.303  1.00  0.00     0.025 C 
ENDBRANCH  17  20
ENDBRANCH  15  16
ENDBRANCH   6  15
BRANCH   5  26
HETATM   26  C   UNL     1     -41.782  55.872 -55.029  1.00  0.00    -0.030 A 
HETATM   27  C   UNL     1     -42.869  54.983 -54.973  1.00  0.00     0.012 A 
HETATM   28  C   UNL     1     -42.671  53.619 -54.741  1.00  0.00     0.037 A 
HETATM   29  C   UNL     1     -41.388  53.104 -54.566  1.00  0.00     0.068 A 
HETATM   30  C   UNL     1     -40.297  53.969 -54.625  1.00  0.00     0.037 A 
HETATM   31  C   UNL     1     -40.493  55.336 -54.860  1.00  0.00     0.012 A 
BRANCH  29  32
HETATM   32  O   UNL     1     -41.337  51.756 -54.349  1.00  0.00    -0.356 OA
HETATM   33  C   UNL     1     -40.047  51.176 -54.201  1.00  0.00     0.210 C 
ENDBRANCH  29  32
ENDBRANCH   5  26
TORSDOF 5
ENDMDL
MODEL 3
REMARK VINA RESULT:      -8.2      2.234      3.392
REMARK  5 active torsions:
REMARK  status: ('A' for Active; 'I' for Inactive)
REMARK    1  A    between atoms: C_5  and  C_6 
REMARK    2  A    between atoms: C_9  and  O_10 
REMARK    3  A    between atoms: N_14  and  C_15 
REMARK    4  A    between atoms: C_15  and  C_16 
REMARK       I    between atoms: C_16  and  N_17 
REMARK    5  A    between atoms: N_17  and  C_18 
ROOT
HETATM    1  C   UNL     1     -43.445  56.063 -58.241  1.00  0.00     0.156 C 
HETATM    2  N   UNL     1     -43.573  56.840 -57.032  1.00  0.00    -0.346 N 
HETATM    3  C   UNL     1     -43.430  56.373 -55.771  1.00  0.00     0.113 A 
HETATM    4  C   UNL     1     -43.659  57.381 -54.873  1.00  0.00     0.014 A 
HETATM    5  C   UNL     1     -43.538  56.870 -53.484  1.00  0.00     0.158 A 
HETATM    6  N   UNL     1     -43.103  55.480 -53.766  1.00  0.00    -0.325 N 
HETATM    7  C   UNL     1     -43.106  55.148 -55.123  1.00  0.00     0.272 A 
HETATM    8  O   UNL     1     -42.868  54.066 -55.628  1.00  0.00    -0.266 OA
HETATM    9  C   UNL     1     -43.922  58.557 -55.598  1.00  0.00     0.002 A 
HETATM   10  C   UNL     1     -43.851  58.201 -56.962  1.00  0.00     0.045 A 
HETATM   11  C   UNL     1     -44.191  59.894 -55.252  1.00  0.00     0.014 A 
HETATM   12  C   UNL     1     -44.374  60.841 -56.265  1.00  0.00     0.001 A 
HETATM   13  C   UNL     1     -44.299  60.472 -57.605  1.00  0.00     0.002 A 
HETATM   14  C   UNL     1     -44.039  59.150 -57.979  1.00  0.00     0.030 A 
ENDROOT
BRANCH   6  15
HETATM   15  C   UNL     1     -42.985  54.466 -52.726  1.00  0.00     0.229 C 
BRANCH  15  16
HETATM   16  C   UNL     1     -41.542  54.039 -52.409  1.00  0.00     0.235 C 
HETATM   17  N   UNL     1     -41.089  52.976 -53.150  1.00  0.00    -0.355 N 
HETATM   18  H   UNL     1     -41.805  52.512 -53.693  1.00  0.00     0.162 HD
HETATM   19  O   UNL     1     -40.863  54.670 -51.607  1.00  0.00    -0.272 OA
BRANCH  17  20
HETATM   20  C   UNL     1     -39.812  52.278 -53.059  1.00  0.00     0.084 C 
HETATM   21  C   UNL     1     -39.471  51.704 -51.676  1.00  0.00     0.025 C 
HETATM   22  C   UNL     1     -39.850  50.240 -51.448  1.00  0.00     0.002 C 
HETATM   23  C   UNL     1     -39.518  49.349 -52.637  1.00  0.00     0.000 C 
HETATM   24  C   UNL     1     -40.115  49.892 -53.929  1.00  0.00     0.002 C 
HETATM   25  C   UNL     1     -39.604  51.297 -54.216  1.00  0.00     0.025 C 
ENDBRANCH  17  20
ENDBRANCH  15  16
ENDBRANCH   6  15
BRANCH   5  26
HETATM   26  C   UNL     1     -42.525  57.685 -52.714  1.00  0.00    -0.030 A 
HETATM   27  C   UNL     1     -41.268  57.910 -53.301  1.00  0.00     0.012 A 
HETATM   28  C   UNL     1     -40.305  58.695 -52.659  1.00  0.00     0.037 A 
HETATM   29  C   UNL     1     -40.570  59.280 -51.422  1.00  0.00     0.068 A 
HETATM   30  C   UNL     1     -41.813  59.073 -50.828  1.00  0.00     0.037 A 
HETATM   31  C   UNL     1     -42.781  58.289 -51.470  1.00  0.00     0.012 A 
BRANCH  29  32
HETATM   32  O   UNL     1     -39.544  60.021 -50.908  1.00  0.00    -0.356 OA
HETATM   33  C   UNL     1     -38.375  59.315 -50.514  1.00  0.00     0.210 C 
ENDBRANCH  29  32
ENDBRANCH   5  26
TORSDOF 5
ENDMDL
MODEL 4
REMARK VINA RESULT:      -8.0      2.546      7.554
REMARK  5 active torsions:
REMARK  status: ('A' for Active; 'I' for Inactive)
REMARK    1  A    between atoms: C_5  and  C_6 
REMARK    2  A    between atoms: C_9  and  O_10 
REMARK    3  A    between atoms: N_14  and  C_15 
REMARK    4  A    between atoms: C_15  and  C_16 
REMARK       I    between atoms: C_16  and  N_17 
REMARK    5  A    between atoms: N_17  and  C_18 
ROOT
HETATM    1  C   UNL     1     -39.873  53.558 -49.849  1.00  0.00     0.156 C 
HETATM    2  N   UNL     1     -40.569  53.456 -51.109  1.00  0.00    -0.346 N 
HETATM    3  C   UNL     1     -41.621  54.212 -51.497  1.00  0.00     0.113 A 
HETATM    4  C   UNL     1     -42.049  53.813 -52.734  1.00  0.00     0.014 A 
HETATM    5  C   UNL     1     -43.226  54.614 -53.155  1.00  0.00     0.158 A 
HETATM    6  N   UNL     1     -43.296  55.570 -52.022  1.00  0.00    -0.325 N 
HETATM    7  C   UNL     1     -42.393  55.296 -50.991  1.00  0.00     0.272 A 
HETATM    8  O   UNL     1     -42.285  55.867 -49.922  1.00  0.00    -0.266 OA
HETATM    9  C   UNL     1     -41.204  52.777 -53.173  1.00  0.00     0.002 A 
HETATM   10  C   UNL     1     -40.265  52.573 -52.140  1.00  0.00     0.045 A 
HETATM   11  C   UNL     1     -41.114  52.002 -54.343  1.00  0.00     0.014 A 
HETATM   12  C   UNL     1     -40.093  51.053 -54.461  1.00  0.00     0.001 A 
HETATM   13  C   UNL     1     -39.174  50.866 -53.432  1.00  0.00     0.002 A 
HETATM   14  C   UNL     1     -39.244  51.618 -52.255  1.00  0.00     0.030 A 
ENDROOT
BRANCH   6  15
HETATM   15  C   UNL     1     -44.397  56.509 -51.852  1.00  0.00     0.229 C 
BRANCH  15  16
HETATM   16  C   UNL     1     -43.970  57.979 -51.715  1.00  0.00     0.235 C 
HETATM   17  N   UNL     1     -42.639  58.210 -51.963  1.00  0.00    -0.355 N 
HETATM   18  H   UNL     1     -42.081  57.370 -52.048  1.00  0.00     0.162 HD
HETATM   19  O   UNL     1     -44.796  58.853 -51.478  1.00  0.00    -0.272 OA
BRANCH  17  20
HETATM   20  C   UNL     1     -41.894  59.458 -51.856  1.00  0.00     0.084 C 
HETATM   21  C   UNL     1     -41.731  60.010 -50.432  1.00  0.00     0.025 C 
HETATM   22  C   UNL     1     -40.439  59.624 -49.710  1.00  0.00     0.002 C 
HETATM   23  C   UNL     1     -39.209  59.717 -50.603  1.00  0.00     0.000 C 
HETATM   24  C   UNL     1     -39.392  58.928 -51.893  1.00  0.00     0.002 C 
HETATM   25  C   UNL     1     -40.599  59.431 -52.673  1.00  0.00     0.025 C 
ENDBRANCH  17  20
ENDBRANCH  15  16
ENDBRANCH   6  15
BRANCH   5  26
HETATM   26  C   UNL     1     -42.962  55.267 -54.492  1.00  0.00    -0.030 A 
HETATM   27  C   UNL     1     -43.355  54.584 -55.655  1.00  0.00     0.012 A 
HETATM   28  C   UNL     1     -43.180  55.156 -56.919  1.00  0.00     0.037 A 
HETATM   29  C   UNL     1     -42.616  56.423 -57.056  1.00  0.00     0.068 A 
HETATM   30  C   UNL     1     -42.227  57.118 -55.914  1.00  0.00     0.037 A 
HETATM   31  C   UNL     1     -42.403  56.548 -54.646  1.00  0.00     0.012 A 
BRANCH  29  32
HETATM   32  O   UNL     1     -42.504  56.863 -58.345  1.00  0.00    -0.356 OA
HETATM   33  C   UNL     1     -42.844  55.939 -59.371  1.00  0.00     0.210 C 
ENDBRANCH  29  32
ENDBRANCH   5  26
TORSDOF 5
ENDMDL
MODEL 5
REMARK VINA RESULT:      -7.9      2.980      6.759
REMARK  5 active torsions:
REMARK  status: ('A' for Active; 'I' for Inactive)
REMARK    1  A    between atoms: C_5  and  C_6 
REMARK    2  A    between atoms: C_9  and  O_10 
REMARK    3  A    between atoms: N_14  and  C_15 
REMARK    4  A    between atoms: C_15  and  C_16 
REMARK       I    between atoms: C_16  and  N_17 
REMARK    5  A    between atoms: N_17  and  C_18 
ROOT
HETATM    1  C   UNL     1     -41.721  52.844 -54.335  1.00  0.00     0.156 C 
HETATM    2  N   UNL     1     -41.673  54.056 -53.552  1.00  0.00    -0.346 N 
HETATM    3  C   UNL     1     -42.148  55.263 -53.931  1.00  0.00     0.113 A 
HETATM    4  C   UNL     1     -41.896  56.189 -52.956  1.00  0.00     0.014 A 
HETATM    5  C   UNL     1     -42.384  57.528 -53.376  1.00  0.00     0.158 A 
HETATM    6  N   UNL     1     -43.031  57.164 -54.662  1.00  0.00    -0.325 N 
HETATM    7  C   UNL     1     -42.834  55.834 -55.041  1.00  0.00     0.272 A 
HETATM    8  O   UNL     1     -43.186  55.291 -56.072  1.00  0.00    -0.266 OA
HETATM    9  C   UNL     1     -41.263  55.532 -51.886  1.00  0.00     0.002 A 
HETATM   10  C   UNL     1     -41.141  54.180 -52.273  1.00  0.00     0.045 A 
HETATM   11  C   UNL     1     -40.799  55.925 -50.617  1.00  0.00     0.014 A 
HETATM   12  C   UNL     1     -40.235  54.969 -49.766  1.00  0.00     0.001 A 
HETATM   13  C   UNL     1     -40.124  53.639 -50.165  1.00  0.00     0.002 A 
HETATM   14  C   UNL     1     -40.571  53.221 -51.422  1.00  0.00     0.030 A 
ENDROOT
BRANCH   6  15
HETATM   15  C   UNL     1     -43.551  58.160 -55.589  1.00  0.00     0.229 C 
BRANCH  15  16
HETATM   16  C   UNL     1     -43.072  57.997 -57.041  1.00  0.00     0.235 C 
HETATM   17  N   UNL     1     -44.022  57.507 -57.902  1.00  0.00    -0.355 N 
HETATM   18  H   UNL     1     -44.861  57.170 -57.447  1.00  0.00     0.162 HD
HETATM   19  O   UNL     1     -41.949  58.357 -57.374  1.00  0.00    -0.272 OA
BRANCH  17  20
HETATM   20  C   UNL     1     -43.888  57.168 -59.313  1.00  0.00     0.084 C 
HETATM   21  C   UNL     1     -43.299  55.780 -59.605  1.00  0.00     0.025 C 
HETATM   22  C   UNL     1     -44.314  54.657 -59.828  1.00  0.00     0.002 C 
HETATM   23  C   UNL     1     -45.484  55.081 -60.705  1.00  0.00     0.000 C 
HETATM   24  C   UNL     1     -46.149  56.347 -60.181  1.00  0.00     0.002 C 
HETATM   25  C   UNL     1     -45.153  57.495 -60.111  1.00  0.00     0.025 C 
ENDBRANCH  17  20
ENDBRANCH  15  16
ENDBRANCH   6  15
BRANCH   5  26
HETATM   26  C   UNL     1     -43.339  58.084 -52.345  1.00  0.00    -0.030 A 
HETATM   27  C   UNL     1     -43.109  59.380 -51.858  1.00  0.00     0.012 A 
HETATM   28  C   UNL     1     -43.983  59.968 -50.938  1.00  0.00     0.037 A 
HETATM   29  C   UNL     1     -45.109  59.282 -50.485  1.00  0.00     0.068 A 
HETATM   30  C   UNL     1     -45.356  57.997 -50.963  1.00  0.00     0.037 A 
HETATM   31  C   UNL     1     -44.483  57.407 -51.886  1.00  0.00     0.012 A 
BRANCH  29  32
HETATM   32  O   UNL     1     -45.878  59.971 -49.590  1.00  0.00    -0.356 OA
HETATM   33  C   UNL     1     -45.275  61.090 -48.953  1.00  0.00     0.210 C 
ENDBRANCH  29  32
ENDBRANCH   5  26
TORSDOF 5
ENDMDL
MODEL 6
REMARK VINA RESULT:      -7.9      2.243      8.428
REMARK  5 active torsions:
REMARK  status: ('A' for Active; 'I' for Inactive)
REMARK    1  A    between atoms: C_5  and  C_6 
REMARK    2  A    between atoms: C_9  and  O_10 
REMARK    3  A    between atoms: N_14  and  C_15 
REMARK    4  A    between atoms: C_15  and  C_16 
REMARK       I    between atoms: C_16  and  N_17 
REMARK    5  A    between atoms: N_17  and  C_18 
ROOT
HETATM    1  C   UNL     1     -39.566  53.931 -49.849  1.00  0.00     0.156 C 
HETATM    2  N   UNL     1     -40.355  53.855 -51.055  1.00  0.00    -0.346 N 
HETATM    3  C   UNL     1     -41.362  54.691 -51.397  1.00  0.00     0.113 A 
HETATM    4  C   UNL     1     -41.910  54.297 -52.587  1.00  0.00     0.014 A 
HETATM    5  C   UNL     1     -43.039  55.188 -52.956  1.00  0.00     0.158 A 
HETATM    6  N   UNL     1     -42.945  56.178 -51.854  1.00  0.00    -0.325 N 
HETATM    7  C   UNL     1     -41.998  55.854 -50.878  1.00  0.00     0.272 A 
HETATM    8  O   UNL     1     -41.765  56.444 -49.839  1.00  0.00    -0.266 OA
HETATM    9  C   UNL     1     -41.192  53.177 -53.046  1.00  0.00     0.002 A 
HETATM   10  C   UNL     1     -40.204  52.919 -52.072  1.00  0.00     0.045 A 
HETATM   11  C   UNL     1     -41.253  52.364 -54.192  1.00  0.00     0.014 A 
HETATM   12  C   UNL     1     -40.329  51.325 -54.346  1.00  0.00     0.001 A 
HETATM   13  C   UNL     1     -39.361  51.085 -53.376  1.00  0.00     0.002 A 
HETATM   14  C   UNL     1     -39.280  51.873 -52.223  1.00  0.00     0.030 A 
ENDROOT
BRANCH   6  15
HETATM   15  C   UNL     1     -43.945  57.217 -51.642  1.00  0.00     0.229 C 
BRANCH  15  16
HETATM   16  C   UNL     1     -43.371  58.633 -51.469  1.00  0.00     0.235 C 
HETATM   17  N   UNL     1     -44.094  59.440 -50.626  1.00  0.00    -0.355 N 
HETATM   18  H   UNL     1     -44.990  59.057 -50.352  1.00  0.00     0.162 HD
HETATM   19  O   UNL     1     -42.312  58.949 -51.999  1.00  0.00    -0.272 OA
BRANCH  17  20
HETATM   20  C   UNL     1     -43.876  60.842 -50.296  1.00  0.00     0.084 C 
HETATM   21  C   UNL     1     -44.260  61.846 -51.393  1.00  0.00     0.025 C 
HETATM   22  C   UNL     1     -45.666  62.439 -51.294  1.00  0.00     0.002 C 
HETATM   23  C   UNL     1     -46.046  62.831 -49.873  1.00  0.00     0.000 C 
HETATM   24  C   UNL     1     -45.851  61.676 -48.901  1.00  0.00     0.002 C 
HETATM   25  C   UNL     1     -44.405  61.200 -48.904  1.00  0.00     0.025 C 
ENDBRANCH  17  20
ENDBRANCH  15  16
ENDBRANCH   6  15
BRANCH   5  26
HETATM   26  C   UNL     1     -42.814  55.776 -54.329  1.00  0.00    -0.030 A 
HETATM   27  C   UNL     1     -43.234  55.036 -55.446  1.00  0.00     0.012 A 
HETATM   28  C   UNL     1     -43.096  55.546 -56.741  1.00  0.00     0.037 A 
HETATM   29  C   UNL     1     -42.542  56.808 -56.955  1.00  0.00     0.068 A 
HETATM   30  C   UNL     1     -42.125  57.559 -55.858  1.00  0.00     0.037 A 
HETATM   31  C   UNL     1     -42.265  57.050 -54.560  1.00  0.00     0.012 A 
BRANCH  29  32
HETATM   32  O   UNL     1     -42.467  57.184 -58.266  1.00  0.00    -0.356 OA
HETATM   33  C   UNL     1     -42.859  56.221 -59.235  1.00  0.00     0.210 C 
ENDBRANCH  29  32
ENDBRANCH   5  26
TORSDOF 5
ENDMDL
MODEL 7
REMARK VINA RESULT:      -7.8      1.928      7.932
REMARK  5 active torsions:
REMARK  status: ('A' for Active; 'I' for Inactive)
REMARK    1  A    between atoms: C_5  and  C_6 
REMARK    2  A    between atoms: C_9  and  O_10 
REMARK    3  A    between atoms: N_14  and  C_15 
REMARK    4  A    between atoms: C_15  and  C_16 
REMARK       I    between atoms: C_16  and  N_17 
REMARK    5  A    between atoms: N_17  and  C_18 
ROOT
HETATM    1  C   UNL     1     -39.400  53.910 -49.835  1.00  0.00     0.156 C 
HETATM    2  N   UNL     1     -40.284  53.873 -50.975  1.00  0.00    -0.346 N 
HETATM    3  C   UNL     1     -41.314  54.718 -51.206  1.00  0.00     0.113 A 
HETATM    4  C   UNL     1     -41.957  54.362 -52.361  1.00  0.00     0.014 A 
HETATM    5  C   UNL     1     -43.111  55.263 -52.607  1.00  0.00     0.158 A 
HETATM    6  N   UNL     1     -42.927  56.217 -51.485  1.00  0.00    -0.325 N 
HETATM    7  C   UNL     1     -41.905  55.862 -50.600  1.00  0.00     0.272 A 
HETATM    8  O   UNL     1     -41.588  56.418 -49.564  1.00  0.00    -0.266 OA
HETATM    9  C   UNL     1     -41.280  53.259 -52.912  1.00  0.00     0.002 A 
HETATM   10  C   UNL     1     -40.217  52.970 -52.031  1.00  0.00     0.045 A 
HETATM   11  C   UNL     1     -41.435  52.484 -54.076  1.00  0.00     0.014 A 
HETATM   12  C   UNL     1     -40.528  51.451 -54.338  1.00  0.00     0.001 A 
HETATM   13  C   UNL     1     -39.485  51.181 -53.457  1.00  0.00     0.002 A 
HETATM   14  C   UNL     1     -39.310  51.931 -52.290  1.00  0.00     0.030 A 
ENDROOT
BRANCH   6  15
HETATM   15  C   UNL     1     -43.905  57.247 -51.159  1.00  0.00     0.229 C 
BRANCH  15  16
HETATM   16  C   UNL     1     -43.490  58.673 -51.557  1.00  0.00     0.235 C 
HETATM   17  N   UNL     1     -44.116  59.155 -52.680  1.00  0.00    -0.355 N 
HETATM   18  H   UNL     1     -44.647  58.460 -53.189  1.00  0.00     0.162 HD
HETATM   19  O   UNL     1     -42.717  59.319 -50.858  1.00  0.00    -0.272 OA
BRANCH  17  20
HETATM   20  C   UNL     1     -43.910  60.424 -53.366  1.00  0.00     0.084 C 
HETATM   21  C   UNL     1     -42.484  60.672 -53.880  1.00  0.00     0.025 C 
HETATM   22  C   UNL     1     -42.221  60.282 -55.335  1.00  0.00     0.002 C 
HETATM   23  C   UNL     1     -43.347  60.696 -56.274  1.00  0.00     0.000 C 
HETATM   24  C   UNL     1     -44.697  60.187 -55.788  1.00  0.00     0.002 C 
HETATM   25  C   UNL     1     -45.008  60.712 -54.394  1.00  0.00     0.025 C 
ENDBRANCH  17  20
ENDBRANCH  15  16
ENDBRANCH   6  15
BRANCH   5  26
HETATM   26  C   UNL     1     -42.997  55.896 -53.974  1.00  0.00    -0.030 A 
HETATM   27  C   UNL     1     -41.716  56.203 -54.460  1.00  0.00     0.012 A 
HETATM   28  C   UNL     1     -41.542  56.747 -55.737  1.00  0.00     0.037 A 
HETATM   29  C   UNL     1     -42.638  56.992 -56.563  1.00  0.00     0.068 A 
HETATM   30  C   UNL     1     -43.916  56.688 -56.100  1.00  0.00     0.037 A 
HETATM   31  C   UNL     1     -44.092  56.141 -54.822  1.00  0.00     0.012 A 
BRANCH  29  32
HETATM   32  O   UNL     1     -42.327  57.523 -57.783  1.00  0.00    -0.356 OA
HETATM   33  C   UNL     1     -43.409  57.777 -58.669  1.00  0.00     0.210 C 
ENDBRANCH  29  32
ENDBRANCH   5  26
TORSDOF 5
ENDMDL
MODEL 8
REMARK VINA RESULT:      -7.5      2.538      5.035
REMARK  5 active torsions:
REMARK  status: ('A' for Active; 'I' for Inactive)
REMARK    1  A    between atoms: C_5  and  C_6 
REMARK    2  A    between atoms: C_9  and  O_10 
REMARK    3  A    between atoms: N_14  and  C_15 
REMARK    4  A    between atoms: C_15  and  C_16 
REMARK       I    between atoms: C_16  and  N_17 
REMARK    5  A    between atoms: N_17  and  C_18 
ROOT
HETATM    1  C   UNL     1     -43.013  61.769 -53.962  1.00  0.00     0.156 C 
HETATM    2  N   UNL     1     -43.445  60.558 -53.306  1.00  0.00    -0.346 N 
HETATM    3  C   UNL     1     -43.048  59.304 -53.617  1.00  0.00     0.113 A 
HETATM    4  C   UNL     1     -43.690  58.401 -52.814  1.00  0.00     0.014 A 
HETATM    5  C   UNL     1     -43.286  57.016 -53.170  1.00  0.00     0.158 A 
HETATM    6  N   UNL     1     -42.256  57.313 -54.197  1.00  0.00    -0.325 N 
HETATM    7  C   UNL     1     -42.156  58.667 -54.526  1.00  0.00     0.272 A 
HETATM    8  O   UNL     1     -41.454  59.178 -55.380  1.00  0.00    -0.266 OA
HETATM    9  C   UNL     1     -44.507  59.117 -51.922  1.00  0.00     0.002 A 
HETATM   10  C   UNL     1     -44.331  60.481 -52.237  1.00  0.00     0.045 A 
HETATM   11  C   UNL     1     -45.363  58.764 -50.862  1.00  0.00     0.014 A 
HETATM   12  C   UNL     1     -46.013  59.771 -50.141  1.00  0.00     0.001 A 
HETATM   13  C   UNL     1     -45.827  61.112 -50.466  1.00  0.00     0.002 A 
HETATM   14  C   UNL     1     -44.987  61.492 -51.517  1.00  0.00     0.030 A 
ENDROOT
BRANCH   6  15
HETATM   15  C   UNL     1     -41.631  56.275 -55.006  1.00  0.00     0.229 C 
BRANCH  15  16
HETATM   16  C   UNL     1     -42.479  55.791 -56.194  1.00  0.00     0.235 C 
HETATM   17  N   UNL     1     -42.460  56.625 -57.283  1.00  0.00    -0.355 N 
HETATM   18  H   UNL     1     -42.023  57.521 -57.113  1.00  0.00     0.162 HD
HETATM   19  O   UNL     1     -43.048  54.706 -56.156  1.00  0.00    -0.272 OA
BRANCH  17  20
HETATM   20  C   UNL     1     -43.197  56.508 -58.535  1.00  0.00     0.084 C 
HETATM   21  C   UNL     1     -44.486  57.338 -58.623  1.00  0.00     0.025 C 
HETATM   22  C   UNL     1     -44.351  58.714 -59.276  1.00  0.00     0.002 C 
HETATM   23  C   UNL     1     -43.488  58.694 -60.531  1.00  0.00     0.000 C 
HETATM   24  C   UNL     1     -42.130  58.059 -60.267  1.00  0.00     0.002 C 
HETATM   25  C   UNL     1     -42.285  56.632 -59.759  1.00  0.00     0.025 C 
ENDBRANCH  17  20
ENDBRANCH  15  16
ENDBRANCH   6  15
BRANCH   5  26
HETATM   26  C   UNL     1     -42.749  56.300 -51.953  1.00  0.00    -0.030 A 
HETATM   27  C   UNL     1     -41.677  56.882 -51.257  1.00  0.00     0.012 A 
HETATM   28  C   UNL     1     -41.166  56.291 -50.097  1.00  0.00     0.037 A 
HETATM   29  C   UNL     1     -41.714  55.110 -49.598  1.00  0.00     0.068 A 
HETATM   30  C   UNL     1     -42.782  54.522 -50.271  1.00  0.00     0.037 A 
HETATM   31  C   UNL     1     -43.297  55.114 -51.432  1.00  0.00     0.012 A 
BRANCH  29  32
HETATM   32  O   UNL     1     -41.122  54.642 -48.459  1.00  0.00    -0.356 OA
HETATM   33  C   UNL     1     -40.442  53.397 -48.552  1.00  0.00     0.210 C 
ENDBRANCH  29  32
ENDBRANCH   5  26
TORSDOF 5
ENDMDL
MODEL 9
REMARK VINA RESULT:      -7.4      2.285      5.222
REMARK  5 active torsions:
REMARK  status: ('A' for Active; 'I' for Inactive)
REMARK    1  A    between atoms: C_5  and  C_6 
REMARK    2  A    between atoms: C_9  and  O_10 
REMARK    3  A    between atoms: N_14  and  C_15 
REMARK    4  A    between atoms: C_15  and  C_16 
REMARK       I    between atoms: C_16  and  N_17 
REMARK    5  A    between atoms: N_17  and  C_18 
ROOT
HETATM    1  C   UNL     1     -43.970  58.006 -51.079  1.00  0.00     0.156 C 
HETATM    2  N   UNL     1     -43.526  58.147 -52.445  1.00  0.00    -0.346 N 
HETATM    3  C   UNL     1     -43.210  57.136 -53.285  1.00  0.00     0.113 A 
HETATM    4  C   UNL     1     -42.793  57.642 -54.486  1.00  0.00     0.014 A 
HETATM    5  C   UNL     1     -42.410  56.539 -55.405  1.00  0.00     0.158 A 
HETATM    6  N   UNL     1     -42.788  55.374 -54.567  1.00  0.00    -0.325 N 
HETATM    7  C   UNL     1     -43.196  55.712 -53.274  1.00  0.00     0.272 A 
HETATM    8  O   UNL     1     -43.488  54.960 -52.362  1.00  0.00    -0.266 OA
HETATM    9  C   UNL     1     -42.884  59.044 -54.422  1.00  0.00     0.002 A 
HETATM   10  C   UNL     1     -43.362  59.347 -53.130  1.00  0.00     0.045 A 
HETATM   11  C   UNL     1     -42.638  60.094 -55.325  1.00  0.00     0.014 A 
HETATM   12  C   UNL     1     -42.878  61.413 -54.925  1.00  0.00     0.001 A 
HETATM   13  C   UNL     1     -43.351  61.694 -53.647  1.00  0.00     0.002 A 
HETATM   14  C   UNL     1     -43.600  60.670 -52.726  1.00  0.00     0.030 A 
ENDROOT
BRANCH   6  15
HETATM   15  C   UNL     1     -42.471  54.002 -54.940  1.00  0.00     0.229 C 
BRANCH  15  16
HETATM   16  C   UNL     1     -41.022  53.577 -54.651  1.00  0.00     0.235 C 
HETATM   17  N   UNL     1     -40.884  52.696 -53.608  1.00  0.00    -0.355 N 
HETATM   18  H   UNL     1     -41.728  52.561 -53.065  1.00  0.00     0.162 HD
HETATM   19  O   UNL     1     -40.102  53.959 -55.367  1.00  0.00    -0.272 OA
BRANCH  17  20
HETATM   20  C   UNL     1     -39.664  52.151 -53.028  1.00  0.00     0.084 C 
HETATM   21  C   UNL     1     -39.591  52.179 -51.494  1.00  0.00     0.025 C 
HETATM   22  C   UNL     1     -40.042  50.904 -50.780  1.00  0.00     0.002 C 
HETATM   23  C   UNL     1     -39.525  49.636 -51.446  1.00  0.00     0.000 C 
HETATM   24  C   UNL     1     -39.865  49.603 -52.930  1.00  0.00     0.002 C 
HETATM   25  C   UNL     1     -39.275  50.807 -53.651  1.00  0.00     0.025 C 
ENDBRANCH  17  20
ENDBRANCH  15  16
ENDBRANCH   6  15
BRANCH   5  26
HETATM   26  C   UNL     1     -43.187  56.643 -56.697  1.00  0.00    -0.030 A 
HETATM   27  C   UNL     1     -42.884  55.740 -57.729  1.00  0.00     0.012 A 
HETATM   28  C   UNL     1     -43.599  55.755 -58.931  1.00  0.00     0.037 A 
HETATM   29  C   UNL     1     -44.637  56.664 -59.132  1.00  0.00     0.068 A 
HETATM   30  C   UNL     1     -44.956  57.562 -58.116  1.00  0.00     0.037 A 
HETATM   31  C   UNL     1     -44.242  57.547 -56.911  1.00  0.00     0.012 A 
BRANCH  29  32
HETATM   32  O   UNL     1     -45.252  56.569 -60.348  1.00  0.00    -0.356 OA
HETATM   33  C   UNL     1     -45.105  55.342 -61.050  1.00  0.00     0.210 C 
ENDBRANCH  29  32
ENDBRANCH   5  26
TORSDOF 5
ENDMDL
MODEL 10
REMARK VINA RESULT:      -7.3      2.816      7.207
REMARK  5 active torsions:
REMARK  status: ('A' for Active; 'I' for Inactive)
REMARK    1  A    between atoms: C_5  and  C_6 
REMARK    2  A    between atoms: C_9  and  O_10 
REMARK    3  A    between atoms: N_14  and  C_15 
REMARK    4  A    between atoms: C_15  and  C_16 
REMARK       I    between atoms: C_16  and  N_17 
REMARK    5  A    between atoms: N_17  and  C_18 
ROOT
HETATM    1  C   UNL     1     -41.051  53.671 -54.045  1.00  0.00     0.156 C 
HETATM    2  N   UNL     1     -41.186  54.726 -53.070  1.00  0.00    -0.346 N 
HETATM    3  C   UNL     1     -41.414  56.031 -53.341  1.00  0.00     0.113 A 
HETATM    4  C   UNL     1     -41.446  56.749 -52.176  1.00  0.00     0.014 A 
HETATM    5  C   UNL     1     -41.662  58.190 -52.465  1.00  0.00     0.158 A 
HETATM    6  N   UNL     1     -41.853  58.124 -53.935  1.00  0.00    -0.325 N 
HETATM    7  C   UNL     1     -41.635  56.856 -54.480  1.00  0.00     0.272 A 
HETATM    8  O   UNL     1     -41.650  56.535 -55.654  1.00  0.00    -0.266 OA
HETATM    9  C   UNL     1     -41.268  55.852 -51.108  1.00  0.00     0.002 A 
HETATM   10  C   UNL     1     -41.119  54.575 -51.689  1.00  0.00     0.045 A 
HETATM   11  C   UNL     1     -41.240  55.974 -49.707  1.00  0.00     0.014 A 
HETATM   12  C   UNL     1     -41.073  54.829 -48.921  1.00  0.00     0.001 A 
HETATM   13  C   UNL     1     -40.928  53.577 -49.512  1.00  0.00     0.002 A 
HETATM   14  C   UNL     1     -40.946  53.426 -50.902  1.00  0.00     0.030 A 
ENDROOT
BRANCH   6  15
HETATM   15  C   UNL     1     -41.951  59.315 -54.769  1.00  0.00     0.229 C 
BRANCH  15  16
HETATM   16  C   UNL     1     -43.026  59.242 -55.866  1.00  0.00     0.235 C 
HETATM   17  N   UNL     1     -42.530  59.158 -57.144  1.00  0.00    -0.355 N 
HETATM   18  H   UNL     1     -41.533  59.313 -57.213  1.00  0.00     0.162 HD
HETATM   19  O   UNL     1     -44.216  59.189 -55.575  1.00  0.00    -0.272 OA
BRANCH  17  20
HETATM   20  C   UNL     1     -43.258  59.145 -58.406  1.00  0.00     0.084 C 
HETATM   21  C   UNL     1     -43.157  60.430 -59.241  1.00  0.00     0.025 C 
HETATM   22  C   UNL     1     -42.066  60.447 -60.312  1.00  0.00     0.002 C 
HETATM   23  C   UNL     1     -41.978  59.141 -61.090  1.00  0.00     0.000 C 
HETATM   24  C   UNL     1     -41.839  57.943 -60.162  1.00  0.00     0.002 C 
HETATM   25  C   UNL     1     -43.017  57.859 -59.201  1.00  0.00     0.025 C 
ENDBRANCH  17  20
ENDBRANCH  15  16
ENDBRANCH   6  15
BRANCH   5  26
HETATM   26  C   UNL     1     -42.870  58.698 -51.712  1.00  0.00    -0.030 A 
HETATM   27  C   UNL     1     -42.781  59.948 -51.078  1.00  0.00     0.012 A 
HETATM   28  C   UNL     1     -43.879  60.493 -50.405  1.00  0.00     0.037 A 
HETATM   29  C   UNL     1     -45.093  59.811 -50.352  1.00  0.00     0.068 A 
HETATM   30  C   UNL     1     -45.202  58.573 -50.980  1.00  0.00     0.037 A 
HETATM   31  C   UNL     1     -44.104  58.026 -51.657  1.00  0.00     0.012 A 
BRANCH  29  32
HETATM   32  O   UNL     1     -46.082  60.457 -49.664  1.00  0.00    -0.356 OA
HETATM   33  C   UNL     1     -45.937  61.861 -49.495  1.00  0.00     0.210 C 
ENDBRANCH  29  32
ENDBRANCH   5  26
TORSDOF 5
ENDMDL
