MODEL 1
REMARK VINA RESULT:      -8.1      0.000      0.000
REMARK  10 active torsions:
REMARK  status: ('A' for Active; 'I' for Inactive)
REMARK    1  A    between atoms: C_2  and  C_3 
REMARK    2  A    between atoms: C_3  and  C_4 
REMARK    3  A    between atoms: N_7  and  C_9 
REMARK    4  A    between atoms: C_9  and  C_10 
REMARK    5  A    between atoms: C_12  and  O_13 
REMARK    6  A    between atoms: O_13  and  C_14 
REMARK    7  A    between atoms: C_16  and  O_17 
REMARK    8  A    between atoms: N_25  and  C_26 
REMARK    9  A    between atoms: C_26  and  C_27 
REMARK   10  A    between atoms: C_27  and  C_28 
ROOT
HETATM    1  C   UNL     1     -43.268  58.055 -53.343  1.00  0.00     0.026 C 
HETATM    2  C   UNL     1     -42.487  59.370 -53.512  1.00  0.00     0.035 C 
HETATM    3  C   UNL     1     -42.255  60.146 -52.217  1.00  0.00     0.235 C 
HETATM    4  N   UNL     1     -43.551  60.368 -51.476  1.00  0.00    -0.067 N 
HETATM    5  H   UNL     1     -44.112  61.007 -52.054  1.00  0.00     0.280 HD
HETATM    6  C   UNL     1     -44.353  59.108 -51.262  1.00  0.00     0.235 C 
HETATM    7  C   UNL     1     -44.565  58.371 -52.571  1.00  0.00     0.035 C 
ENDROOT
BRANCH   1   8
HETATM    8  C   UNL     1     -42.412  56.872 -52.789  1.00  0.00     0.119 C 
HETATM    9  N   UNL     1     -43.178  55.955 -51.962  1.00  0.00    -0.324 N 
HETATM   10  C   UNL     1     -42.945  54.643 -52.322  1.00  0.00     0.326 C 
HETATM   11  H   UNL     1     -43.279  56.072 -50.959  1.00  0.00     0.165 HD
HETATM   12  O   UNL     1     -43.267  53.708 -51.612  1.00  0.00    -0.247 OA
HETATM   13  N   UNL     1     -42.321  54.617 -53.526  1.00  0.00    -0.268 N 
HETATM   14  C   UNL     1     -41.974  55.886 -53.901  1.00  0.00     0.256 C 
HETATM   15  O   UNL     1     -41.391  56.208 -54.926  1.00  0.00    -0.270 OA
BRANCH   8  16
HETATM   16  C   UNL     1     -41.155  57.295 -51.984  1.00  0.00     0.037 C 
HETATM   17  C   UNL     1     -41.223  57.071 -50.480  1.00  0.00     0.008 C 
ENDBRANCH   8  16
BRANCH  13  18
HETATM   18  C   UNL     1     -41.848  53.403 -54.173  1.00  0.00     0.142 C 
BRANCH  18  19
HETATM   19  C   UNL     1     -40.338  53.187 -54.018  1.00  0.00     0.068 C 
BRANCH  19  20
HETATM   20  C   UNL     1     -40.045  52.079 -53.057  1.00  0.00     0.010 A 
HETATM   21  S   UNL     1     -39.943  52.379 -51.370  1.00  0.00    -0.085 SA
HETATM   22  C   UNL     1     -39.622  50.719 -51.109  1.00  0.00     0.166 A 
HETATM   23  N   UNL     1     -39.587  49.963 -52.183  1.00  0.00    -0.258 NA
HETATM   24  C   UNL     1     -39.823  50.733 -53.310  1.00  0.00     0.044 A 
HETATM   25  C   UNL     1     -39.822  50.056 -54.636  1.00  0.00     0.071 C 
ENDBRANCH  19  20
ENDBRANCH  18  19
ENDBRANCH  13  18
ENDBRANCH   1   8
BRANCH   4  26
HETATM   26  C   UNL     1     -43.367  61.068 -50.135  1.00  0.00     0.273 C 
BRANCH  26  27
HETATM   27  C   UNL     1     -44.628  61.596 -49.508  1.00  0.00    -0.030 A 
HETATM   28  C   UNL     1     -45.139  60.983 -48.344  1.00  0.00     0.048 A 
HETATM   29  C   UNL     1     -46.294  61.469 -47.733  1.00  0.00     0.102 A 
HETATM   30  C   UNL     1     -46.933  62.576 -48.297  1.00  0.00     0.099 A 
HETATM   31  C   UNL     1     -46.448  63.191 -49.445  1.00  0.00     0.040 A 
HETATM   32  C   UNL     1     -45.294  62.703 -50.054  1.00  0.00     0.012 A 
BRANCH  29  33
HETATM   33  O   UNL     1     -46.883  60.968 -46.604  1.00  0.00    -0.349 OA
BRANCH  33  34
HETATM   34  C   UNL     1     -46.206  59.913 -45.921  1.00  0.00     0.171 C 
HETATM   35  C   UNL     1     -47.210  58.814 -45.629  1.00  0.00     0.034 C 
ENDBRANCH  33  34
ENDBRANCH  29  33
BRANCH  30  36
HETATM   36  O   UNL     1     -48.067  63.084 -47.729  1.00  0.00    -0.358 OA
HETATM   37  H   UNL     1     -48.245  62.532 -46.943  1.00  0.00     0.218 HD
ENDBRANCH  30  36
ENDBRANCH  26  27
ENDBRANCH   4  26
TORSDOF 10
ENDMDL
MODEL 2
REMARK VINA RESULT:      -7.9      5.885      9.751
REMARK  10 active torsions:
REMARK  status: ('A' for Active; 'I' for Inactive)
REMARK    1  A    between atoms: C_2  and  C_3 
REMARK    2  A    between atoms: C_3  and  C_4 
REMARK    3  A    between atoms: N_7  and  C_9 
REMARK    4  A    between atoms: C_9  and  C_10 
REMARK    5  A    between atoms: C_12  and  O_13 
REMARK    6  A    between atoms: O_13  and  C_14 
REMARK    7  A    between atoms: C_16  and  O_17 
REMARK    8  A    between atoms: N_25  and  C_26 
REMARK    9  A    between atoms: C_26  and  C_27 
REMARK   10  A    between atoms: C_27  and  C_28 
ROOT
HETATM    1  C   UNL     1     -42.830  56.966 -54.898  1.00  0.00     0.026 C 
HETATM    2  C   UNL     1     -41.441  56.855 -54.246  1.00  0.00     0.035 C 
HETATM    3  C   UNL     1     -40.632  55.631 -54.673  1.00  0.00     0.235 C 
HETATM    4  N   UNL     1     -41.428  54.362 -54.492  1.00  0.00    -0.067 N 
HETATM    5  H   UNL     1     -41.554  54.238 -53.479  1.00  0.00     0.280 HD
HETATM    6  C   UNL     1     -42.796  54.405 -55.128  1.00  0.00     0.235 C 
HETATM    7  C   UNL     1     -43.567  55.630 -54.675  1.00  0.00     0.035 C 
ENDROOT
BRANCH   1   8
HETATM    8  C   UNL     1     -42.804  57.499 -56.366  1.00  0.00     0.119 C 
HETATM    9  N   UNL     1     -42.216  56.555 -57.301  1.00  0.00    -0.324 N 
HETATM   10  C   UNL     1     -43.003  56.409 -58.426  1.00  0.00     0.326 C 
HETATM   11  H   UNL     1     -41.224  56.537 -57.514  1.00  0.00     0.165 HD
HETATM   12  O   UNL     1     -42.591  55.882 -59.443  1.00  0.00    -0.247 OA
HETATM   13  N   UNL     1     -44.225  56.944 -58.185  1.00  0.00    -0.268 N 
HETATM   14  C   UNL     1     -44.221  57.601 -56.985  1.00  0.00     0.256 C 
HETATM   15  O   UNL     1     -45.159  58.199 -56.480  1.00  0.00    -0.270 OA
BRANCH   8  16
HETATM   16  C   UNL     1     -42.086  58.860 -56.555  1.00  0.00     0.037 C 
HETATM   17  C   UNL     1     -42.486  59.964 -55.585  1.00  0.00     0.008 C 
ENDBRANCH   8  16
BRANCH  13  18
HETATM   18  C   UNL     1     -45.283  57.041 -59.179  1.00  0.00     0.142 C 
BRANCH  18  19
HETATM   19  C   UNL     1     -44.937  57.983 -60.337  1.00  0.00     0.068 C 
BRANCH  19  20
HETATM   20  C   UNL     1     -44.647  59.365 -59.845  1.00  0.00     0.010 A 
HETATM   21  S   UNL     1     -45.898  60.361 -59.224  1.00  0.00    -0.085 SA
HETATM   22  C   UNL     1     -44.751  61.598 -58.935  1.00  0.00     0.166 A 
HETATM   23  N   UNL     1     -43.510  61.321 -59.266  1.00  0.00    -0.258 NA
HETATM   24  C   UNL     1     -43.437  60.043 -59.795  1.00  0.00     0.044 A 
HETATM   25  C   UNL     1     -42.107  59.541 -60.236  1.00  0.00     0.071 C 
ENDBRANCH  19  20
ENDBRANCH  18  19
ENDBRANCH  13  18
ENDBRANCH   1   8
BRANCH   4  26
HETATM   26  C   UNL     1     -40.698  53.116 -54.979  1.00  0.00     0.273 C 
BRANCH  26  27
HETATM   27  C   UNL     1     -40.298  52.145 -53.903  1.00  0.00    -0.030 A 
HETATM   28  C   UNL     1     -40.285  52.561 -52.555  1.00  0.00     0.048 A 
HETATM   29  C   UNL     1     -39.940  51.671 -51.539  1.00  0.00     0.102 A 
HETATM   30  C   UNL     1     -39.607  50.359 -51.884  1.00  0.00     0.099 A 
HETATM   31  C   UNL     1     -39.608  49.930 -53.206  1.00  0.00     0.040 A 
HETATM   32  C   UNL     1     -39.954  50.822 -54.220  1.00  0.00     0.012 A 
BRANCH  29  33
HETATM   33  O   UNL     1     -39.896  51.950 -50.199  1.00  0.00    -0.349 OA
BRANCH  33  34
HETATM   34  C   UNL     1     -40.607  53.102 -49.744  1.00  0.00     0.171 C 
HETATM   35  C   UNL     1     -39.597  54.189 -49.428  1.00  0.00     0.034 C 
ENDBRANCH  33  34
ENDBRANCH  29  33
BRANCH  30  36
HETATM   36  O   UNL     1     -39.263  49.455 -50.919  1.00  0.00    -0.358 OA
HETATM   37  H   UNL     1     -38.286  49.440 -50.900  1.00  0.00     0.218 HD
ENDBRANCH  30  36
ENDBRANCH  26  27
ENDBRANCH   4  26
TORSDOF 10
ENDMDL
MODEL 3
REMARK VINA RESULT:      -7.8      3.766      6.314
REMARK  10 active torsions:
REMARK  status: ('A' for Active; 'I' for Inactive)
REMARK    1  A    between atoms: C_2  and  C_3 
REMARK    2  A    between atoms: C_3  and  C_4 
REMARK    3  A    between atoms: N_7  and  C_9 
REMARK    4  A    between atoms: C_9  and  C_10 
REMARK    5  A    between atoms: C_12  and  O_13 
REMARK    6  A    between atoms: O_13  and  C_14 
REMARK    7  A    between atoms: C_16  and  O_17 
REMARK    8  A    between atoms: N_25  and  C_26 
REMARK    9  A    between atoms: C_26  and  C_27 
REMARK   10  A    between atoms: C_27  and  C_28 
ROOT
HETATM    1  C   UNL     1     -41.175  58.236 -51.601  1.00  0.00     0.026 C 
HETATM    2  C   UNL     1     -41.838  59.525 -51.083  1.00  0.00     0.035 C 
HETATM    3  C   UNL     1     -42.751  60.223 -52.091  1.00  0.00     0.235 C 
HETATM    4  N   UNL     1     -42.037  60.459 -53.399  1.00  0.00    -0.067 N 
HETATM    5  H   UNL     1     -41.300  61.149 -53.209  1.00  0.00     0.280 HD
HETATM    6  C   UNL     1     -41.382  59.223 -53.967  1.00  0.00     0.235 C 
HETATM    7  C   UNL     1     -40.482  58.565 -52.939  1.00  0.00     0.035 C 
ENDROOT
BRANCH   1   8
HETATM    8  C   UNL     1     -42.119  56.992 -51.605  1.00  0.00     0.119 C 
HETATM    9  N   UNL     1     -42.307  56.427 -52.931  1.00  0.00    -0.324 N 
HETATM   10  C   UNL     1     -42.145  55.056 -52.917  1.00  0.00     0.326 C 
HETATM   11  H   UNL     1     -43.049  56.726 -53.556  1.00  0.00     0.165 HD
HETATM   12  O   UNL     1     -42.507  54.350 -53.841  1.00  0.00    -0.247 OA
HETATM   13  N   UNL     1     -41.559  54.689 -51.751  1.00  0.00    -0.268 N 
HETATM   14  C   UNL     1     -41.483  55.764 -50.907  1.00  0.00     0.256 C 
HETATM   15  O   UNL     1     -41.020  55.768 -49.776  1.00  0.00    -0.270 OA
BRANCH   8  16
HETATM   16  C   UNL     1     -43.523  57.234 -50.992  1.00  0.00     0.037 C 
HETATM   17  C   UNL     1     -44.678  57.297 -51.981  1.00  0.00     0.008 C 
ENDBRANCH   8  16
BRANCH  13  18
HETATM   18  C   UNL     1     -41.313  53.310 -51.360  1.00  0.00     0.142 C 
BRANCH  18  19
HETATM   19  C   UNL     1     -39.871  52.859 -51.617  1.00  0.00     0.068 C 
BRANCH  19  20
HETATM   20  C   UNL     1     -39.829  51.643 -52.486  1.00  0.00     0.010 A 
HETATM   21  S   UNL     1     -40.010  51.769 -54.188  1.00  0.00    -0.085 SA
HETATM   22  C   UNL     1     -39.836  50.072 -54.318  1.00  0.00     0.166 A 
HETATM   23  N   UNL     1     -39.652  49.424 -53.189  1.00  0.00    -0.258 NA
HETATM   24  C   UNL     1     -39.651  50.314 -52.129  1.00  0.00     0.044 A 
HETATM   25  C   UNL     1     -39.459  49.771 -50.756  1.00  0.00     0.071 C 
ENDBRANCH  19  20
ENDBRANCH  18  19
ENDBRANCH  13  18
ENDBRANCH   1   8
BRANCH   4  26
HETATM   26  C   UNL     1     -42.928  61.080 -54.468  1.00  0.00     0.273 C 
BRANCH  26  27
HETATM   27  C   UNL     1     -43.603  60.101 -55.388  1.00  0.00    -0.030 A 
HETATM   28  C   UNL     1     -43.103  59.908 -56.693  1.00  0.00     0.048 A 
HETATM   29  C   UNL     1     -43.699  58.990 -57.555  1.00  0.00     0.102 A 
HETATM   30  C   UNL     1     -44.802  58.264 -57.099  1.00  0.00     0.099 A 
HETATM   31  C   UNL     1     -45.314  58.441 -55.819  1.00  0.00     0.040 A 
HETATM   32  C   UNL     1     -44.716  59.361 -54.960  1.00  0.00     0.012 A 
BRANCH  29  33
HETATM   33  O   UNL     1     -43.306  58.708 -58.836  1.00  0.00    -0.349 OA
BRANCH  33  34
HETATM   34  C   UNL     1     -42.095  57.969 -59.005  1.00  0.00     0.171 C 
HETATM   35  C   UNL     1     -42.348  56.868 -60.017  1.00  0.00     0.034 C 
ENDBRANCH  33  34
ENDBRANCH  29  33
BRANCH  30  36
HETATM   36  O   UNL     1     -45.416  57.353 -57.912  1.00  0.00    -0.358 OA
HETATM   37  H   UNL     1     -45.026  56.486 -57.687  1.00  0.00     0.218 HD
ENDBRANCH  30  36
ENDBRANCH  26  27
ENDBRANCH   4  26
TORSDOF 10
ENDMDL
MODEL 4
REMARK VINA RESULT:      -7.8      3.678      9.067
REMARK  10 active torsions:
REMARK  status: ('A' for Active; 'I' for Inactive)
REMARK    1  A    between atoms: C_2  and  C_3 
REMARK    2  A    between atoms: C_3  and  C_4 
REMARK    3  A    between atoms: N_7  and  C_9 
REMARK    4  A    between atoms: C_9  and  C_10 
REMARK    5  A    between atoms: C_12  and  O_13 
REMARK    6  A    between atoms: O_13  and  C_14 
REMARK    7  A    between atoms: C_16  and  O_17 
REMARK    8  A    between atoms: N_25  and  C_26 
REMARK    9  A    between atoms: C_26  and  C_27 
REMARK   10  A    between atoms: C_27  and  C_28 
ROOT
HETATM    1  C   UNL     1     -43.947  56.231 -54.683  1.00  0.00     0.026 C 
HETATM    2  C   UNL     1     -43.933  54.856 -53.991  1.00  0.00     0.035 C 
HETATM    3  C   UNL     1     -42.542  54.252 -53.799  1.00  0.00     0.235 C 
HETATM    4  N   UNL     1     -41.779  54.220 -55.100  1.00  0.00    -0.067 N 
HETATM    5  H   UNL     1     -42.263  53.547 -55.707  1.00  0.00     0.280 HD
HETATM    6  C   UNL     1     -41.741  55.548 -55.817  1.00  0.00     0.235 C 
HETATM    7  C   UNL     1     -43.140  56.110 -55.991  1.00  0.00     0.035 C 
ENDROOT
BRANCH   1   8
HETATM    8  C   UNL     1     -43.562  57.419 -53.746  1.00  0.00     0.119 C 
HETATM    9  N   UNL     1     -42.137  57.708 -53.751  1.00  0.00    -0.324 N 
HETATM   10  C   UNL     1     -41.901  59.059 -53.906  1.00  0.00     0.326 C 
HETATM   11  H   UNL     1     -41.484  57.268 -53.110  1.00  0.00     0.165 HD
HETATM   12  O   UNL     1     -40.814  59.558 -53.680  1.00  0.00    -0.247 OA
HETATM   13  N   UNL     1     -43.042  59.665 -54.314  1.00  0.00    -0.268 N 
HETATM   14  C   UNL     1     -44.085  58.780 -54.269  1.00  0.00     0.256 C 
HETATM   15  O   UNL     1     -45.249  59.012 -54.563  1.00  0.00    -0.270 OA
BRANCH   8  16
HETATM   16  C   UNL     1     -44.004  57.257 -52.268  1.00  0.00     0.037 C 
HETATM   17  C   UNL     1     -42.897  56.933 -51.275  1.00  0.00     0.008 C 
ENDBRANCH   8  16
BRANCH  13  18
HETATM   18  C   UNL     1     -43.183  61.102 -54.496  1.00  0.00     0.142 C 
BRANCH  18  19
HETATM   19  C   UNL     1     -42.959  61.898 -53.205  1.00  0.00     0.068 C 
BRANCH  19  20
HETATM   20  C   UNL     1     -43.890  61.450 -52.123  1.00  0.00     0.010 A 
HETATM   21  S   UNL     1     -45.583  61.697 -52.258  1.00  0.00    -0.085 SA
HETATM   22  C   UNL     1     -45.799  60.943 -50.738  1.00  0.00     0.166 A 
HETATM   23  N   UNL     1     -44.705  60.523 -50.143  1.00  0.00    -0.258 NA
HETATM   24  C   UNL     1     -43.601  60.812 -50.925  1.00  0.00     0.044 A 
HETATM   25  C   UNL     1     -42.258  60.416 -50.420  1.00  0.00     0.071 C 
ENDBRANCH  19  20
ENDBRANCH  18  19
ENDBRANCH  13  18
ENDBRANCH   1   8
BRANCH   4  26
HETATM   26  C   UNL     1     -40.354  53.701 -54.951  1.00  0.00     0.273 C 
BRANCH  26  27
HETATM   27  C   UNL     1     -40.133  52.755 -53.803  1.00  0.00    -0.030 A 
HETATM   28  C   UNL     1     -40.209  53.234 -52.478  1.00  0.00     0.048 A 
HETATM   29  C   UNL     1     -40.030  52.371 -51.399  1.00  0.00     0.102 A 
HETATM   30  C   UNL     1     -39.774  51.022 -51.657  1.00  0.00     0.099 A 
HETATM   31  C   UNL     1     -39.690  50.531 -52.954  1.00  0.00     0.040 A 
HETATM   32  C   UNL     1     -39.870  51.396 -54.032  1.00  0.00     0.012 A 
BRANCH  29  33
HETATM   33  O   UNL     1     -40.085  52.710 -50.073  1.00  0.00    -0.349 OA
BRANCH  33  34
HETATM   34  C   UNL     1     -39.775  54.060 -49.727  1.00  0.00     0.171 C 
HETATM   35  C   UNL     1     -40.933  54.623 -48.924  1.00  0.00     0.034 C 
ENDBRANCH  33  34
ENDBRANCH  29  33
BRANCH  30  36
HETATM   36  O   UNL     1     -39.593  50.142 -50.627  1.00  0.00    -0.358 OA
HETATM   37  H   UNL     1     -39.611  50.676 -49.810  1.00  0.00     0.218 HD
ENDBRANCH  30  36
ENDBRANCH  26  27
ENDBRANCH   4  26
TORSDOF 10
ENDMDL
MODEL 5
REMARK VINA RESULT:      -7.7      4.646      8.199
REMARK  10 active torsions:
REMARK  status: ('A' for Active; 'I' for Inactive)
REMARK    1  A    between atoms: C_2  and  C_3 
REMARK    2  A    between atoms: C_3  and  C_4 
REMARK    3  A    between atoms: N_7  and  C_9 
REMARK    4  A    between atoms: C_9  and  C_10 
REMARK    5  A    between atoms: C_12  and  O_13 
REMARK    6  A    between atoms: O_13  and  C_14 
REMARK    7  A    between atoms: C_16  and  O_17 
REMARK    8  A    between atoms: N_25  and  C_26 
REMARK    9  A    between atoms: C_26  and  C_27 
REMARK   10  A    between atoms: C_27  and  C_28 
ROOT
HETATM    1  C   UNL     1     -43.323  58.920 -54.776  1.00  0.00     0.026 C 
HETATM    2  C   UNL     1     -44.591  59.510 -55.417  1.00  0.00     0.035 C 
HETATM    3  C   UNL     1     -44.705  59.294 -56.925  1.00  0.00     0.235 C 
HETATM    4  N   UNL     1     -43.460  59.763 -57.637  1.00  0.00    -0.067 N 
HETATM    5  H   UNL     1     -43.431  60.785 -57.532  1.00  0.00     0.280 HD
HETATM    6  C   UNL     1     -42.182  59.200 -57.065  1.00  0.00     0.235 C 
HETATM    7  C   UNL     1     -42.106  59.440 -55.569  1.00  0.00     0.035 C 
ENDROOT
BRANCH   1   8
HETATM    8  C   UNL     1     -43.384  57.376 -54.548  1.00  0.00     0.119 C 
HETATM    9  N   UNL     1     -43.708  56.636 -55.756  1.00  0.00    -0.324 N 
HETATM   10  C   UNL     1     -42.850  55.570 -55.935  1.00  0.00     0.326 C 
HETATM   11  H   UNL     1     -44.662  56.420 -56.029  1.00  0.00     0.165 HD
HETATM   12  O   UNL     1     -43.087  54.671 -56.720  1.00  0.00    -0.247 OA
HETATM   13  N   UNL     1     -41.784  55.715 -55.111  1.00  0.00    -0.268 N 
HETATM   14  C   UNL     1     -41.990  56.764 -54.257  1.00  0.00     0.256 C 
HETATM   15  O   UNL     1     -41.228  57.153 -53.384  1.00  0.00    -0.270 OA
BRANCH   8  16
HETATM   16  C   UNL     1     -44.364  56.918 -53.437  1.00  0.00     0.037 C 
HETATM   17  C   UNL     1     -44.296  57.694 -52.128  1.00  0.00     0.008 C 
ENDBRANCH   8  16
BRANCH  13  18
HETATM   18  C   UNL     1     -40.720  54.733 -54.973  1.00  0.00     0.142 C 
BRANCH  18  19
HETATM   19  C   UNL     1     -41.228  53.347 -54.558  1.00  0.00     0.068 C 
BRANCH  19  20
HETATM   20  C   UNL     1     -40.613  52.907 -53.268  1.00  0.00     0.010 A 
HETATM   21  S   UNL     1     -40.739  53.874 -51.855  1.00  0.00    -0.085 SA
HETATM   22  C   UNL     1     -39.848  52.697 -50.989  1.00  0.00     0.166 A 
HETATM   23  N   UNL     1     -39.468  51.642 -51.674  1.00  0.00    -0.258 NA
HETATM   24  C   UNL     1     -39.896  51.753 -52.986  1.00  0.00     0.044 A 
HETATM   25  C   UNL     1     -39.560  50.652 -53.930  1.00  0.00     0.071 C 
ENDBRANCH  19  20
ENDBRANCH  18  19
ENDBRANCH  13  18
ENDBRANCH   1   8
BRANCH   4  26
HETATM   26  C   UNL     1     -43.486  59.495 -59.138  1.00  0.00     0.273 C 
BRANCH  26  27
HETATM   27  C   UNL     1     -43.854  58.092 -59.533  1.00  0.00    -0.030 A 
HETATM   28  C   UNL     1     -45.159  57.815 -59.993  1.00  0.00     0.048 A 
HETATM   29  C   UNL     1     -45.516  56.526 -60.386  1.00  0.00     0.102 A 
HETATM   30  C   UNL     1     -44.554  55.515 -60.315  1.00  0.00     0.099 A 
HETATM   31  C   UNL     1     -43.264  55.766 -59.861  1.00  0.00     0.040 A 
HETATM   32  C   UNL     1     -42.911  57.055 -59.469  1.00  0.00     0.012 A 
BRANCH  29  33
HETATM   33  O   UNL     1     -46.741  56.132 -60.853  1.00  0.00    -0.349 OA
BRANCH  33  34
HETATM   34  C   UNL     1     -47.675  57.158 -61.195  1.00  0.00     0.171 C 
HETATM   35  C   UNL     1     -48.471  56.693 -62.400  1.00  0.00     0.034 C 
ENDBRANCH  33  34
ENDBRANCH  29  33
BRANCH  30  36
HETATM   36  O   UNL     1     -44.862  54.238 -60.691  1.00  0.00    -0.358 OA
HETATM   37  H   UNL     1     -44.464  53.655 -60.016  1.00  0.00     0.218 HD
ENDBRANCH  30  36
ENDBRANCH  26  27
ENDBRANCH   4  26
TORSDOF 10
ENDMDL
MODEL 6
REMARK VINA RESULT:      -7.6      4.671      9.535
REMARK  10 active torsions:
REMARK  status: ('A' for Active; 'I' for Inactive)
REMARK    1  A    between atoms: C_2  and  C_3 
REMARK    2  A    between atoms: C_3  and  C_4 
REMARK    3  A    between atoms: N_7  and  C_9 
REMARK    4  A    between atoms: C_9  and  C_10 
REMARK    5  A    between atoms: C_12  and  O_13 
REMARK    6  A    between atoms: O_13  and  C_14 
REMARK    7  A    between atoms: C_16  and  O_17 
REMARK    8  A    between atoms: N_25  and  C_26 
REMARK    9  A    between atoms: C_26  and  C_27 
REMARK   10  A    between atoms: C_27  and  C_28 
ROOT
HETATM    1  C   UNL     1     -43.219  55.360 -53.328  1.00  0.00     0.026 C 
HETATM    2  C   UNL     1     -42.812  54.280 -54.345  1.00  0.00     0.035 C 
HETATM    3  C   UNL     1     -42.376  54.818 -55.707  1.00  0.00     0.235 C 
HETATM    4  N   UNL     1     -43.413  55.752 -56.281  1.00  0.00    -0.067 N 
HETATM    5  H   UNL     1     -44.238  55.178 -56.492  1.00  0.00     0.280 HD
HETATM    6  C   UNL     1     -43.837  56.847 -55.333  1.00  0.00     0.235 C 
HETATM    7  C   UNL     1     -44.267  56.271 -53.997  1.00  0.00     0.035 C 
ENDROOT
BRANCH   1   8
HETATM    8  C   UNL     1     -42.012  56.084 -52.652  1.00  0.00     0.119 C 
HETATM    9  N   UNL     1     -41.271  56.932 -53.571  1.00  0.00    -0.324 N 
HETATM   10  C   UNL     1     -41.039  58.179 -53.025  1.00  0.00     0.326 C 
HETATM   11  H   UNL     1     -40.488  56.595 -54.121  1.00  0.00     0.165 HD
HETATM   12  O   UNL     1     -40.226  58.952 -53.496  1.00  0.00    -0.247 OA
HETATM   13  N   UNL     1     -41.830  58.341 -51.936  1.00  0.00    -0.268 N 
HETATM   14  C   UNL     1     -42.462  57.165 -51.636  1.00  0.00     0.256 C 
HETATM   15  O   UNL     1     -43.234  56.970 -50.710  1.00  0.00    -0.270 OA
BRANCH   8  16
HETATM   16  C   UNL     1     -40.994  55.146 -51.953  1.00  0.00     0.037 C 
HETATM   17  C   UNL     1     -41.588  54.086 -51.035  1.00  0.00     0.008 C 
ENDBRANCH   8  16
BRANCH  13  18
HETATM   18  C   UNL     1     -41.788  59.504 -51.064  1.00  0.00     0.142 C 
BRANCH  18  19
HETATM   19  C   UNL     1     -42.570  60.701 -51.618  1.00  0.00     0.068 C 
BRANCH  19  20
HETATM   20  C   UNL     1     -44.042  60.522 -51.430  1.00  0.00     0.010 A 
HETATM   21  S   UNL     1     -45.021  59.886 -52.688  1.00  0.00    -0.085 SA
HETATM   22  C   UNL     1     -46.391  60.024 -51.673  1.00  0.00     0.166 A 
HETATM   23  N   UNL     1     -46.170  60.506 -50.470  1.00  0.00    -0.258 NA
HETATM   24  C   UNL     1     -44.826  60.802 -50.319  1.00  0.00     0.044 A 
HETATM   25  C   UNL     1     -44.372  61.365 -49.019  1.00  0.00     0.071 C 
ENDBRANCH  19  20
ENDBRANCH  18  19
ENDBRANCH  13  18
ENDBRANCH   1   8
BRANCH   4  26
HETATM   26  C   UNL     1     -42.991  56.382 -57.603  1.00  0.00     0.273 C 
BRANCH  26  27
HETATM   27  C   UNL     1     -43.966  56.211 -58.736  1.00  0.00    -0.030 A 
HETATM   28  C   UNL     1     -45.019  57.136 -58.898  1.00  0.00     0.048 A 
HETATM   29  C   UNL     1     -45.920  57.010 -59.953  1.00  0.00     0.102 A 
HETATM   30  C   UNL     1     -45.759  55.948 -60.847  1.00  0.00     0.099 A 
HETATM   31  C   UNL     1     -44.731  55.023 -60.702  1.00  0.00     0.040 A 
HETATM   32  C   UNL     1     -43.832  55.152 -59.646  1.00  0.00     0.012 A 
BRANCH  29  33
HETATM   33  O   UNL     1     -46.974  57.841 -60.221  1.00  0.00    -0.349 OA
BRANCH  33  34
HETATM   34  C   UNL     1     -46.685  59.225 -60.423  1.00  0.00     0.171 C 
HETATM   35  C   UNL     1     -47.999  59.967 -60.580  1.00  0.00     0.034 C 
ENDBRANCH  33  34
ENDBRANCH  29  33
BRANCH  30  36
HETATM   36  O   UNL     1     -46.620  55.788 -61.895  1.00  0.00    -0.358 OA
HETATM   37  H   UNL     1     -47.499  55.629 -61.499  1.00  0.00     0.218 HD
ENDBRANCH  30  36
ENDBRANCH  26  27
ENDBRANCH   4  26
TORSDOF 10
ENDMDL
MODEL 7
REMARK VINA RESULT:      -7.6      4.906      8.777
REMARK  10 active torsions:
REMARK  status: ('A' for Active; 'I' for Inactive)
REMARK    1  A    between atoms: C_2  and  C_3 
REMARK    2  A    between atoms: C_3  and  C_4 
REMARK    3  A    between atoms: N_7  and  C_9 
REMARK    4  A    between atoms: C_9  and  C_10 
REMARK    5  A    between atoms: C_12  and  O_13 
REMARK    6  A    between atoms: O_13  and  C_14 
REMARK    7  A    between atoms: C_16  and  O_17 
REMARK    8  A    between atoms: N_25  and  C_26 
REMARK    9  A    between atoms: C_26  and  C_27 
REMARK   10  A    between atoms: C_27  and  C_28 
ROOT
HETATM    1  C   UNL     1     -44.253  58.204 -53.964  1.00  0.00     0.026 C 
HETATM    2  C   UNL     1     -43.259  57.943 -52.819  1.00  0.00     0.035 C 
HETATM    3  C   UNL     1     -41.976  57.226 -53.239  1.00  0.00     0.235 C 
HETATM    4  N   UNL     1     -42.285  55.960 -54.000  1.00  0.00    -0.067 N 
HETATM    5  H   UNL     1     -42.724  55.316 -53.330  1.00  0.00     0.280 HD
HETATM    6  C   UNL     1     -43.243  56.158 -55.149  1.00  0.00     0.235 C 
HETATM    7  C   UNL     1     -44.502  56.867 -54.689  1.00  0.00     0.035 C 
ENDROOT
BRANCH   1   8
HETATM    8  C   UNL     1     -43.875  59.417 -54.871  1.00  0.00     0.119 C 
HETATM    9  N   UNL     1     -42.501  59.367 -55.342  1.00  0.00    -0.324 N 
HETATM   10  C   UNL     1     -42.428  59.610 -56.700  1.00  0.00     0.326 C 
HETATM   11  H   UNL     1     -41.728  59.781 -54.830  1.00  0.00     0.165 HD
HETATM   12  O   UNL     1     -41.379  59.874 -57.256  1.00  0.00    -0.247 OA
HETATM   13  N   UNL     1     -43.670  59.513 -57.234  1.00  0.00    -0.268 N 
HETATM   14  C   UNL     1     -44.601  59.383 -56.240  1.00  0.00     0.256 C 
HETATM   15  O   UNL     1     -45.810  59.284 -56.383  1.00  0.00    -0.270 OA
BRANCH   8  16
HETATM   16  C   UNL     1     -44.102  60.811 -54.229  1.00  0.00     0.037 C 
HETATM   17  C   UNL     1     -42.903  61.415 -53.511  1.00  0.00     0.008 C 
ENDBRANCH   8  16
BRANCH  13  18
HETATM   18  C   UNL     1     -43.981  59.790 -58.628  1.00  0.00     0.142 C 
BRANCH  18  19
HETATM   19  C   UNL     1     -43.614  58.636 -59.569  1.00  0.00     0.068 C 
BRANCH  19  20
HETATM   20  C   UNL     1     -44.764  57.699 -59.753  1.00  0.00     0.010 A 
HETATM   21  S   UNL     1     -46.354  58.293 -60.006  1.00  0.00    -0.085 SA
HETATM   22  C   UNL     1     -46.924  56.683 -60.107  1.00  0.00     0.166 A 
HETATM   23  N   UNL     1     -46.018  55.741 -59.968  1.00  0.00    -0.258 NA
HETATM   24  C   UNL     1     -44.773  56.311 -59.758  1.00  0.00     0.044 A 
HETATM   25  C   UNL     1     -43.608  55.404 -59.573  1.00  0.00     0.071 C 
ENDBRANCH  19  20
ENDBRANCH  18  19
ENDBRANCH  13  18
ENDBRANCH   1   8
BRANCH   4  26
HETATM   26  C   UNL     1     -41.040  55.246 -54.514  1.00  0.00     0.273 C 
BRANCH  26  27
HETATM   27  C   UNL     1     -40.613  54.046 -53.714  1.00  0.00    -0.030 A 
HETATM   28  C   UNL     1     -40.622  54.105 -52.305  1.00  0.00     0.048 A 
HETATM   29  C   UNL     1     -40.251  52.998 -51.544  1.00  0.00     0.102 A 
HETATM   30  C   UNL     1     -39.871  51.828 -52.207  1.00  0.00     0.099 A 
HETATM   31  C   UNL     1     -39.851  51.750 -53.594  1.00  0.00     0.040 A 
HETATM   32  C   UNL     1     -40.222  52.859 -54.352  1.00  0.00     0.012 A 
BRANCH  29  33
HETATM   33  O   UNL     1     -40.225  52.928 -50.177  1.00  0.00    -0.349 OA
BRANCH  33  34
HETATM   34  C   UNL     1     -39.794  54.090 -49.467  1.00  0.00     0.171 C 
HETATM   35  C   UNL     1     -40.983  54.654 -48.712  1.00  0.00     0.034 C 
ENDBRANCH  33  34
ENDBRANCH  29  33
BRANCH  30  36
HETATM   36  O   UNL     1     -39.502  50.720 -51.498  1.00  0.00    -0.358 OA
HETATM   37  H   UNL     1     -39.718  49.954 -52.065  1.00  0.00     0.218 HD
ENDBRANCH  30  36
ENDBRANCH  26  27
ENDBRANCH   4  26
TORSDOF 10
ENDMDL
MODEL 8
REMARK VINA RESULT:      -7.4      1.330      2.393
REMARK  10 active torsions:
REMARK  status: ('A' for Active; 'I' for Inactive)
REMARK    1  A    between atoms: C_2  and  C_3 
REMARK    2  A    between atoms: C_3  and  C_4 
REMARK    3  A    between atoms: N_7  and  C_9 
REMARK    4  A    between atoms: C_9  and  C_10 
REMARK    5  A    between atoms: C_12  and  O_13 
REMARK    6  A    between atoms: O_13  and  C_14 
REMARK    7  A    between atoms: C_16  and  O_17 
REMARK    8  A    between atoms: N_25  and  C_26 
REMARK    9  A    between atoms: C_26  and  C_27 
REMARK   10  A    between atoms: C_27  and  C_28 
ROOT
HETATM    1  C   UNL     1     -42.841  56.474 -51.281  1.00  0.00     0.026 C 
HETATM    2  C   UNL     1     -44.238  56.920 -50.815  1.00  0.00     0.035 C 
HETATM    3  C   UNL     1     -44.601  58.360 -51.175  1.00  0.00     0.235 C 
HETATM    4  N   UNL     1     -43.533  59.322 -50.715  1.00  0.00    -0.067 N 
HETATM    5  H   UNL     1     -43.551  59.309 -49.688  1.00  0.00     0.280 HD
HETATM    6  C   UNL     1     -42.141  58.946 -51.160  1.00  0.00     0.235 C 
HETATM    7  C   UNL     1     -41.819  57.513 -50.779  1.00  0.00     0.035 C 
ENDROOT
BRANCH   1   8
HETATM    8  C   UNL     1     -42.762  56.111 -52.798  1.00  0.00     0.119 C 
HETATM    9  N   UNL     1     -41.497  56.488 -53.407  1.00  0.00    -0.324 N 
HETATM   10  C   UNL     1     -40.975  55.452 -54.156  1.00  0.00     0.326 C 
HETATM   11  H   UNL     1     -41.340  57.396 -53.832  1.00  0.00     0.165 HD
HETATM   12  O   UNL     1     -40.072  55.621 -54.955  1.00  0.00    -0.247 OA
HETATM   13  N   UNL     1     -41.633  54.307 -53.850  1.00  0.00    -0.268 N 
HETATM   14  C   UNL     1     -42.701  54.582 -53.041  1.00  0.00     0.256 C 
HETATM   15  O   UNL     1     -43.503  53.775 -52.594  1.00  0.00    -0.270 OA
BRANCH   8  16
HETATM   16  C   UNL     1     -43.900  56.702 -53.672  1.00  0.00     0.037 C 
HETATM   17  C   UNL     1     -43.500  57.840 -54.602  1.00  0.00     0.008 C 
ENDBRANCH   8  16
BRANCH  13  18
HETATM   18  C   UNL     1     -41.401  53.032 -54.511  1.00  0.00     0.142 C 
BRANCH  18  19
HETATM   19  C   UNL     1     -39.958  52.534 -54.371  1.00  0.00     0.068 C 
BRANCH  19  20
HETATM   20  C   UNL     1     -39.836  51.528 -53.271  1.00  0.00     0.010 A 
HETATM   21  S   UNL     1     -39.774  49.848 -53.615  1.00  0.00    -0.085 SA
HETATM   22  C   UNL     1     -39.640  49.524 -51.941  1.00  0.00     0.166 A 
HETATM   23  N   UNL     1     -39.637  50.574 -51.150  1.00  0.00    -0.258 NA
HETATM   24  C   UNL     1     -39.754  51.731 -51.901  1.00  0.00     0.044 A 
HETATM   25  C   UNL     1     -39.774  53.035 -51.183  1.00  0.00     0.071 C 
ENDBRANCH  19  20
ENDBRANCH  18  19
ENDBRANCH  13  18
ENDBRANCH   1   8
BRANCH   4  26
HETATM   26  C   UNL     1     -43.806  60.766 -51.121  1.00  0.00     0.273 C 
BRANCH  26  27
HETATM   27  C   UNL     1     -44.916  61.445 -50.368  1.00  0.00    -0.030 A 
HETATM   28  C   UNL     1     -44.982  61.328 -48.964  1.00  0.00     0.048 A 
HETATM   29  C   UNL     1     -45.989  61.967 -48.243  1.00  0.00     0.102 A 
HETATM   30  C   UNL     1     -46.930  62.728 -48.941  1.00  0.00     0.099 A 
HETATM   31  C   UNL     1     -46.885  62.854 -50.324  1.00  0.00     0.040 A 
HETATM   32  C   UNL     1     -45.878  62.213 -51.042  1.00  0.00     0.012 A 
BRANCH  29  33
HETATM   33  O   UNL     1     -46.157  61.936 -46.884  1.00  0.00    -0.349 OA
BRANCH  33  34
HETATM   34  C   UNL     1     -45.499  60.893 -46.164  1.00  0.00     0.171 C 
HETATM   35  C   UNL     1     -46.458  59.724 -46.038  1.00  0.00     0.034 C 
ENDBRANCH  33  34
ENDBRANCH  29  33
BRANCH  30  36
HETATM   36  O   UNL     1     -47.933  63.373 -48.272  1.00  0.00    -0.358 OA
HETATM   37  H   UNL     1     -47.625  64.292 -48.146  1.00  0.00     0.218 HD
ENDBRANCH  30  36
ENDBRANCH  26  27
ENDBRANCH   4  26
TORSDOF 10
ENDMDL
MODEL 9
REMARK VINA RESULT:      -7.2      4.328      8.496
REMARK  10 active torsions:
REMARK  status: ('A' for Active; 'I' for Inactive)
REMARK    1  A    between atoms: C_2  and  C_3 
REMARK    2  A    between atoms: C_3  and  C_4 
REMARK    3  A    between atoms: N_7  and  C_9 
REMARK    4  A    between atoms: C_9  and  C_10 
REMARK    5  A    between atoms: C_12  and  O_13 
REMARK    6  A    between atoms: O_13  and  C_14 
REMARK    7  A    between atoms: C_16  and  O_17 
REMARK    8  A    between atoms: N_25  and  C_26 
REMARK    9  A    between atoms: C_26  and  C_27 
REMARK   10  A    between atoms: C_27  and  C_28 
ROOT
HETATM    1  C   UNL     1     -44.040  60.626 -54.772  1.00  0.00     0.026 C 
HETATM    2  C   UNL     1     -45.489  60.264 -55.142  1.00  0.00     0.035 C 
HETATM    3  C   UNL     1     -45.668  59.714 -56.556  1.00  0.00     0.235 C 
HETATM    4  N   UNL     1     -45.052  60.635 -57.581  1.00  0.00    -0.067 N 
HETATM    5  H   UNL     1     -45.613  61.496 -57.574  1.00  0.00     0.280 HD
HETATM    6  C   UNL     1     -43.621  61.010 -57.280  1.00  0.00     0.235 C 
HETATM    7  C   UNL     1     -43.488  61.556 -55.871  1.00  0.00     0.035 C 
ENDROOT
BRANCH   1   8
HETATM    8  C   UNL     1     -43.151  59.396 -54.403  1.00  0.00     0.119 C 
HETATM    9  N   UNL     1     -41.729  59.696 -54.426  1.00  0.00    -0.324 N 
HETATM   10  C   UNL     1     -41.100  59.229 -53.290  1.00  0.00     0.326 C 
HETATM   11  H   UNL     1     -41.158  59.592 -55.259  1.00  0.00     0.165 HD
HETATM   12  O   UNL     1     -39.890  59.134 -53.210  1.00  0.00    -0.247 OA
HETATM   13  N   UNL     1     -42.037  58.911 -52.363  1.00  0.00    -0.268 N 
HETATM   14  C   UNL     1     -43.287  58.991 -52.914  1.00  0.00     0.256 C 
HETATM   15  O   UNL     1     -44.347  58.758 -52.351  1.00  0.00    -0.270 OA
BRANCH   8  16
HETATM   16  C   UNL     1     -43.381  58.137 -55.279  1.00  0.00     0.037 C 
HETATM   17  C   UNL     1     -42.283  57.816 -56.284  1.00  0.00     0.008 C 
ENDBRANCH   8  16
BRANCH  13  18
HETATM   18  C   UNL     1     -41.738  58.309 -51.073  1.00  0.00     0.142 C 
BRANCH  18  19
HETATM   19  C   UNL     1     -40.930  57.011 -51.187  1.00  0.00     0.068 C 
BRANCH  19  20
HETATM   20  C   UNL     1     -41.774  55.890 -51.702  1.00  0.00     0.010 A 
HETATM   21  S   UNL     1     -43.092  55.284 -50.785  1.00  0.00    -0.085 SA
HETATM   22  C   UNL     1     -43.425  54.161 -52.032  1.00  0.00     0.166 A 
HETATM   23  N   UNL     1     -42.629  54.207 -53.076  1.00  0.00    -0.258 NA
HETATM   24  C   UNL     1     -41.673  55.193 -52.898  1.00  0.00     0.044 A 
HETATM   25  C   UNL     1     -40.669  55.401 -53.977  1.00  0.00     0.071 C 
ENDBRANCH  19  20
ENDBRANCH  18  19
ENDBRANCH  13  18
ENDBRANCH   1   8
BRANCH   4  26
HETATM   26  C   UNL     1     -45.130  60.093 -59.003  1.00  0.00     0.273 C 
BRANCH  26  27
HETATM   27  C   UNL     1     -44.086  59.071 -59.359  1.00  0.00    -0.030 A 
HETATM   28  C   UNL     1     -44.355  57.700 -59.163  1.00  0.00     0.048 A 
HETATM   29  C   UNL     1     -43.411  56.734 -59.507  1.00  0.00     0.102 A 
HETATM   30  C   UNL     1     -42.193  57.152 -60.050  1.00  0.00     0.099 A 
HETATM   31  C   UNL     1     -41.907  58.498 -60.248  1.00  0.00     0.040 A 
HETATM   32  C   UNL     1     -42.852  59.462 -59.903  1.00  0.00     0.012 A 
BRANCH  29  33
HETATM   33  O   UNL     1     -43.553  55.379 -59.372  1.00  0.00    -0.349 OA
BRANCH  33  34
HETATM   34  C   UNL     1     -44.798  54.806 -59.775  1.00  0.00     0.171 C 
HETATM   35  C   UNL     1     -44.963  55.029 -61.266  1.00  0.00     0.034 C 
ENDBRANCH  33  34
ENDBRANCH  29  33
BRANCH  30  36
HETATM   36  O   UNL     1     -41.241  56.238 -60.401  1.00  0.00    -0.358 OA
HETATM   37  H   UNL     1     -41.664  55.362 -60.314  1.00  0.00     0.218 HD
ENDBRANCH  30  36
ENDBRANCH  26  27
ENDBRANCH   4  26
TORSDOF 10
ENDMDL
MODEL 10
REMARK VINA RESULT:      -7.2      4.850      8.932
REMARK  10 active torsions:
REMARK  status: ('A' for Active; 'I' for Inactive)
REMARK    1  A    between atoms: C_2  and  C_3 
REMARK    2  A    between atoms: C_3  and  C_4 
REMARK    3  A    between atoms: N_7  and  C_9 
REMARK    4  A    between atoms: C_9  and  C_10 
REMARK    5  A    between atoms: C_12  and  O_13 
REMARK    6  A    between atoms: O_13  and  C_14 
REMARK    7  A    between atoms: C_16  and  O_17 
REMARK    8  A    between atoms: N_25  and  C_26 
REMARK    9  A    between atoms: C_26  and  C_27 
REMARK   10  A    between atoms: C_27  and  C_28 
ROOT
HETATM    1  C   UNL     1     -44.780  58.870 -54.096  1.00  0.00     0.026 C 
HETATM    2  C   UNL     1     -44.097  58.847 -52.717  1.00  0.00     0.035 C 
HETATM    3  C   UNL     1     -42.690  58.251 -52.712  1.00  0.00     0.235 C 
HETATM    4  N   UNL     1     -42.674  56.887 -53.357  1.00  0.00    -0.067 N 
HETATM    5  H   UNL     1     -43.211  56.266 -52.739  1.00  0.00     0.280 HD
HETATM    6  C   UNL     1     -43.315  56.851 -54.723  1.00  0.00     0.235 C 
HETATM    7  C   UNL     1     -44.710  57.446 -54.683  1.00  0.00     0.035 C 
ENDROOT
BRANCH   1   8
HETATM    8  C   UNL     1     -44.291  60.022 -55.030  1.00  0.00     0.119 C 
HETATM    9  N   UNL     1     -42.868  59.954 -55.319  1.00  0.00    -0.324 N 
HETATM   10  C   UNL     1     -42.624  60.104 -56.669  1.00  0.00     0.326 C 
HETATM   11  H   UNL     1     -42.168  60.409 -54.742  1.00  0.00     0.165 HD
HETATM   12  O   UNL     1     -41.513  60.340 -57.105  1.00  0.00    -0.247 OA
HETATM   13  N   UNL     1     -43.788  59.959 -57.349  1.00  0.00    -0.268 N 
HETATM   14  C   UNL     1     -44.837  59.887 -56.474  1.00  0.00     0.256 C 
HETATM   15  O   UNL     1     -46.019  59.767 -56.762  1.00  0.00    -0.270 OA
BRANCH   8  16
HETATM   16  C   UNL     1     -44.600  61.454 -54.519  1.00  0.00     0.037 C 
HETATM   17  C   UNL     1     -43.431  62.204 -53.895  1.00  0.00     0.008 C 
ENDBRANCH   8  16
BRANCH  13  18
HETATM   18  C   UNL     1     -43.920  60.136 -58.787  1.00  0.00     0.142 C 
BRANCH  18  19
HETATM   19  C   UNL     1     -43.429  58.927 -59.591  1.00  0.00     0.068 C 
BRANCH  19  20
HETATM   20  C   UNL     1     -44.519  57.921 -59.778  1.00  0.00     0.010 A 
HETATM   21  S   UNL     1     -46.136  58.417 -60.070  1.00  0.00    -0.085 SA
HETATM   22  C   UNL     1     -46.610  56.775 -60.151  1.00  0.00     0.166 A 
HETATM   23  N   UNL     1     -45.653  55.890 -59.978  1.00  0.00    -0.258 NA
HETATM   24  C   UNL     1     -44.448  56.535 -59.758  1.00  0.00     0.044 A 
HETATM   25  C   UNL     1     -43.235  55.701 -59.536  1.00  0.00     0.071 C 
ENDBRANCH  19  20
ENDBRANCH  18  19
ENDBRANCH  13  18
ENDBRANCH   1   8
BRANCH   4  26
HETATM   26  C   UNL     1     -41.279  56.280 -53.452  1.00  0.00     0.273 C 
BRANCH  26  27
HETATM   27  C   UNL     1     -41.052  55.058 -52.605  1.00  0.00    -0.030 A 
HETATM   28  C   UNL     1     -40.538  53.884 -53.195  1.00  0.00     0.048 A 
HETATM   29  C   UNL     1     -40.298  52.747 -52.426  1.00  0.00     0.102 A 
HETATM   30  C   UNL     1     -40.576  52.796 -51.057  1.00  0.00     0.099 A 
HETATM   31  C   UNL     1     -41.086  53.941 -50.457  1.00  0.00     0.040 A 
HETATM   32  C   UNL     1     -41.325  55.076 -51.229  1.00  0.00     0.012 A 
BRANCH  29  33
HETATM   33  O   UNL     1     -39.799  51.555 -52.877  1.00  0.00    -0.349 OA
BRANCH  33  34
HETATM   34  C   UNL     1     -40.304  51.058 -54.117  1.00  0.00     0.171 C 
HETATM   35  C   UNL     1     -39.534  49.800 -54.473  1.00  0.00     0.034 C 
ENDBRANCH  33  34
ENDBRANCH  29  33
BRANCH  30  36
HETATM   36  O   UNL     1     -40.355  51.704 -50.267  1.00  0.00    -0.358 OA
HETATM   37  H   UNL     1     -41.237  51.342 -50.053  1.00  0.00     0.218 HD
ENDBRANCH  30  36
ENDBRANCH  26  27
ENDBRANCH   4  26
TORSDOF 10
ENDMDL
