MODEL 1
REMARK VINA RESULT:      -7.8      0.000      0.000
REMARK  11 active torsions:
REMARK  status: ('A' for Active; 'I' for Inactive)
REMARK    1  A    between atoms: C_6  and  C_7 
REMARK    2  A    between atoms: C_7  and  C_8 
REMARK       I    between atoms: C_8  and  N_9 
REMARK    3  A    between atoms: N_9  and  C_10 
REMARK    4  A    between atoms: C_10  and  C_11 
REMARK    5  A    between atoms: C_11  and  N_12 
REMARK    6  A    between atoms: C_17  and  C_18 
REMARK    7  A    between atoms: C_21  and  C_22 
REMARK    8  A    between atoms: C_29  and  C_30 
REMARK    9  A    between atoms: C_30  and  O_31 
REMARK   10  A    between atoms: O_31  and  C_32 
REMARK   11  A    between atoms: C_32  and  C_33 
ROOT
HETATM    1  C   UNL     1     -41.980  59.663 -56.325  1.00  0.00     0.071 C 
HETATM    2  C   UNL     1     -42.028  58.750 -55.128  1.00  0.00     0.048 C 
HETATM    3  N   UNL     1     -41.182  59.132 -54.084  1.00  0.00    -0.229 NA
HETATM    4  C   UNL     1     -41.542  58.759 -52.900  1.00  0.00     0.170 C 
HETATM    5  N   UNL     1     -42.767  57.838 -52.661  1.00  0.00    -0.319 N 
HETATM    6  C   UNL     1     -43.430  58.246 -51.637  1.00  0.00     0.011 C 
HETATM    7  C   UNL     1     -42.911  56.868 -53.761  1.00  0.00     0.166 C 
HETATM    8  S   UNL     1     -40.992  59.442 -51.414  1.00  0.00    -0.086 SA
HETATM    9  C   UNL     1     -42.626  59.086 -50.656  1.00  0.00     0.135 C 
HETATM   10  C   UNL     1     -42.885  57.711 -54.998  1.00  0.00     0.069 C 
ENDROOT
BRANCH   6  11
HETATM   11  C   UNL     1     -44.911  58.031 -51.544  1.00  0.00     0.156 C 
BRANCH  11  12
HETATM   12  C   UNL     1     -45.616  59.358 -51.764  1.00  0.00     0.223 C 
HETATM   13  N   UNL     1     -45.316  60.026 -52.921  1.00  0.00    -0.359 N 
HETATM   14  H   UNL     1     -44.814  59.551 -53.676  1.00  0.00     0.162 HD
HETATM   15  O   UNL     1     -46.290  59.873 -50.875  1.00  0.00    -0.273 OA
BRANCH  13  16
HETATM   16  C   UNL     1     -45.521  61.473 -53.089  1.00  0.00     0.150 C 
BRANCH  16  17
HETATM   17  C   UNL     1     -44.422  62.417 -52.542  1.00  0.00     0.253 C 
BRANCH  17  18
HETATM   18  N   UNL     1     -44.362  62.462 -51.028  1.00  0.00    -0.077 N 
HETATM   19  H   UNL     1     -44.568  61.500 -50.690  1.00  0.00     0.279 HD
HETATM   20  C   UNL     1     -43.011  62.809 -50.465  1.00  0.00     0.269 C 
HETATM   21  C   UNL     1     -45.428  63.349 -50.445  1.00  0.00     0.269 C 
ENDBRANCH  17  18
ENDBRANCH  16  17
ENDBRANCH  13  16
ENDBRANCH  11  12
ENDBRANCH   6  11
BRANCH   7  22
HETATM   22  C   UNL     1     -41.752  55.862 -53.629  1.00  0.00    -0.030 C 
HETATM   23  C   UNL     1     -41.119  55.372 -54.789  1.00  0.00     0.010 C 
HETATM   24  C   UNL     1     -40.377  54.189 -54.749  1.00  0.00     0.008 C 
HETATM   25  C   UNL     1     -40.209  53.493 -53.547  1.00  0.00    -0.055 C 
HETATM   26  C   UNL     1     -40.674  54.083 -52.367  1.00  0.00     0.008 C 
HETATM   27  C   UNL     1     -41.424  55.260 -52.403  1.00  0.00     0.010 C 
BRANCH  25  28
HETATM   28  C   UNL     1     -39.620  52.090 -53.554  1.00  0.00     0.010 C 
HETATM   29  C   UNL     1     -39.463  51.505 -52.152  1.00  0.00     0.015 C 
HETATM   30  C   UNL     1     -40.467  51.164 -54.437  1.00  0.00     0.015 C 
ENDBRANCH  25  28
ENDBRANCH   7  22
BRANCH  10  31
HETATM   31  C   UNL     1     -44.102  57.580 -55.801  1.00  0.00     0.294 C 
HETATM   32  O   UNL     1     -45.102  58.203 -55.463  1.00  0.00    -0.259 OA
BRANCH  31  33
HETATM   33  O   UNL     1     -43.964  56.614 -56.718  1.00  0.00    -0.313 OA
BRANCH  33  34
HETATM   34  C   UNL     1     -43.534  57.048 -58.019  1.00  0.00     0.217 C 
BRANCH  34  35
HETATM   35  C   UNL     1     -44.557  56.658 -59.047  1.00  0.00    -0.034 A 
HETATM   36  C   UNL     1     -45.805  57.297 -59.075  1.00  0.00     0.009 A 
HETATM   37  C   UNL     1     -46.756  56.946 -60.033  1.00  0.00     0.001 A 
HETATM   38  C   UNL     1     -46.475  55.949 -60.964  1.00  0.00     0.000 A 
HETATM   39  C   UNL     1     -45.242  55.299 -60.938  1.00  0.00     0.001 A 
HETATM   40  C   UNL     1     -44.288  55.649 -59.982  1.00  0.00     0.009 A 
ENDBRANCH  34  35
ENDBRANCH  33  34
ENDBRANCH  31  33
ENDBRANCH  10  31
TORSDOF 11
ENDMDL
MODEL 2
REMARK VINA RESULT:      -7.8      2.097      2.682
REMARK  11 active torsions:
REMARK  status: ('A' for Active; 'I' for Inactive)
REMARK    1  A    between atoms: C_6  and  C_7 
REMARK    2  A    between atoms: C_7  and  C_8 
REMARK       I    between atoms: C_8  and  N_9 
REMARK    3  A    between atoms: N_9  and  C_10 
REMARK    4  A    between atoms: C_10  and  C_11 
REMARK    5  A    between atoms: C_11  and  N_12 
REMARK    6  A    between atoms: C_17  and  C_18 
REMARK    7  A    between atoms: C_21  and  C_22 
REMARK    8  A    between atoms: C_29  and  C_30 
REMARK    9  A    between atoms: C_30  and  O_31 
REMARK   10  A    between atoms: O_31  and  C_32 
REMARK   11  A    between atoms: C_32  and  C_33 
ROOT
HETATM    1  C   UNL     1     -39.543  59.089 -52.478  1.00  0.00     0.071 C 
HETATM    2  C   UNL     1     -40.567  58.004 -52.690  1.00  0.00     0.048 C 
HETATM    3  N   UNL     1     -40.620  57.060 -51.662  1.00  0.00    -0.229 NA
HETATM    4  C   UNL     1     -41.754  56.462 -51.502  1.00  0.00     0.170 C 
HETATM    5  N   UNL     1     -42.948  56.683 -52.467  1.00  0.00    -0.319 N 
HETATM    6  C   UNL     1     -44.043  56.770 -51.799  1.00  0.00     0.011 C 
HETATM    7  C   UNL     1     -42.469  56.893 -53.846  1.00  0.00     0.166 C 
HETATM    8  S   UNL     1     -42.264  55.624 -50.082  1.00  0.00    -0.086 SA
HETATM    9  C   UNL     1     -43.999  56.120 -50.425  1.00  0.00     0.135 C 
HETATM   10  C   UNL     1     -41.448  57.979 -53.717  1.00  0.00     0.069 C 
ENDROOT
BRANCH   6  11
HETATM   11  C   UNL     1     -45.188  57.598 -52.302  1.00  0.00     0.156 C 
BRANCH  11  12
HETATM   12  C   UNL     1     -45.323  58.833 -51.429  1.00  0.00     0.223 C 
HETATM   13  N   UNL     1     -44.276  59.716 -51.452  1.00  0.00    -0.359 N 
HETATM   14  H   UNL     1     -43.554  59.642 -52.175  1.00  0.00     0.162 HD
HETATM   15  O   UNL     1     -46.247  58.946 -50.628  1.00  0.00    -0.273 OA
BRANCH  13  16
HETATM   16  C   UNL     1     -44.018  60.684 -50.376  1.00  0.00     0.150 C 
BRANCH  16  17
HETATM   17  C   UNL     1     -44.394  62.163 -50.642  1.00  0.00     0.253 C 
BRANCH  17  18
HETATM   18  N   UNL     1     -45.660  62.602 -49.934  1.00  0.00    -0.077 N 
HETATM   19  H   UNL     1     -45.517  63.592 -49.648  1.00  0.00     0.279 HD
HETATM   20  C   UNL     1     -46.891  62.603 -50.797  1.00  0.00     0.269 C 
HETATM   21  C   UNL     1     -45.896  61.828 -48.666  1.00  0.00     0.269 C 
ENDBRANCH  17  18
ENDBRANCH  16  17
ENDBRANCH  13  16
ENDBRANCH  11  12
ENDBRANCH   6  11
BRANCH   7  22
HETATM   22  C   UNL     1     -41.929  55.541 -54.346  1.00  0.00    -0.030 C 
HETATM   23  C   UNL     1     -42.649  54.360 -54.078  1.00  0.00     0.010 C 
HETATM   24  C   UNL     1     -42.021  53.114 -54.138  1.00  0.00     0.008 C 
HETATM   25  C   UNL     1     -40.677  53.009 -54.509  1.00  0.00    -0.055 C 
HETATM   26  C   UNL     1     -40.021  54.160 -54.960  1.00  0.00     0.008 C 
HETATM   27  C   UNL     1     -40.642  55.409 -54.894  1.00  0.00     0.010 C 
BRANCH  25  28
HETATM   28  C   UNL     1     -39.936  51.693 -54.332  1.00  0.00     0.010 C 
HETATM   29  C   UNL     1     -39.273  51.565 -52.962  1.00  0.00     0.015 C 
HETATM   30  C   UNL     1     -40.882  50.513 -54.591  1.00  0.00     0.015 C 
ENDBRANCH  25  28
ENDBRANCH   7  22
BRANCH  10  31
HETATM   31  C   UNL     1     -41.776  59.165 -54.510  1.00  0.00     0.294 C 
HETATM   32  O   UNL     1     -42.353  60.099 -53.965  1.00  0.00    -0.259 OA
BRANCH  31  33
HETATM   33  O   UNL     1     -41.534  58.948 -55.810  1.00  0.00    -0.313 OA
BRANCH  33  34
HETATM   34  C   UNL     1     -42.664  59.099 -56.686  1.00  0.00     0.217 C 
BRANCH  34  35
HETATM   35  C   UNL     1     -42.641  58.021 -57.732  1.00  0.00    -0.034 A 
HETATM   36  C   UNL     1     -43.229  56.776 -57.472  1.00  0.00     0.009 A 
HETATM   37  C   UNL     1     -43.219  55.774 -58.442  1.00  0.00     0.001 A 
HETATM   38  C   UNL     1     -42.615  56.004 -59.676  1.00  0.00     0.000 A 
HETATM   39  C   UNL     1     -42.018  57.235 -59.942  1.00  0.00     0.001 A 
HETATM   40  C   UNL     1     -42.028  58.239 -58.974  1.00  0.00     0.009 A 
ENDBRANCH  34  35
ENDBRANCH  33  34
ENDBRANCH  31  33
ENDBRANCH  10  31
TORSDOF 11
ENDMDL
MODEL 3
REMARK VINA RESULT:      -7.8      1.503      2.178
REMARK  11 active torsions:
REMARK  status: ('A' for Active; 'I' for Inactive)
REMARK    1  A    between atoms: C_6  and  C_7 
REMARK    2  A    between atoms: C_7  and  C_8 
REMARK       I    between atoms: C_8  and  N_9 
REMARK    3  A    between atoms: N_9  and  C_10 
REMARK    4  A    between atoms: C_10  and  C_11 
REMARK    5  A    between atoms: C_11  and  N_12 
REMARK    6  A    between atoms: C_17  and  C_18 
REMARK    7  A    between atoms: C_21  and  C_22 
REMARK    8  A    between atoms: C_29  and  C_30 
REMARK    9  A    between atoms: C_30  and  O_31 
REMARK   10  A    between atoms: O_31  and  C_32 
REMARK   11  A    between atoms: C_32  and  C_33 
ROOT
HETATM    1  C   UNL     1     -42.054  59.586 -56.326  1.00  0.00     0.071 C 
HETATM    2  C   UNL     1     -42.059  58.656 -55.141  1.00  0.00     0.048 C 
HETATM    3  N   UNL     1     -41.154  59.008 -54.136  1.00  0.00    -0.229 NA
HETATM    4  C   UNL     1     -41.459  58.624 -52.941  1.00  0.00     0.170 C 
HETATM    5  N   UNL     1     -42.688  57.721 -52.652  1.00  0.00    -0.319 N 
HETATM    6  C   UNL     1     -43.290  58.126 -51.590  1.00  0.00     0.011 C 
HETATM    7  C   UNL     1     -42.905  56.770 -53.757  1.00  0.00     0.166 C 
HETATM    8  S   UNL     1     -40.822  59.275 -51.475  1.00  0.00    -0.086 SA
HETATM    9  C   UNL     1     -42.422  58.937 -50.640  1.00  0.00     0.135 C 
HETATM   10  C   UNL     1     -42.926  57.630 -54.981  1.00  0.00     0.069 C 
ENDROOT
BRANCH   6  11
HETATM   11  C   UNL     1     -44.769  57.935 -51.425  1.00  0.00     0.156 C 
BRANCH  11  12
HETATM   12  C   UNL     1     -45.464  59.268 -51.638  1.00  0.00     0.223 C 
HETATM   13  N   UNL     1     -45.205  59.911 -52.820  1.00  0.00    -0.359 N 
HETATM   14  H   UNL     1     -44.743  59.414 -53.587  1.00  0.00     0.162 HD
HETATM   15  O   UNL     1     -46.091  59.809 -50.730  1.00  0.00    -0.273 OA
BRANCH  13  16
HETATM   16  C   UNL     1     -45.397  61.357 -53.006  1.00  0.00     0.150 C 
BRANCH  16  17
HETATM   17  C   UNL     1     -46.132  61.819 -54.289  1.00  0.00     0.253 C 
BRANCH  17  18
HETATM   18  N   UNL     1     -47.640  61.858 -54.142  1.00  0.00    -0.077 N 
HETATM   19  H   UNL     1     -47.984  60.893 -54.316  1.00  0.00     0.279 HD
HETATM   20  C   UNL     1     -48.125  62.220 -52.765  1.00  0.00     0.269 C 
HETATM   21  C   UNL     1     -48.287  62.731 -55.182  1.00  0.00     0.269 C 
ENDBRANCH  17  18
ENDBRANCH  16  17
ENDBRANCH  13  16
ENDBRANCH  11  12
ENDBRANCH   6  11
BRANCH   7  22
HETATM   22  C   UNL     1     -41.760  55.742 -53.698  1.00  0.00    -0.030 C 
HETATM   23  C   UNL     1     -41.262  55.185 -54.892  1.00  0.00     0.010 C 
HETATM   24  C   UNL     1     -40.543  53.987 -54.874  1.00  0.00     0.008 C 
HETATM   25  C   UNL     1     -40.265  53.341 -53.664  1.00  0.00    -0.055 C 
HETATM   26  C   UNL     1     -40.592  53.994 -52.472  1.00  0.00     0.008 C 
HETATM   27  C   UNL     1     -41.318  55.187 -52.485  1.00  0.00     0.010 C 
BRANCH  25  28
HETATM   28  C   UNL     1     -39.709  51.925 -53.666  1.00  0.00     0.010 C 
HETATM   29  C   UNL     1     -39.443  51.389 -52.261  1.00  0.00     0.015 C 
HETATM   30  C   UNL     1     -40.649  50.987 -54.436  1.00  0.00     0.015 C 
ENDBRANCH  25  28
ENDBRANCH   7  22
BRANCH  10  31
HETATM   31  C   UNL     1     -44.185  57.533 -55.723  1.00  0.00     0.294 C 
HETATM   32  O   UNL     1     -45.224  57.876 -55.170  1.00  0.00    -0.259 OA
BRANCH  31  33
HETATM   33  O   UNL     1     -44.004  56.885 -56.881  1.00  0.00    -0.313 OA
BRANCH  33  34
HETATM   34  C   UNL     1     -44.712  57.422 -58.011  1.00  0.00     0.217 C 
BRANCH  34  35
HETATM   35  C   UNL     1     -43.733  57.988 -59.000  1.00  0.00    -0.034 A 
HETATM   36  C   UNL     1     -43.959  59.247 -59.573  1.00  0.00     0.009 A 
HETATM   37  C   UNL     1     -43.050  59.781 -60.485  1.00  0.00     0.001 A 
HETATM   38  C   UNL     1     -41.911  59.061 -60.839  1.00  0.00     0.000 A 
HETATM   39  C   UNL     1     -41.681  57.803 -60.284  1.00  0.00     0.001 A 
HETATM   40  C   UNL     1     -42.589  57.266 -59.371  1.00  0.00     0.009 A 
ENDBRANCH  34  35
ENDBRANCH  33  34
ENDBRANCH  31  33
ENDBRANCH  10  31
TORSDOF 11
ENDMDL
MODEL 4
REMARK VINA RESULT:      -7.7      2.222      2.781
REMARK  11 active torsions:
REMARK  status: ('A' for Active; 'I' for Inactive)
REMARK    1  A    between atoms: C_6  and  C_7 
REMARK    2  A    between atoms: C_7  and  C_8 
REMARK       I    between atoms: C_8  and  N_9 
REMARK    3  A    between atoms: N_9  and  C_10 
REMARK    4  A    between atoms: C_10  and  C_11 
REMARK    5  A    between atoms: C_11  and  N_12 
REMARK    6  A    between atoms: C_17  and  C_18 
REMARK    7  A    between atoms: C_21  and  C_22 
REMARK    8  A    between atoms: C_29  and  C_30 
REMARK    9  A    between atoms: C_30  and  O_31 
REMARK   10  A    between atoms: O_31  and  C_32 
REMARK   11  A    between atoms: C_32  and  C_33 
ROOT
HETATM    1  C   UNL     1     -42.095  59.610 -56.482  1.00  0.00     0.071 C 
HETATM    2  C   UNL     1     -42.351  58.725 -55.290  1.00  0.00     0.048 C 
HETATM    3  N   UNL     1     -41.271  58.629 -54.408  1.00  0.00    -0.229 NA
HETATM    4  C   UNL     1     -41.569  58.365 -53.179  1.00  0.00     0.170 C 
HETATM    5  N   UNL     1     -43.019  58.049 -52.729  1.00  0.00    -0.319 N 
HETATM    6  C   UNL     1     -43.268  58.630 -51.609  1.00  0.00     0.011 C 
HETATM    7  C   UNL     1     -43.743  57.317 -53.784  1.00  0.00     0.166 C 
HETATM    8  S   UNL     1     -40.551  58.636 -51.812  1.00  0.00    -0.086 SA
HETATM    9  C   UNL     1     -42.036  58.969 -50.784  1.00  0.00     0.135 C 
HETATM   10  C   UNL     1     -43.544  58.151 -55.011  1.00  0.00     0.069 C 
ENDROOT
BRANCH   6  11
HETATM   11  C   UNL     1     -44.660  59.070 -51.263  1.00  0.00     0.156 C 
BRANCH  11  12
HETATM   12  C   UNL     1     -44.590  60.410 -50.552  1.00  0.00     0.223 C 
HETATM   13  N   UNL     1     -44.867  60.406 -49.210  1.00  0.00    -0.359 N 
HETATM   14  H   UNL     1     -44.906  59.522 -48.694  1.00  0.00     0.162 HD
HETATM   15  O   UNL     1     -44.454  61.456 -51.182  1.00  0.00    -0.273 OA
BRANCH  13  16
HETATM   16  C   UNL     1     -45.294  61.606 -48.475  1.00  0.00     0.150 C 
BRANCH  16  17
HETATM   17  C   UNL     1     -46.068  61.392 -47.150  1.00  0.00     0.253 C 
BRANCH  17  18
HETATM   18  N   UNL     1     -45.491  60.290 -46.284  1.00  0.00    -0.077 N 
HETATM   19  H   UNL     1     -44.849  59.738 -46.887  1.00  0.00     0.279 HD
HETATM   20  C   UNL     1     -44.653  60.773 -45.133  1.00  0.00     0.269 C 
HETATM   21  C   UNL     1     -46.549  59.332 -45.809  1.00  0.00     0.269 C 
ENDBRANCH  17  18
ENDBRANCH  16  17
ENDBRANCH  13  16
ENDBRANCH  11  12
ENDBRANCH   6  11
BRANCH   7  22
HETATM   22  C   UNL     1     -43.137  55.903 -53.848  1.00  0.00    -0.030 C 
HETATM   23  C   UNL     1     -42.991  55.153 -52.664  1.00  0.00     0.010 C 
HETATM   24  C   UNL     1     -42.099  54.080 -52.606  1.00  0.00     0.008 C 
HETATM   25  C   UNL     1     -41.367  53.699 -53.736  1.00  0.00    -0.055 C 
HETATM   26  C   UNL     1     -41.656  54.320 -54.955  1.00  0.00     0.008 C 
HETATM   27  C   UNL     1     -42.541  55.399 -55.016  1.00  0.00     0.010 C 
BRANCH  25  28
HETATM   28  C   UNL     1     -40.224  52.704 -53.605  1.00  0.00     0.010 C 
HETATM   29  C   UNL     1     -39.891  52.369 -52.152  1.00  0.00     0.015 C 
HETATM   30  C   UNL     1     -40.538  51.429 -54.398  1.00  0.00     0.015 C 
ENDBRANCH  25  28
ENDBRANCH   7  22
BRANCH  10  31
HETATM   31  C   UNL     1     -44.804  58.616 -55.593  1.00  0.00     0.294 C 
HETATM   32  O   UNL     1     -45.310  59.645 -55.160  1.00  0.00    -0.259 OA
BRANCH  31  33
HETATM   33  O   UNL     1     -45.310  57.697 -56.426  1.00  0.00    -0.313 OA
BRANCH  33  34
HETATM   34  C   UNL     1     -45.491  58.122 -57.786  1.00  0.00     0.217 C 
BRANCH  34  35
HETATM   35  C   UNL     1     -44.314  57.693 -58.613  1.00  0.00    -0.034 A 
HETATM   36  C   UNL     1     -43.748  58.575 -59.544  1.00  0.00     0.009 A 
HETATM   37  C   UNL     1     -42.649  58.185 -60.308  1.00  0.00     0.001 A 
HETATM   38  C   UNL     1     -42.110  56.908 -60.157  1.00  0.00     0.000 A 
HETATM   39  C   UNL     1     -42.672  56.019 -59.242  1.00  0.00     0.001 A 
HETATM   40  C   UNL     1     -43.771  56.407 -58.475  1.00  0.00     0.009 A 
ENDBRANCH  34  35
ENDBRANCH  33  34
ENDBRANCH  31  33
ENDBRANCH  10  31
TORSDOF 11
ENDMDL
MODEL 5
REMARK VINA RESULT:      -7.7      3.234      6.733
REMARK  11 active torsions:
REMARK  status: ('A' for Active; 'I' for Inactive)
REMARK    1  A    between atoms: C_6  and  C_7 
REMARK    2  A    between atoms: C_7  and  C_8 
REMARK       I    between atoms: C_8  and  N_9 
REMARK    3  A    between atoms: N_9  and  C_10 
REMARK    4  A    between atoms: C_10  and  C_11 
REMARK    5  A    between atoms: C_11  and  N_12 
REMARK    6  A    between atoms: C_17  and  C_18 
REMARK    7  A    between atoms: C_21  and  C_22 
REMARK    8  A    between atoms: C_29  and  C_30 
REMARK    9  A    between atoms: C_30  and  O_31 
REMARK   10  A    between atoms: O_31  and  C_32 
REMARK   11  A    between atoms: C_32  and  C_33 
ROOT
HETATM    1  C   UNL     1     -46.959  58.499 -57.320  1.00  0.00     0.071 C 
HETATM    2  C   UNL     1     -45.515  58.101 -57.155  1.00  0.00     0.048 C 
HETATM    3  N   UNL     1     -45.045  57.234 -58.145  1.00  0.00    -0.229 NA
HETATM    4  C   UNL     1     -43.776  57.281 -58.381  1.00  0.00     0.170 C 
HETATM    5  N   UNL     1     -42.810  58.151 -57.535  1.00  0.00    -0.319 N 
HETATM    6  C   UNL     1     -41.951  58.726 -58.301  1.00  0.00     0.011 C 
HETATM    7  C   UNL     1     -43.251  58.200 -56.129  1.00  0.00     0.166 C 
HETATM    8  S   UNL     1     -42.990  56.706 -59.806  1.00  0.00    -0.086 SA
HETATM    9  C   UNL     1     -41.734  58.036 -59.639  1.00  0.00     0.135 C 
HETATM   10  C   UNL     1     -44.689  58.607 -56.211  1.00  0.00     0.069 C 
ENDROOT
BRANCH   6  11
HETATM   11  C   UNL     1     -41.363  60.056 -57.935  1.00  0.00     0.156 C 
BRANCH  11  12
HETATM   12  C   UNL     1     -42.042  61.138 -58.757  1.00  0.00     0.223 C 
HETATM   13  N   UNL     1     -43.331  61.448 -58.415  1.00  0.00    -0.359 N 
HETATM   14  H   UNL     1     -43.724  61.117 -57.529  1.00  0.00     0.162 HD
HETATM   15  O   UNL     1     -41.515  61.588 -59.772  1.00  0.00    -0.273 OA
BRANCH  13  16
HETATM   16  C   UNL     1     -44.274  62.096 -59.339  1.00  0.00     0.150 C 
BRANCH  16  17
HETATM   17  C   UNL     1     -45.551  61.309 -59.724  1.00  0.00     0.253 C 
BRANCH  17  18
HETATM   18  N   UNL     1     -45.263  59.951 -60.333  1.00  0.00    -0.077 N 
HETATM   19  H   UNL     1     -44.812  59.378 -59.591  1.00  0.00     0.279 HD
HETATM   20  C   UNL     1     -46.485  59.181 -60.752  1.00  0.00     0.269 C 
HETATM   21  C   UNL     1     -44.272  60.035 -61.461  1.00  0.00     0.269 C 
ENDBRANCH  17  18
ENDBRANCH  16  17
ENDBRANCH  13  16
ENDBRANCH  11  12
ENDBRANCH   6  11
BRANCH   7  22
HETATM   22  C   UNL     1     -42.997  56.805 -55.529  1.00  0.00    -0.030 C 
HETATM   23  C   UNL     1     -44.021  56.161 -54.807  1.00  0.00     0.010 C 
HETATM   24  C   UNL     1     -43.722  55.124 -53.919  1.00  0.00     0.008 C 
HETATM   25  C   UNL     1     -42.406  54.674 -53.765  1.00  0.00    -0.055 C 
HETATM   26  C   UNL     1     -41.425  55.182 -54.623  1.00  0.00     0.008 C 
HETATM   27  C   UNL     1     -41.718  56.225 -55.506  1.00  0.00     0.010 C 
BRANCH  25  28
HETATM   28  C   UNL     1     -42.051  53.728 -52.628  1.00  0.00     0.010 C 
HETATM   29  C   UNL     1     -40.610  53.890 -52.149  1.00  0.00     0.015 C 
HETATM   30  C   UNL     1     -43.034  53.907 -51.463  1.00  0.00     0.015 C 
ENDBRANCH  25  28
ENDBRANCH   7  22
BRANCH  10  31
HETATM   31  C   UNL     1     -44.968  59.855 -55.498  1.00  0.00     0.294 C 
HETATM   32  O   UNL     1     -44.885  60.914 -56.108  1.00  0.00    -0.259 OA
BRANCH  31  33
HETATM   33  O   UNL     1     -45.104  59.631 -54.184  1.00  0.00    -0.313 OA
BRANCH  33  34
HETATM   34  C   UNL     1     -44.192  60.346 -53.334  1.00  0.00     0.217 C 
BRANCH  34  35
HETATM   35  C   UNL     1     -43.151  59.404 -52.801  1.00  0.00    -0.034 A 
HETATM   36  C   UNL     1     -41.817  59.521 -53.216  1.00  0.00     0.009 A 
HETATM   37  C   UNL     1     -40.844  58.655 -52.718  1.00  0.00     0.001 A 
HETATM   38  C   UNL     1     -41.195  57.659 -51.809  1.00  0.00     0.000 A 
HETATM   39  C   UNL     1     -42.520  57.528 -51.397  1.00  0.00     0.001 A 
HETATM   40  C   UNL     1     -43.496  58.393 -51.893  1.00  0.00     0.009 A 
ENDBRANCH  34  35
ENDBRANCH  33  34
ENDBRANCH  31  33
ENDBRANCH  10  31
TORSDOF 11
ENDMDL
MODEL 6
REMARK VINA RESULT:      -7.7      2.761      7.168
REMARK  11 active torsions:
REMARK  status: ('A' for Active; 'I' for Inactive)
REMARK    1  A    between atoms: C_6  and  C_7 
REMARK    2  A    between atoms: C_7  and  C_8 
REMARK       I    between atoms: C_8  and  N_9 
REMARK    3  A    between atoms: N_9  and  C_10 
REMARK    4  A    between atoms: C_10  and  C_11 
REMARK    5  A    between atoms: C_11  and  N_12 
REMARK    6  A    between atoms: C_17  and  C_18 
REMARK    7  A    between atoms: C_21  and  C_22 
REMARK    8  A    between atoms: C_29  and  C_30 
REMARK    9  A    between atoms: C_30  and  O_31 
REMARK   10  A    between atoms: O_31  and  C_32 
REMARK   11  A    between atoms: C_32  and  C_33 
ROOT
HETATM    1  C   UNL     1     -44.316  54.391 -53.337  1.00  0.00     0.071 C 
HETATM    2  C   UNL     1     -43.831  55.505 -54.227  1.00  0.00     0.048 C 
HETATM    3  N   UNL     1     -44.770  56.519 -54.436  1.00  0.00    -0.229 NA
HETATM    4  C   UNL     1     -44.289  57.687 -54.705  1.00  0.00     0.170 C 
HETATM    5  N   UNL     1     -42.770  57.928 -54.909  1.00  0.00    -0.319 N 
HETATM    6  C   UNL     1     -42.418  59.026 -54.338  1.00  0.00     0.011 C 
HETATM    7  C   UNL     1     -42.140  56.760 -55.551  1.00  0.00     0.166 C 
HETATM    8  S   UNL     1     -45.129  59.187 -54.555  1.00  0.00    -0.086 SA
HETATM    9  C   UNL     1     -43.550  60.019 -54.125  1.00  0.00     0.135 C 
HETATM   10  C   UNL     1     -42.570  55.602 -54.705  1.00  0.00     0.069 C 
ENDROOT
BRANCH   6  11
HETATM   11  C   UNL     1     -41.032  59.199 -53.792  1.00  0.00     0.156 C 
BRANCH  11  12
HETATM   12  C   UNL     1     -41.067  59.000 -52.288  1.00  0.00     0.223 C 
HETATM   13  N   UNL     1     -41.074  57.705 -51.842  1.00  0.00    -0.359 N 
HETATM   14  H   UNL     1     -40.854  56.937 -52.483  1.00  0.00     0.162 HD
HETATM   15  O   UNL     1     -41.244  59.948 -51.526  1.00  0.00    -0.273 OA
BRANCH  13  16
HETATM   16  C   UNL     1     -41.559  57.316 -50.508  1.00  0.00     0.150 C 
BRANCH  16  17
HETATM   17  C   UNL     1     -40.783  56.201 -49.765  1.00  0.00     0.253 C 
BRANCH  17  18
HETATM   18  N   UNL     1     -41.200  54.801 -50.169  1.00  0.00    -0.077 N 
HETATM   19  H   UNL     1     -40.817  54.636 -51.122  1.00  0.00     0.279 HD
HETATM   20  C   UNL     1     -40.631  53.707 -49.309  1.00  0.00     0.269 C 
HETATM   21  C   UNL     1     -42.693  54.667 -50.287  1.00  0.00     0.269 C 
ENDBRANCH  17  18
ENDBRANCH  16  17
ENDBRANCH  13  16
ENDBRANCH  11  12
ENDBRANCH   6  11
BRANCH   7  22
HETATM   22  C   UNL     1     -42.634  56.726 -57.009  1.00  0.00    -0.030 C 
HETATM   23  C   UNL     1     -43.048  57.920 -57.632  1.00  0.00     0.010 C 
HETATM   24  C   UNL     1     -43.867  57.886 -58.763  1.00  0.00     0.008 C 
HETATM   25  C   UNL     1     -44.256  56.665 -59.326  1.00  0.00    -0.055 C 
HETATM   26  C   UNL     1     -43.688  55.490 -58.822  1.00  0.00     0.008 C 
HETATM   27  C   UNL     1     -42.875  55.519 -57.686  1.00  0.00     0.010 C 
BRANCH  25  28
HETATM   28  C   UNL     1     -45.340  56.627 -60.392  1.00  0.00     0.010 C 
HETATM   29  C   UNL     1     -45.310  55.347 -61.225  1.00  0.00     0.015 C 
HETATM   30  C   UNL     1     -46.721  56.826 -59.752  1.00  0.00     0.015 C 
ENDBRANCH  25  28
ENDBRANCH   7  22
BRANCH  10  31
HETATM   31  C   UNL     1     -41.441  54.875 -54.122  1.00  0.00     0.294 C 
HETATM   32  O   UNL     1     -40.641  55.487 -53.424  1.00  0.00    -0.259 OA
BRANCH  31  33
HETATM   33  O   UNL     1     -41.370  53.632 -54.618  1.00  0.00    -0.313 OA
BRANCH  33  34
HETATM   34  C   UNL     1     -40.045  53.092 -54.753  1.00  0.00     0.217 C 
BRANCH  34  35
HETATM   35  C   UNL     1     -39.884  51.911 -53.839  1.00  0.00    -0.034 A 
HETATM   36  C   UNL     1     -39.886  50.611 -54.363  1.00  0.00     0.009 A 
HETATM   37  C   UNL     1     -39.729  49.510 -53.521  1.00  0.00     0.001 A 
HETATM   38  C   UNL     1     -39.576  49.697 -52.149  1.00  0.00     0.000 A 
HETATM   39  C   UNL     1     -39.583  50.985 -51.616  1.00  0.00     0.001 A 
HETATM   40  C   UNL     1     -39.739  52.088 -52.455  1.00  0.00     0.009 A 
ENDBRANCH  34  35
ENDBRANCH  33  34
ENDBRANCH  31  33
ENDBRANCH  10  31
TORSDOF 11
ENDMDL
MODEL 7
REMARK VINA RESULT:      -7.5      2.608      7.970
REMARK  11 active torsions:
REMARK  status: ('A' for Active; 'I' for Inactive)
REMARK    1  A    between atoms: C_6  and  C_7 
REMARK    2  A    between atoms: C_7  and  C_8 
REMARK       I    between atoms: C_8  and  N_9 
REMARK    3  A    between atoms: N_9  and  C_10 
REMARK    4  A    between atoms: C_10  and  C_11 
REMARK    5  A    between atoms: C_11  and  N_12 
REMARK    6  A    between atoms: C_17  and  C_18 
REMARK    7  A    between atoms: C_21  and  C_22 
REMARK    8  A    between atoms: C_29  and  C_30 
REMARK    9  A    between atoms: C_30  and  O_31 
REMARK   10  A    between atoms: O_31  and  C_32 
REMARK   11  A    between atoms: C_32  and  C_33 
ROOT
HETATM    1  C   UNL     1     -39.210  58.776 -52.404  1.00  0.00     0.071 C 
HETATM    2  C   UNL     1     -40.689  58.930 -52.642  1.00  0.00     0.048 C 
HETATM    3  N   UNL     1     -41.020  59.945 -53.542  1.00  0.00    -0.229 NA
HETATM    4  C   UNL     1     -42.133  59.794 -54.181  1.00  0.00     0.170 C 
HETATM    5  N   UNL     1     -43.106  58.624 -53.878  1.00  0.00    -0.319 N 
HETATM    6  C   UNL     1     -43.578  58.149 -54.976  1.00  0.00     0.011 C 
HETATM    7  C   UNL     1     -43.084  58.288 -52.443  1.00  0.00     0.166 C 
HETATM    8  S   UNL     1     -42.579  60.595 -55.643  1.00  0.00    -0.086 SA
HETATM    9  C   UNL     1     -43.537  59.114 -56.151  1.00  0.00     0.135 C 
HETATM   10  C   UNL     1     -41.632  58.104 -52.132  1.00  0.00     0.069 C 
ENDROOT
BRANCH   6  11
HETATM   11  C   UNL     1     -43.968  56.705 -55.085  1.00  0.00     0.156 C 
BRANCH  11  12
HETATM   12  C   UNL     1     -43.256  56.092 -56.278  1.00  0.00     0.223 C 
HETATM   13  N   UNL     1     -43.903  56.170 -57.483  1.00  0.00    -0.359 N 
HETATM   14  H   UNL     1     -44.710  56.791 -57.596  1.00  0.00     0.162 HD
HETATM   15  O   UNL     1     -42.236  55.423 -56.134  1.00  0.00    -0.273 OA
BRANCH  13  16
HETATM   16  C   UNL     1     -43.616  55.269 -58.610  1.00  0.00     0.150 C 
BRANCH  16  17
HETATM   17  C   UNL     1     -43.202  55.918 -59.954  1.00  0.00     0.253 C 
BRANCH  17  18
HETATM   18  N   UNL     1     -44.362  56.531 -60.713  1.00  0.00    -0.077 N 
HETATM   19  H   UNL     1     -44.097  56.533 -61.718  1.00  0.00     0.279 HD
HETATM   20  C   UNL     1     -45.644  55.748 -60.633  1.00  0.00     0.269 C 
HETATM   21  C   UNL     1     -44.589  57.968 -60.334  1.00  0.00     0.269 C 
ENDBRANCH  17  18
ENDBRANCH  16  17
ENDBRANCH  13  16
ENDBRANCH  11  12
ENDBRANCH   6  11
BRANCH   7  22
HETATM   22  C   UNL     1     -43.772  59.447 -51.698  1.00  0.00    -0.030 C 
HETATM   23  C   UNL     1     -43.053  60.181 -50.734  1.00  0.00     0.010 C 
HETATM   24  C   UNL     1     -43.723  60.936 -49.768  1.00  0.00     0.008 C 
HETATM   25  C   UNL     1     -45.120  61.015 -49.767  1.00  0.00    -0.055 C 
HETATM   26  C   UNL     1     -45.818  60.446 -50.838  1.00  0.00     0.008 C 
HETATM   27  C   UNL     1     -45.153  59.684 -51.800  1.00  0.00     0.010 C 
BRANCH  25  28
HETATM   28  C   UNL     1     -45.849  61.624 -48.579  1.00  0.00     0.010 C 
HETATM   29  C   UNL     1     -45.538  60.914 -47.264  1.00  0.00     0.015 C 
HETATM   30  C   UNL     1     -45.534  63.123 -48.476  1.00  0.00     0.015 C 
ENDBRANCH  25  28
ENDBRANCH   7  22
BRANCH  10  31
HETATM   31  C   UNL     1     -41.324  56.767 -51.624  1.00  0.00     0.294 C 
HETATM   32  O   UNL     1     -40.940  56.649 -50.466  1.00  0.00    -0.259 OA
BRANCH  31  33
HETATM   33  O   UNL     1     -41.346  55.865 -52.615  1.00  0.00    -0.313 OA
BRANCH  33  34
HETATM   34  C   UNL     1     -42.014  54.629 -52.316  1.00  0.00     0.217 C 
BRANCH  34  35
HETATM   35  C   UNL     1     -41.131  53.473 -52.690  1.00  0.00    -0.034 A 
HETATM   36  C   UNL     1     -40.302  52.881 -51.727  1.00  0.00     0.009 A 
HETATM   37  C   UNL     1     -39.486  51.802 -52.065  1.00  0.00     0.001 A 
HETATM   38  C   UNL     1     -39.484  51.309 -53.368  1.00  0.00     0.000 A 
HETATM   39  C   UNL     1     -40.297  51.896 -54.336  1.00  0.00     0.001 A 
HETATM   40  C   UNL     1     -41.115  52.975 -54.001  1.00  0.00     0.009 A 
ENDBRANCH  34  35
ENDBRANCH  33  34
ENDBRANCH  31  33
ENDBRANCH  10  31
TORSDOF 11
ENDMDL
MODEL 8
REMARK VINA RESULT:      -7.4      2.719      4.504
REMARK  11 active torsions:
REMARK  status: ('A' for Active; 'I' for Inactive)
REMARK    1  A    between atoms: C_6  and  C_7 
REMARK    2  A    between atoms: C_7  and  C_8 
REMARK       I    between atoms: C_8  and  N_9 
REMARK    3  A    between atoms: N_9  and  C_10 
REMARK    4  A    between atoms: C_10  and  C_11 
REMARK    5  A    between atoms: C_11  and  N_12 
REMARK    6  A    between atoms: C_17  and  C_18 
REMARK    7  A    between atoms: C_21  and  C_22 
REMARK    8  A    between atoms: C_29  and  C_30 
REMARK    9  A    between atoms: C_30  and  O_31 
REMARK   10  A    between atoms: O_31  and  C_32 
REMARK   11  A    between atoms: C_32  and  C_33 
ROOT
HETATM    1  C   UNL     1     -41.706  59.637 -55.182  1.00  0.00     0.071 C 
HETATM    2  C   UNL     1     -42.303  59.172 -53.880  1.00  0.00     0.048 C 
HETATM    3  N   UNL     1     -41.811  59.840 -52.755  1.00  0.00    -0.229 NA
HETATM    4  C   UNL     1     -42.605  59.894 -51.738  1.00  0.00     0.170 C 
HETATM    5  N   UNL     1     -43.971  59.157 -51.715  1.00  0.00    -0.319 N 
HETATM    6  C   UNL     1     -44.867  59.907 -51.179  1.00  0.00     0.011 C 
HETATM    7  C   UNL     1     -43.887  57.885 -52.457  1.00  0.00     0.166 C 
HETATM    8  S   UNL     1     -42.490  61.004 -50.422  1.00  0.00    -0.086 SA
HETATM    9  C   UNL     1     -44.319  60.988 -50.260  1.00  0.00     0.135 C 
HETATM   10  C   UNL     1     -43.308  58.272 -53.782  1.00  0.00     0.069 C 
ENDROOT
BRANCH   6  11
HETATM   11  C   UNL     1     -46.306  59.799 -51.586  1.00  0.00     0.156 C 
BRANCH  11  12
HETATM   12  C   UNL     1     -46.651  60.967 -52.493  1.00  0.00     0.223 C 
HETATM   13  N   UNL     1     -47.936  61.436 -52.425  1.00  0.00    -0.359 N 
HETATM   14  H   UNL     1     -48.550  61.149 -51.657  1.00  0.00     0.162 HD
HETATM   15  O   UNL     1     -45.864  61.357 -53.352  1.00  0.00    -0.273 OA
BRANCH  13  16
HETATM   16  C   UNL     1     -48.567  62.210 -53.505  1.00  0.00     0.150 C 
BRANCH  16  17
HETATM   17  C   UNL     1     -50.113  62.295 -53.511  1.00  0.00     0.253 C 
BRANCH  17  18
HETATM   18  N   UNL     1     -50.763  61.427 -54.570  1.00  0.00    -0.077 N 
HETATM   19  H   UNL     1     -50.354  60.476 -54.472  1.00  0.00     0.279 HD
HETATM   20  C   UNL     1     -52.247  61.249 -54.408  1.00  0.00     0.269 C 
HETATM   21  C   UNL     1     -50.429  61.888 -55.962  1.00  0.00     0.269 C 
ENDBRANCH  17  18
ENDBRANCH  16  17
ENDBRANCH  13  16
ENDBRANCH  11  12
ENDBRANCH   6  11
BRANCH   7  22
HETATM   22  C   UNL     1     -43.019  56.930 -51.616  1.00  0.00    -0.030 C 
HETATM   23  C   UNL     1     -41.671  56.720 -51.969  1.00  0.00     0.010 C 
HETATM   24  C   UNL     1     -40.984  55.592 -51.516  1.00  0.00     0.008 C 
HETATM   25  C   UNL     1     -41.607  54.671 -50.666  1.00  0.00    -0.055 C 
HETATM   26  C   UNL     1     -42.875  54.982 -50.164  1.00  0.00     0.008 C 
HETATM   27  C   UNL     1     -43.569  56.105 -50.621  1.00  0.00     0.010 C 
BRANCH  25  28
HETATM   28  C   UNL     1     -40.949  53.330 -50.380  1.00  0.00     0.010 C 
HETATM   29  C   UNL     1     -39.666  53.115 -51.180  1.00  0.00     0.015 C 
HETATM   30  C   UNL     1     -40.683  53.179 -48.876  1.00  0.00     0.015 C 
ENDBRANCH  25  28
ENDBRANCH   7  22
BRANCH  10  31
HETATM   31  C   UNL     1     -44.185  57.936 -54.905  1.00  0.00     0.294 C 
HETATM   32  O   UNL     1     -45.271  58.498 -54.994  1.00  0.00    -0.259 OA
BRANCH  31  33
HETATM   33  O   UNL     1     -43.705  56.887 -55.585  1.00  0.00    -0.313 OA
BRANCH  33  34
HETATM   34  C   UNL     1     -43.942  55.599 -54.993  1.00  0.00     0.217 C 
BRANCH  34  35
HETATM   35  C   UNL     1     -42.646  54.851 -54.869  1.00  0.00    -0.034 A 
HETATM   36  C   UNL     1     -41.446  55.450 -55.278  1.00  0.00     0.009 A 
HETATM   37  C   UNL     1     -40.238  54.764 -55.158  1.00  0.00     0.001 A 
HETATM   38  C   UNL     1     -40.217  53.472 -54.637  1.00  0.00     0.000 A 
HETATM   39  C   UNL     1     -41.405  52.863 -54.237  1.00  0.00     0.001 A 
HETATM   40  C   UNL     1     -42.615  53.547 -54.355  1.00  0.00     0.009 A 
ENDBRANCH  34  35
ENDBRANCH  33  34
ENDBRANCH  31  33
ENDBRANCH  10  31
TORSDOF 11
ENDMDL
MODEL 9
REMARK VINA RESULT:      -7.4      3.467      7.329
REMARK  11 active torsions:
REMARK  status: ('A' for Active; 'I' for Inactive)
REMARK    1  A    between atoms: C_6  and  C_7 
REMARK    2  A    between atoms: C_7  and  C_8 
REMARK       I    between atoms: C_8  and  N_9 
REMARK    3  A    between atoms: N_9  and  C_10 
REMARK    4  A    between atoms: C_10  and  C_11 
REMARK    5  A    between atoms: C_11  and  N_12 
REMARK    6  A    between atoms: C_17  and  C_18 
REMARK    7  A    between atoms: C_21  and  C_22 
REMARK    8  A    between atoms: C_29  and  C_30 
REMARK    9  A    between atoms: C_30  and  O_31 
REMARK   10  A    between atoms: O_31  and  C_32 
REMARK   11  A    between atoms: C_32  and  C_33 
ROOT
HETATM    1  C   UNL     1     -44.657  57.856 -53.122  1.00  0.00     0.071 C 
HETATM    2  C   UNL     1     -44.197  58.195 -54.515  1.00  0.00     0.048 C 
HETATM    3  N   UNL     1     -45.236  58.417 -55.422  1.00  0.00    -0.229 NA
HETATM    4  C   UNL     1     -44.962  59.197 -56.415  1.00  0.00     0.170 C 
HETATM    5  N   UNL     1     -43.535  59.753 -56.660  1.00  0.00    -0.319 N 
HETATM    6  C   UNL     1     -43.599  60.988 -57.015  1.00  0.00     0.011 C 
HETATM    7  C   UNL     1     -42.517  58.766 -56.259  1.00  0.00     0.166 C 
HETATM    8  S   UNL     1     -46.114  60.013 -57.408  1.00  0.00    -0.086 SA
HETATM    9  C   UNL     1     -44.933  61.403 -57.619  1.00  0.00     0.135 C 
HETATM   10  C   UNL     1     -42.904  58.387 -54.864  1.00  0.00     0.069 C 
ENDROOT
BRANCH   6  11
HETATM   11  C   UNL     1     -42.490  61.942 -56.689  1.00  0.00     0.156 C 
BRANCH  11  12
HETATM   12  C   UNL     1     -41.536  62.010 -57.868  1.00  0.00     0.223 C 
HETATM   13  N   UNL     1     -41.728  63.039 -58.752  1.00  0.00    -0.359 N 
HETATM   14  H   UNL     1     -42.339  63.823 -58.506  1.00  0.00     0.162 HD
HETATM   15  O   UNL     1     -40.745  61.098 -58.098  1.00  0.00    -0.273 OA
BRANCH  13  16
HETATM   16  C   UNL     1     -41.237  63.009 -60.138  1.00  0.00     0.150 C 
BRANCH  16  17
HETATM   17  C   UNL     1     -42.229  62.550 -61.235  1.00  0.00     0.253 C 
BRANCH  17  18
HETATM   18  N   UNL     1     -41.700  61.418 -62.093  1.00  0.00    -0.077 N 
HETATM   19  H   UNL     1     -40.684  61.590 -62.227  1.00  0.00     0.279 HD
HETATM   20  C   UNL     1     -41.801  60.056 -61.463  1.00  0.00     0.269 C 
HETATM   21  C   UNL     1     -42.311  61.417 -63.468  1.00  0.00     0.269 C 
ENDBRANCH  17  18
ENDBRANCH  16  17
ENDBRANCH  13  16
ENDBRANCH  11  12
ENDBRANCH   6  11
BRANCH   7  22
HETATM   22  C   UNL     1     -42.569  57.621 -57.287  1.00  0.00    -0.030 C 
HETATM   23  C   UNL     1     -42.559  57.921 -58.664  1.00  0.00     0.010 C 
HETATM   24  C   UNL     1     -43.011  56.986 -59.599  1.00  0.00     0.008 C 
HETATM   25  C   UNL     1     -43.440  55.719 -59.191  1.00  0.00    -0.055 C 
HETATM   26  C   UNL     1     -43.268  55.359 -57.851  1.00  0.00     0.008 C 
HETATM   27  C   UNL     1     -42.824  56.292 -56.911  1.00  0.00     0.010 C 
BRANCH  25  28
HETATM   28  C   UNL     1     -44.161  54.805 -60.171  1.00  0.00     0.010 C 
HETATM   29  C   UNL     1     -44.734  53.556 -59.506  1.00  0.00     0.015 C 
HETATM   30  C   UNL     1     -45.259  55.581 -60.910  1.00  0.00     0.015 C 
ENDBRANCH  25  28
ENDBRANCH   7  22
BRANCH  10  31
HETATM   31  C   UNL     1     -41.851  58.669 -53.885  1.00  0.00     0.294 C 
HETATM   32  O   UNL     1     -41.771  59.797 -53.413  1.00  0.00    -0.259 OA
BRANCH  31  33
HETATM   33  O   UNL     1     -40.998  57.640 -53.797  1.00  0.00    -0.313 OA
BRANCH  33  34
HETATM   34  C   UNL     1     -41.301  56.665 -52.785  1.00  0.00     0.217 C 
BRANCH  34  35
HETATM   35  C   UNL     1     -40.958  55.292 -53.286  1.00  0.00    -0.034 A 
HETATM   36  C   UNL     1     -40.560  55.107 -54.618  1.00  0.00     0.009 A 
HETATM   37  C   UNL     1     -40.233  53.835 -55.087  1.00  0.00     0.001 A 
HETATM   38  C   UNL     1     -40.307  52.736 -54.234  1.00  0.00     0.000 A 
HETATM   39  C   UNL     1     -40.712  52.906 -52.911  1.00  0.00     0.001 A 
HETATM   40  C   UNL     1     -41.039  54.177 -52.439  1.00  0.00     0.009 A 
ENDBRANCH  34  35
ENDBRANCH  33  34
ENDBRANCH  31  33
ENDBRANCH  10  31
TORSDOF 11
ENDMDL
MODEL 10
REMARK VINA RESULT:      -7.4      2.441      7.708
REMARK  11 active torsions:
REMARK  status: ('A' for Active; 'I' for Inactive)
REMARK    1  A    between atoms: C_6  and  C_7 
REMARK    2  A    between atoms: C_7  and  C_8 
REMARK       I    between atoms: C_8  and  N_9 
REMARK    3  A    between atoms: N_9  and  C_10 
REMARK    4  A    between atoms: C_10  and  C_11 
REMARK    5  A    between atoms: C_11  and  N_12 
REMARK    6  A    between atoms: C_17  and  C_18 
REMARK    7  A    between atoms: C_21  and  C_22 
REMARK    8  A    between atoms: C_29  and  C_30 
REMARK    9  A    between atoms: C_30  and  O_31 
REMARK   10  A    between atoms: O_31  and  C_32 
REMARK   11  A    between atoms: C_32  and  C_33 
ROOT
HETATM    1  C   UNL     1     -41.362  55.334 -48.943  1.00  0.00     0.071 C 
HETATM    2  C   UNL     1     -41.857  56.032 -50.182  1.00  0.00     0.048 C 
HETATM    3  N   UNL     1     -41.353  57.325 -50.349  1.00  0.00    -0.229 NA
HETATM    4  C   UNL     1     -41.287  57.753 -51.566  1.00  0.00     0.170 C 
HETATM    5  N   UNL     1     -41.848  56.936 -52.760  1.00  0.00    -0.319 N 
HETATM    6  C   UNL     1     -41.040  57.006 -53.758  1.00  0.00     0.011 C 
HETATM    7  C   UNL     1     -43.053  56.188 -52.358  1.00  0.00     0.166 C 
HETATM    8  S   UNL     1     -40.316  59.064 -52.127  1.00  0.00    -0.086 SA
HETATM    9  C   UNL     1     -40.117  58.215 -53.742  1.00  0.00     0.135 C 
HETATM   10  C   UNL     1     -42.631  55.449 -51.127  1.00  0.00     0.069 C 
ENDROOT
BRANCH   6  11
HETATM   11  C   UNL     1     -40.934  55.879 -54.743  1.00  0.00     0.156 C 
BRANCH  11  12
HETATM   12  C   UNL     1     -42.119  55.941 -55.690  1.00  0.00     0.223 C 
HETATM   13  N   UNL     1     -42.145  56.991 -56.569  1.00  0.00    -0.359 N 
HETATM   14  H   UNL     1     -41.310  57.566 -56.711  1.00  0.00     0.162 HD
HETATM   15  O   UNL     1     -43.076  55.181 -55.560  1.00  0.00    -0.273 OA
BRANCH  13  16
HETATM   16  C   UNL     1     -43.378  57.468 -57.214  1.00  0.00     0.150 C 
BRANCH  16  17
HETATM   17  C   UNL     1     -43.883  56.688 -58.453  1.00  0.00     0.253 C 
BRANCH  17  18
HETATM   18  N   UNL     1     -45.351  56.913 -58.753  1.00  0.00    -0.077 N 
HETATM   19  H   UNL     1     -45.856  56.057 -58.447  1.00  0.00     0.279 HD
HETATM   20  C   UNL     1     -45.979  58.048 -57.992  1.00  0.00     0.269 C 
HETATM   21  C   UNL     1     -45.613  57.050 -60.228  1.00  0.00     0.269 C 
ENDBRANCH  17  18
ENDBRANCH  16  17
ENDBRANCH  13  16
ENDBRANCH  11  12
ENDBRANCH   6  11
BRANCH   7  22
HETATM   22  C   UNL     1     -44.176  57.221 -52.150  1.00  0.00    -0.030 C 
HETATM   23  C   UNL     1     -44.481  58.135 -53.178  1.00  0.00     0.010 C 
HETATM   24  C   UNL     1     -45.174  59.316 -52.898  1.00  0.00     0.008 C 
HETATM   25  C   UNL     1     -45.618  59.592 -51.600  1.00  0.00    -0.055 C 
HETATM   26  C   UNL     1     -45.483  58.597 -50.626  1.00  0.00     0.008 C 
HETATM   27  C   UNL     1     -44.784  57.419 -50.899  1.00  0.00     0.010 C 
BRANCH  25  28
HETATM   28  C   UNL     1     -46.143  60.976 -51.252  1.00  0.00     0.010 C 
HETATM   29  C   UNL     1     -45.869  61.367 -49.801  1.00  0.00     0.015 C 
HETATM   30  C   UNL     1     -45.564  62.021 -52.216  1.00  0.00     0.015 C 
ENDBRANCH  25  28
ENDBRANCH   7  22
BRANCH  10  31
HETATM   31  C   UNL     1     -42.758  53.997 -51.263  1.00  0.00     0.294 C 
HETATM   32  O   UNL     1     -43.878  53.510 -51.363  1.00  0.00    -0.259 OA
BRANCH  31  33
HETATM   33  O   UNL     1     -41.577  53.397 -51.068  1.00  0.00    -0.313 OA
BRANCH  33  34
HETATM   34  C   UNL     1     -40.644  53.491 -52.157  1.00  0.00     0.217 C 
BRANCH  34  35
HETATM   35  C   UNL     1     -40.250  52.114 -52.607  1.00  0.00    -0.034 A 
HETATM   36  C   UNL     1     -39.785  51.175 -51.676  1.00  0.00     0.009 A 
HETATM   37  C   UNL     1     -39.425  49.891 -52.087  1.00  0.00     0.001 A 
HETATM   38  C   UNL     1     -39.518  49.537 -53.431  1.00  0.00     0.000 A 
HETATM   39  C   UNL     1     -39.969  50.466 -54.367  1.00  0.00     0.001 A 
HETATM   40  C   UNL     1     -40.330  51.750 -53.959  1.00  0.00     0.009 A 
ENDBRANCH  34  35
ENDBRANCH  33  34
ENDBRANCH  31  33
ENDBRANCH  10  31
TORSDOF 11
ENDMDL
