MODEL 1
REMARK VINA RESULT:      -7.9      0.000      0.000
REMARK  6 active torsions:
REMARK  status: ('A' for Active; 'I' for Inactive)
REMARK    1  A    between atoms: C_2  and  C_3 
REMARK    2  A    between atoms: C_2  and  C_9 
REMARK    3  A    between atoms: C_9  and  N_10 
REMARK       I    between atoms: N_10  and  C_11 
REMARK    4  A    between atoms: C_11  and  C_12 
REMARK    5  A    between atoms: C_13  and  O_14 
REMARK    6  A    between atoms: O_14  and  C_15 
ROOT
HETATM    1  N   UNL     1     -42.694  54.785 -52.963  1.00  0.00    -0.356 N 
HETATM    2  C   UNL     1     -41.545  54.399 -53.615  1.00  0.00     0.254 C 
HETATM    3  O   UNL     1     -41.126  54.978 -54.613  1.00  0.00    -0.268 OA
HETATM    4  H   UNL     1     -43.007  54.238 -52.168  1.00  0.00     0.162 HD
ENDROOT
BRANCH   2   5
HETATM    5  C   UNL     1     -40.810  53.206 -53.081  1.00  0.00     0.067 A 
HETATM    6  C   UNL     1     -40.371  53.059 -51.749  1.00  0.00     0.090 A 
HETATM    7  C   UNL     1     -39.734  51.871 -51.358  1.00  0.00     0.040 A 
HETATM    8  C   UNL     1     -39.483  50.860 -52.287  1.00  0.00     0.026 A 
HETATM    9  C   UNL     1     -39.879  51.024 -53.610  1.00  0.00     0.035 A 
HETATM   10 CL   UNL     1     -39.565  49.778 -54.754  1.00  0.00    -0.084 Cl
HETATM   11  C   UNL     1     -40.540  52.181 -54.007  1.00  0.00     0.043 A 
BRANCH   6  12
HETATM   12  O   UNL     1     -40.631  54.062 -50.849  1.00  0.00    -0.289 OA
BRANCH  12  13
HETATM   13  C   UNL     1     -40.096  53.854 -49.547  1.00  0.00     0.505 C 
HETATM   14  F   UNL     1     -38.899  54.490 -49.508  1.00  0.00    -0.184 F 
HETATM   15  F   UNL     1     -40.894  54.477 -48.646  1.00  0.00    -0.184 F 
ENDBRANCH  12  13
ENDBRANCH   6  12
ENDBRANCH   2   5
BRANCH   1  16
HETATM   16  C   UNL     1     -43.489  55.933 -53.367  1.00  0.00     0.136 C 
BRANCH  16  17
HETATM   17  C   UNL     1     -43.534  57.073 -52.300  1.00  0.00    -0.004 C 
HETATM   18  C   UNL     1     -44.043  56.461 -50.973  1.00  0.00     0.021 C 
HETATM   19  C   UNL     1     -44.590  58.107 -52.756  1.00  0.00     0.021 C 
BRANCH  17  20
HETATM   20  C   UNL     1     -42.189  57.805 -52.155  1.00  0.00    -0.046 A 
HETATM   21  C   UNL     1     -41.622  58.114 -50.910  1.00  0.00     0.027 A 
HETATM   22  C   UNL     1     -40.413  58.796 -50.858  1.00  0.00     0.116 A 
HETATM   23  N   UNL     1     -39.722  59.194 -51.943  1.00  0.00    -0.273 NA
HETATM   24  C   UNL     1     -40.273  58.902 -53.138  1.00  0.00     0.116 A 
HETATM   25  C   UNL     1     -41.480  58.233 -53.289  1.00  0.00     0.027 A 
ENDBRANCH  17  20
ENDBRANCH  16  17
ENDBRANCH   1  16
TORSDOF 6
ENDMDL
MODEL 2
REMARK VINA RESULT:      -7.7      2.102      2.916
REMARK  6 active torsions:
REMARK  status: ('A' for Active; 'I' for Inactive)
REMARK    1  A    between atoms: C_2  and  C_3 
REMARK    2  A    between atoms: C_2  and  C_9 
REMARK    3  A    between atoms: C_9  and  N_10 
REMARK       I    between atoms: N_10  and  C_11 
REMARK    4  A    between atoms: C_11  and  C_12 
REMARK    5  A    between atoms: C_13  and  O_14 
REMARK    6  A    between atoms: O_14  and  C_15 
ROOT
HETATM    1  N   UNL     1     -42.778  54.772 -51.673  1.00  0.00    -0.356 N 
HETATM    2  C   UNL     1     -41.467  54.417 -51.452  1.00  0.00     0.254 C 
HETATM    3  O   UNL     1     -40.734  55.035 -50.685  1.00  0.00    -0.268 OA
HETATM    4  H   UNL     1     -43.315  54.243 -52.351  1.00  0.00     0.162 HD
ENDROOT
BRANCH   2   5
HETATM    5  C   UNL     1     -40.927  53.241 -52.211  1.00  0.00     0.067 A 
HETATM    6  C   UNL     1     -41.045  53.058 -53.605  1.00  0.00     0.090 A 
HETATM    7  C   UNL     1     -40.453  51.937 -54.207  1.00  0.00     0.040 A 
HETATM    8  C   UNL     1     -39.800  50.976 -53.433  1.00  0.00     0.026 A 
HETATM    9  C   UNL     1     -39.720  51.137 -52.054  1.00  0.00     0.035 A 
HETATM   10 CL   UNL     1     -38.917  49.950 -51.103  1.00  0.00    -0.084 Cl
HETATM   11  C   UNL     1     -40.273  52.258 -51.445  1.00  0.00     0.043 A 
BRANCH   6  12
HETATM   12  O   UNL     1     -41.687  54.016 -54.349  1.00  0.00    -0.289 OA
BRANCH  12  13
HETATM   13  C   UNL     1     -40.857  54.721 -55.264  1.00  0.00     0.505 C 
HETATM   14  F   UNL     1     -41.597  55.745 -55.758  1.00  0.00    -0.184 F 
HETATM   15  F   UNL     1     -39.832  55.282 -54.576  1.00  0.00    -0.184 F 
ENDBRANCH  12  13
ENDBRANCH   6  12
ENDBRANCH   2   5
BRANCH   1  16
HETATM   16  C   UNL     1     -43.426  55.878 -50.989  1.00  0.00     0.136 C 
BRANCH  16  17
HETATM   17  C   UNL     1     -43.503  57.186 -51.839  1.00  0.00    -0.004 C 
HETATM   18  C   UNL     1     -44.644  58.060 -51.264  1.00  0.00     0.021 C 
HETATM   19  C   UNL     1     -43.916  56.793 -53.277  1.00  0.00     0.021 C 
BRANCH  17  20
HETATM   20  C   UNL     1     -42.155  57.923 -51.921  1.00  0.00    -0.046 A 
HETATM   21  C   UNL     1     -41.627  58.660 -50.851  1.00  0.00     0.027 A 
HETATM   22  C   UNL     1     -40.412  59.317 -51.006  1.00  0.00     0.116 A 
HETATM   23  N   UNL     1     -39.681  59.298 -52.137  1.00  0.00    -0.273 NA
HETATM   24  C   UNL     1     -40.196  58.594 -53.165  1.00  0.00     0.116 A 
HETATM   25  C   UNL     1     -41.405  57.914 -53.107  1.00  0.00     0.027 A 
ENDBRANCH  17  20
ENDBRANCH  16  17
ENDBRANCH   1  16
TORSDOF 6
ENDMDL
MODEL 3
REMARK VINA RESULT:      -7.5      1.350      2.628
REMARK  6 active torsions:
REMARK  status: ('A' for Active; 'I' for Inactive)
REMARK    1  A    between atoms: C_2  and  C_3 
REMARK    2  A    between atoms: C_2  and  C_9 
REMARK    3  A    between atoms: C_9  and  N_10 
REMARK       I    between atoms: N_10  and  C_11 
REMARK    4  A    between atoms: C_11  and  C_12 
REMARK    5  A    between atoms: C_13  and  O_14 
REMARK    6  A    between atoms: O_14  and  C_15 
ROOT
HETATM    1  N   UNL     1     -41.126  55.783 -53.948  1.00  0.00    -0.356 N 
HETATM    2  C   UNL     1     -41.722  54.544 -53.887  1.00  0.00     0.254 C 
HETATM    3  O   UNL     1     -42.872  54.343 -54.266  1.00  0.00    -0.268 OA
HETATM    4  H   UNL     1     -40.187  55.888 -53.580  1.00  0.00     0.162 HD
ENDROOT
BRANCH   2   5
HETATM    5  C   UNL     1     -40.921  53.416 -53.307  1.00  0.00     0.067 A 
HETATM    6  C   UNL     1     -40.394  53.390 -51.998  1.00  0.00     0.090 A 
HETATM    7  C   UNL     1     -39.702  52.253 -51.554  1.00  0.00     0.040 A 
HETATM    8  C   UNL     1     -39.484  51.173 -52.412  1.00  0.00     0.026 A 
HETATM    9  C   UNL     1     -39.969  51.217 -53.714  1.00  0.00     0.035 A 
HETATM   10 CL   UNL     1     -39.696  49.886 -54.770  1.00  0.00    -0.084 Cl
HETATM   11  C   UNL     1     -40.684  52.323 -54.161  1.00  0.00     0.043 A 
BRANCH   6  12
HETATM   12  O   UNL     1     -40.623  54.459 -51.169  1.00  0.00    -0.289 OA
BRANCH  12  13
HETATM   13  C   UNL     1     -40.376  54.212 -49.790  1.00  0.00     0.505 C 
HETATM   14  F   UNL     1     -39.129  54.673 -49.525  1.00  0.00    -0.184 F 
HETATM   15  F   UNL     1     -41.231  54.966 -49.055  1.00  0.00    -0.184 F 
ENDBRANCH  12  13
ENDBRANCH   6  12
ENDBRANCH   2   5
BRANCH   1  16
HETATM   16  C   UNL     1     -41.785  56.953 -54.503  1.00  0.00     0.136 C 
BRANCH  16  17
HETATM   17  C   UNL     1     -41.890  58.150 -53.505  1.00  0.00    -0.004 C 
HETATM   18  C   UNL     1     -41.795  59.460 -54.323  1.00  0.00     0.021 C 
HETATM   19  C   UNL     1     -40.652  58.104 -52.579  1.00  0.00     0.021 C 
BRANCH  17  20
HETATM   20  C   UNL     1     -43.146  58.077 -52.618  1.00  0.00    -0.046 A 
HETATM   21  C   UNL     1     -44.150  59.054 -52.642  1.00  0.00     0.027 A 
HETATM   22  C   UNL     1     -45.246  58.931 -51.797  1.00  0.00     0.116 A 
HETATM   23  N   UNL     1     -45.424  57.914 -50.932  1.00  0.00    -0.273 NA
HETATM   24  C   UNL     1     -44.452  56.980 -50.907  1.00  0.00     0.116 A 
HETATM   25  C   UNL     1     -43.318  57.023 -51.707  1.00  0.00     0.027 A 
ENDBRANCH  17  20
ENDBRANCH  16  17
ENDBRANCH   1  16
TORSDOF 6
ENDMDL
MODEL 4
REMARK VINA RESULT:      -7.4      5.585      7.998
REMARK  6 active torsions:
REMARK  status: ('A' for Active; 'I' for Inactive)
REMARK    1  A    between atoms: C_2  and  C_3 
REMARK    2  A    between atoms: C_2  and  C_9 
REMARK    3  A    between atoms: C_9  and  N_10 
REMARK       I    between atoms: N_10  and  C_11 
REMARK    4  A    between atoms: C_11  and  C_12 
REMARK    5  A    between atoms: C_13  and  O_14 
REMARK    6  A    between atoms: O_14  and  C_15 
ROOT
HETATM    1  N   UNL     1     -42.245  54.962 -56.263  1.00  0.00    -0.356 N 
HETATM    2  C   UNL     1     -42.955  56.129 -56.434  1.00  0.00     0.254 C 
HETATM    3  O   UNL     1     -43.759  56.542 -55.603  1.00  0.00    -0.268 OA
HETATM    4  H   UNL     1     -41.627  54.658 -57.007  1.00  0.00     0.162 HD
ENDROOT
BRANCH   2   5
HETATM    5  C   UNL     1     -42.738  56.896 -57.704  1.00  0.00     0.067 A 
HETATM    6  C   UNL     1     -42.960  56.387 -59.001  1.00  0.00     0.090 A 
HETATM    7  C   UNL     1     -42.767  57.222 -60.114  1.00  0.00     0.040 A 
HETATM    8  C   UNL     1     -42.305  58.528 -59.950  1.00  0.00     0.026 A 
HETATM    9  C   UNL     1     -42.046  59.015 -58.674  1.00  0.00     0.035 A 
HETATM   10 CL   UNL     1     -41.473  60.625 -58.476  1.00  0.00    -0.084 Cl
HETATM   11  C   UNL     1     -42.263  58.213 -57.558  1.00  0.00     0.043 A 
BRANCH   6  12
HETATM   12  O   UNL     1     -43.419  55.102 -59.141  1.00  0.00    -0.289 OA
BRANCH  12  13
HETATM   13  C   UNL     1     -44.604  54.968 -59.917  1.00  0.00     0.505 C 
HETATM   14  F   UNL     1     -45.092  53.725 -59.679  1.00  0.00    -0.184 F 
HETATM   15  F   UNL     1     -45.529  55.842 -59.449  1.00  0.00    -0.184 F 
ENDBRANCH  12  13
ENDBRANCH   6  12
ENDBRANCH   2   5
BRANCH   1  16
HETATM   16  C   UNL     1     -42.350  54.137 -55.071  1.00  0.00     0.136 C 
BRANCH  16  17
HETATM   17  C   UNL     1     -41.184  54.351 -54.054  1.00  0.00    -0.004 C 
HETATM   18  C   UNL     1     -41.705  55.270 -52.922  1.00  0.00     0.021 C 
HETATM   19  C   UNL     1     -40.057  55.122 -54.779  1.00  0.00     0.021 C 
BRANCH  17  20
HETATM   20  C   UNL     1     -40.594  53.027 -53.538  1.00  0.00    -0.046 A 
HETATM   21  C   UNL     1     -40.410  51.906 -54.359  1.00  0.00     0.027 A 
HETATM   22  C   UNL     1     -39.889  50.737 -53.817  1.00  0.00     0.116 A 
HETATM   23  N   UNL     1     -39.538  50.595 -52.525  1.00  0.00    -0.273 NA
HETATM   24  C   UNL     1     -39.723  51.672 -51.737  1.00  0.00     0.116 A 
HETATM   25  C   UNL     1     -40.244  52.878 -52.186  1.00  0.00     0.027 A 
ENDBRANCH  17  20
ENDBRANCH  16  17
ENDBRANCH   1  16
TORSDOF 6
ENDMDL
MODEL 5
REMARK VINA RESULT:      -7.1      2.611      3.909
REMARK  6 active torsions:
REMARK  status: ('A' for Active; 'I' for Inactive)
REMARK    1  A    between atoms: C_2  and  C_3 
REMARK    2  A    between atoms: C_2  and  C_9 
REMARK    3  A    between atoms: C_9  and  N_10 
REMARK       I    between atoms: N_10  and  C_11 
REMARK    4  A    between atoms: C_11  and  C_12 
REMARK    5  A    between atoms: C_13  and  O_14 
REMARK    6  A    between atoms: O_14  and  C_15 
ROOT
HETATM    1  N   UNL     1     -41.067  55.865 -51.824  1.00  0.00    -0.356 N 
HETATM    2  C   UNL     1     -41.338  54.601 -51.352  1.00  0.00     0.254 C 
HETATM    3  O   UNL     1     -41.983  54.402 -50.326  1.00  0.00    -0.268 OA
HETATM    4  H   UNL     1     -40.494  55.959 -52.655  1.00  0.00     0.162 HD
ENDROOT
BRANCH   2   5
HETATM    5  C   UNL     1     -40.791  53.438 -52.125  1.00  0.00     0.067 A 
HETATM    6  C   UNL     1     -40.777  53.340 -53.532  1.00  0.00     0.090 A 
HETATM    7  C   UNL     1     -40.191  52.219 -54.141  1.00  0.00     0.040 A 
HETATM    8  C   UNL     1     -39.674  51.179 -53.366  1.00  0.00     0.026 A 
HETATM    9  C   UNL     1     -39.725  51.258 -51.979  1.00  0.00     0.035 A 
HETATM   10 CL   UNL     1     -39.090  49.973 -51.028  1.00  0.00    -0.084 Cl
HETATM   11  C   UNL     1     -40.274  52.376 -51.359  1.00  0.00     0.043 A 
BRANCH   6  12
HETATM   12  O   UNL     1     -41.287  54.375 -54.275  1.00  0.00    -0.289 OA
BRANCH  12  13
HETATM   13  C   UNL     1     -42.421  54.042 -55.068  1.00  0.00     0.505 C 
HETATM   14  F   UNL     1     -43.517  54.412 -54.360  1.00  0.00    -0.184 F 
HETATM   15  F   UNL     1     -42.407  54.808 -56.186  1.00  0.00    -0.184 F 
ENDBRANCH  12  13
ENDBRANCH   6  12
ENDBRANCH   2   5
BRANCH   1  16
HETATM   16  C   UNL     1     -41.553  57.074 -51.179  1.00  0.00     0.136 C 
BRANCH  16  17
HETATM   17  C   UNL     1     -41.712  58.285 -52.153  1.00  0.00    -0.004 C 
HETATM   18  C   UNL     1     -40.299  58.700 -52.628  1.00  0.00     0.021 C 
HETATM   19  C   UNL     1     -42.284  59.472 -51.343  1.00  0.00     0.021 C 
BRANCH  17  20
HETATM   20  C   UNL     1     -42.682  57.994 -53.311  1.00  0.00    -0.046 A 
HETATM   21  C   UNL     1     -44.005  57.576 -53.109  1.00  0.00     0.027 A 
HETATM   22  C   UNL     1     -44.816  57.312 -54.205  1.00  0.00     0.116 A 
HETATM   23  N   UNL     1     -44.417  57.432 -55.487  1.00  0.00    -0.273 NA
HETATM   24  C   UNL     1     -43.143  57.826 -55.677  1.00  0.00     0.116 A 
HETATM   25  C   UNL     1     -42.257  58.104 -54.645  1.00  0.00     0.027 A 
ENDBRANCH  17  20
ENDBRANCH  16  17
ENDBRANCH   1  16
TORSDOF 6
ENDMDL
MODEL 6
REMARK VINA RESULT:      -7.0      1.671      2.467
REMARK  6 active torsions:
REMARK  status: ('A' for Active; 'I' for Inactive)
REMARK    1  A    between atoms: C_2  and  C_3 
REMARK    2  A    between atoms: C_2  and  C_9 
REMARK    3  A    between atoms: C_9  and  N_10 
REMARK       I    between atoms: N_10  and  C_11 
REMARK    4  A    between atoms: C_11  and  C_12 
REMARK    5  A    between atoms: C_13  and  O_14 
REMARK    6  A    between atoms: O_14  and  C_15 
ROOT
HETATM    1  N   UNL     1     -40.960  55.799 -53.442  1.00  0.00    -0.356 N 
HETATM    2  C   UNL     1     -41.388  54.560 -53.859  1.00  0.00     0.254 C 
HETATM    3  O   UNL     1     -42.307  54.413 -54.660  1.00  0.00    -0.268 OA
HETATM    4  H   UNL     1     -40.223  55.849 -52.747  1.00  0.00     0.162 HD
ENDROOT
BRANCH   2   5
HETATM    5  C   UNL     1     -40.707  53.357 -53.279  1.00  0.00     0.067 A 
HETATM    6  C   UNL     1     -40.263  53.247 -51.944  1.00  0.00     0.090 A 
HETATM    7  C   UNL     1     -39.682  52.047 -51.506  1.00  0.00     0.040 A 
HETATM    8  C   UNL     1     -39.490  50.985 -52.391  1.00  0.00     0.026 A 
HETATM    9  C   UNL     1     -39.890  51.109 -53.717  1.00  0.00     0.035 A 
HETATM   10 CL   UNL     1     -39.649  49.800 -54.807  1.00  0.00    -0.084 Cl
HETATM   11  C   UNL     1     -40.497  52.280 -54.160  1.00  0.00     0.043 A 
BRANCH   6  12
HETATM   12  O   UNL     1     -40.465  54.300 -51.088  1.00  0.00    -0.289 OA
BRANCH  12  13
HETATM   13  C   UNL     1     -40.129  54.041 -49.730  1.00  0.00     0.505 C 
HETATM   14  F   UNL     1     -38.861  54.487 -49.547  1.00  0.00    -0.184 F 
HETATM   15  F   UNL     1     -40.924  54.800 -48.935  1.00  0.00    -0.184 F 
ENDBRANCH  12  13
ENDBRANCH   6  12
ENDBRANCH   2   5
BRANCH   1  16
HETATM   16  C   UNL     1     -41.523  57.043 -53.941  1.00  0.00     0.136 C 
BRANCH  16  17
HETATM   17  C   UNL     1     -41.485  58.211 -52.905  1.00  0.00    -0.004 C 
HETATM   18  C   UNL     1     -40.070  58.838 -52.948  1.00  0.00     0.021 C 
HETATM   19  C   UNL     1     -41.666  57.601 -51.495  1.00  0.00     0.021 C 
BRANCH  17  20
HETATM   20  C   UNL     1     -42.611  59.237 -53.123  1.00  0.00    -0.046 A 
HETATM   21  C   UNL     1     -43.945  58.987 -52.772  1.00  0.00     0.027 A 
HETATM   22  C   UNL     1     -44.911  59.955 -53.018  1.00  0.00     0.116 A 
HETATM   23  N   UNL     1     -44.656  61.151 -53.584  1.00  0.00    -0.273 NA
HETATM   24  C   UNL     1     -43.374  61.384 -53.927  1.00  0.00     0.116 A 
HETATM   25  C   UNL     1     -42.343  60.475 -53.728  1.00  0.00     0.027 A 
ENDBRANCH  17  20
ENDBRANCH  16  17
ENDBRANCH   1  16
TORSDOF 6
ENDMDL
MODEL 7
REMARK VINA RESULT:      -7.0      3.581      6.733
REMARK  6 active torsions:
REMARK  status: ('A' for Active; 'I' for Inactive)
REMARK    1  A    between atoms: C_2  and  C_3 
REMARK    2  A    between atoms: C_2  and  C_9 
REMARK    3  A    between atoms: C_9  and  N_10 
REMARK       I    between atoms: N_10  and  C_11 
REMARK    4  A    between atoms: C_11  and  C_12 
REMARK    5  A    between atoms: C_13  and  O_14 
REMARK    6  A    between atoms: O_14  and  C_15 
ROOT
HETATM    1  N   UNL     1     -41.444  56.647 -53.055  1.00  0.00    -0.356 N 
HETATM    2  C   UNL     1     -42.188  57.686 -53.566  1.00  0.00     0.254 C 
HETATM    3  O   UNL     1     -42.461  57.780 -54.759  1.00  0.00    -0.268 OA
HETATM    4  H   UNL     1     -41.220  56.652 -52.066  1.00  0.00     0.162 HD
ENDROOT
BRANCH   2   5
HETATM    5  C   UNL     1     -42.649  58.746 -52.611  1.00  0.00     0.067 A 
HETATM    6  C   UNL     1     -41.797  59.613 -51.895  1.00  0.00     0.090 A 
HETATM    7  C   UNL     1     -42.353  60.600 -51.066  1.00  0.00     0.040 A 
HETATM    8  C   UNL     1     -43.736  60.694 -50.902  1.00  0.00     0.026 A 
HETATM    9  C   UNL     1     -44.573  59.812 -51.576  1.00  0.00     0.035 A 
HETATM   10 CL   UNL     1     -46.277  59.928 -51.368  1.00  0.00    -0.084 Cl
HETATM   11  C   UNL     1     -44.041  58.848 -52.426  1.00  0.00     0.043 A 
BRANCH   6  12
HETATM   12  O   UNL     1     -40.440  59.508 -52.074  1.00  0.00    -0.289 OA
BRANCH  12  13
HETATM   13  C   UNL     1     -39.696  59.267 -50.885  1.00  0.00     0.505 C 
HETATM   14  F   UNL     1     -39.987  58.003 -50.489  1.00  0.00    -0.184 F 
HETATM   15  F   UNL     1     -38.375  59.281 -51.191  1.00  0.00    -0.184 F 
ENDBRANCH  12  13
ENDBRANCH   6  12
ENDBRANCH   2   5
BRANCH   1  16
HETATM   16  C   UNL     1     -40.952  55.547 -53.869  1.00  0.00     0.136 C 
BRANCH  16  17
HETATM   17  C   UNL     1     -41.805  54.244 -53.747  1.00  0.00    -0.004 C 
HETATM   18  C   UNL     1     -42.610  54.079 -55.059  1.00  0.00     0.021 C 
HETATM   19  C   UNL     1     -42.831  54.454 -52.609  1.00  0.00     0.021 C 
BRANCH  17  20
HETATM   20  C   UNL     1     -40.956  53.009 -53.395  1.00  0.00    -0.046 A 
HETATM   21  C   UNL     1     -40.346  52.838 -52.145  1.00  0.00     0.027 A 
HETATM   22  C   UNL     1     -39.577  51.705 -51.907  1.00  0.00     0.116 A 
HETATM   23  N   UNL     1     -39.368  50.730 -52.812  1.00  0.00    -0.273 NA
HETATM   24  C   UNL     1     -39.951  50.902 -54.015  1.00  0.00     0.116 A 
HETATM   25  C   UNL     1     -40.728  52.004 -54.348  1.00  0.00     0.027 A 
ENDBRANCH  17  20
ENDBRANCH  16  17
ENDBRANCH   1  16
TORSDOF 6
ENDMDL
MODEL 8
REMARK VINA RESULT:      -6.8      4.097      7.431
REMARK  6 active torsions:
REMARK  status: ('A' for Active; 'I' for Inactive)
REMARK    1  A    between atoms: C_2  and  C_3 
REMARK    2  A    between atoms: C_2  and  C_9 
REMARK    3  A    between atoms: C_9  and  N_10 
REMARK       I    between atoms: N_10  and  C_11 
REMARK    4  A    between atoms: C_11  and  C_12 
REMARK    5  A    between atoms: C_13  and  O_14 
REMARK    6  A    between atoms: O_14  and  C_15 
ROOT
HETATM    1  N   UNL     1     -41.950  55.654 -52.927  1.00  0.00    -0.356 N 
HETATM    2  C   UNL     1     -41.759  56.986 -53.212  1.00  0.00     0.254 C 
HETATM    3  O   UNL     1     -40.643  57.479 -53.353  1.00  0.00    -0.268 OA
HETATM    4  H   UNL     1     -42.897  55.320 -52.783  1.00  0.00     0.162 HD
ENDROOT
BRANCH   2   5
HETATM    5  C   UNL     1     -42.976  57.856 -53.322  1.00  0.00     0.067 A 
HETATM    6  C   UNL     1     -43.423  58.469 -54.511  1.00  0.00     0.090 A 
HETATM    7  C   UNL     1     -44.608  59.222 -54.497  1.00  0.00     0.040 A 
HETATM    8  C   UNL     1     -45.314  59.413 -53.308  1.00  0.00     0.026 A 
HETATM    9  C   UNL     1     -44.850  58.842 -52.129  1.00  0.00     0.035 A 
HETATM   10 CL   UNL     1     -45.721  59.082 -50.665  1.00  0.00    -0.084 Cl
HETATM   11  C   UNL     1     -43.695  58.066 -52.131  1.00  0.00     0.043 A 
BRANCH   6  12
HETATM   12  O   UNL     1     -42.717  58.266 -55.670  1.00  0.00    -0.289 OA
BRANCH  12  13
HETATM   13  C   UNL     1     -43.234  57.245 -56.516  1.00  0.00     0.505 C 
HETATM   14  F   UNL     1     -43.163  57.714 -57.787  1.00  0.00    -0.184 F 
HETATM   15  F   UNL     1     -42.408  56.172 -56.454  1.00  0.00    -0.184 F 
ENDBRANCH  12  13
ENDBRANCH   6  12
ENDBRANCH   2   5
BRANCH   1  16
HETATM   16  C   UNL     1     -40.858  54.702 -52.812  1.00  0.00     0.136 C 
BRANCH  16  17
HETATM   17  C   UNL     1     -40.816  53.650 -53.965  1.00  0.00    -0.004 C 
HETATM   18  C   UNL     1     -39.956  54.236 -55.111  1.00  0.00     0.021 C 
HETATM   19  C   UNL     1     -42.253  53.489 -54.514  1.00  0.00     0.021 C 
BRANCH  17  20
HETATM   20  C   UNL     1     -40.335  52.267 -53.492  1.00  0.00    -0.046 A 
HETATM   21  C   UNL     1     -40.311  51.143 -54.329  1.00  0.00     0.027 A 
HETATM   22  C   UNL     1     -39.882  49.921 -53.825  1.00  0.00     0.116 A 
HETATM   23  N   UNL     1     -39.475  49.728 -52.555  1.00  0.00    -0.273 NA
HETATM   24  C   UNL     1     -39.506  50.810 -51.751  1.00  0.00     0.116 A 
HETATM   25  C   UNL     1     -39.927  52.067 -52.163  1.00  0.00     0.027 A 
ENDBRANCH  17  20
ENDBRANCH  16  17
ENDBRANCH   1  16
TORSDOF 6
ENDMDL
MODEL 9
REMARK VINA RESULT:      -6.7      3.133      4.028
REMARK  6 active torsions:
REMARK  status: ('A' for Active; 'I' for Inactive)
REMARK    1  A    between atoms: C_2  and  C_3 
REMARK    2  A    between atoms: C_2  and  C_9 
REMARK    3  A    between atoms: C_9  and  N_10 
REMARK       I    between atoms: N_10  and  C_11 
REMARK    4  A    between atoms: C_11  and  C_12 
REMARK    5  A    between atoms: C_13  and  O_14 
REMARK    6  A    between atoms: O_14  and  C_15 
ROOT
HETATM    1  N   UNL     1     -42.359  54.910 -54.604  1.00  0.00    -0.356 N 
HETATM    2  C   UNL     1     -41.052  54.547 -54.371  1.00  0.00     0.254 C 
HETATM    3  O   UNL     1     -40.151  54.763 -55.177  1.00  0.00    -0.268 OA
HETATM    4  H   UNL     1     -43.060  54.665 -53.914  1.00  0.00     0.162 HD
ENDROOT
BRANCH   2   5
HETATM    5  C   UNL     1     -40.746  53.838 -53.085  1.00  0.00     0.067 A 
HETATM    6  C   UNL     1     -40.264  52.516 -52.988  1.00  0.00     0.090 A 
HETATM    7  C   UNL     1     -39.968  51.979 -51.725  1.00  0.00     0.040 A 
HETATM    8  C   UNL     1     -40.198  52.721 -50.566  1.00  0.00     0.026 A 
HETATM    9  C   UNL     1     -40.712  54.009 -50.660  1.00  0.00     0.035 A 
HETATM   10 CL   UNL     1     -40.997  54.920 -49.229  1.00  0.00    -0.084 Cl
HETATM   11  C   UNL     1     -40.981  54.569 -51.905  1.00  0.00     0.043 A 
BRANCH   6  12
HETATM   12  O   UNL     1     -40.040  51.804 -54.140  1.00  0.00    -0.289 OA
BRANCH  12  13
HETATM   13  C   UNL     1     -40.010  50.391 -53.976  1.00  0.00     0.505 C 
HETATM   14  F   UNL     1     -41.090  49.897 -54.631  1.00  0.00    -0.184 F 
HETATM   15  F   UNL     1     -38.917  49.904 -54.612  1.00  0.00    -0.184 F 
ENDBRANCH  12  13
ENDBRANCH   6  12
ENDBRANCH   2   5
BRANCH   1  16
HETATM   16  C   UNL     1     -42.784  55.618 -55.800  1.00  0.00     0.136 C 
BRANCH  16  17
HETATM   17  C   UNL     1     -43.158  57.113 -55.547  1.00  0.00    -0.004 C 
HETATM   18  C   UNL     1     -44.469  57.411 -56.314  1.00  0.00     0.021 C 
HETATM   19  C   UNL     1     -42.054  57.992 -56.181  1.00  0.00     0.021 C 
BRANCH  17  20
HETATM   20  C   UNL     1     -43.237  57.462 -54.050  1.00  0.00    -0.046 A 
HETATM   21  C   UNL     1     -42.148  57.974 -53.331  1.00  0.00     0.027 A 
HETATM   22  C   UNL     1     -42.288  58.246 -51.976  1.00  0.00     0.116 A 
HETATM   23  N   UNL     1     -43.425  58.050 -51.279  1.00  0.00    -0.273 NA
HETATM   24  C   UNL     1     -44.467  57.550 -51.973  1.00  0.00     0.116 A 
HETATM   25  C   UNL     1     -44.418  57.240 -53.325  1.00  0.00     0.027 A 
ENDBRANCH  17  20
ENDBRANCH  16  17
ENDBRANCH   1  16
TORSDOF 6
ENDMDL
MODEL 10
REMARK VINA RESULT:      -6.6      4.093      7.045
REMARK  6 active torsions:
REMARK  status: ('A' for Active; 'I' for Inactive)
REMARK    1  A    between atoms: C_2  and  C_3 
REMARK    2  A    between atoms: C_2  and  C_9 
REMARK    3  A    between atoms: C_9  and  N_10 
REMARK       I    between atoms: N_10  and  C_11 
REMARK    4  A    between atoms: C_11  and  C_12 
REMARK    5  A    between atoms: C_13  and  O_14 
REMARK    6  A    between atoms: O_14  and  C_15 
ROOT
HETATM    1  N   UNL     1     -42.440  54.587 -55.401  1.00  0.00    -0.356 N 
HETATM    2  C   UNL     1     -43.147  55.754 -55.220  1.00  0.00     0.254 C 
HETATM    3  O   UNL     1     -43.718  56.026 -54.168  1.00  0.00    -0.268 OA
HETATM    4  H   UNL     1     -42.027  54.407 -56.309  1.00  0.00     0.162 HD
ENDROOT
BRANCH   2   5
HETATM    5  C   UNL     1     -43.229  56.704 -56.378  1.00  0.00     0.067 A 
HETATM    6  C   UNL     1     -43.199  58.110 -56.272  1.00  0.00     0.090 A 
HETATM    7  C   UNL     1     -43.234  58.892 -57.438  1.00  0.00     0.040 A 
HETATM    8  C   UNL     1     -43.355  58.292 -58.692  1.00  0.00     0.026 A 
HETATM    9  C   UNL     1     -43.426  56.908 -58.793  1.00  0.00     0.035 A 
HETATM   10 CL   UNL     1     -43.578  56.172 -60.340  1.00  0.00    -0.084 Cl
HETATM   11  C   UNL     1     -43.361  56.116 -57.651  1.00  0.00     0.043 A 
BRANCH   6  12
HETATM   12  O   UNL     1     -43.076  58.680 -55.030  1.00  0.00    -0.289 OA
BRANCH  12  13
HETATM   13  C   UNL     1     -41.752  59.061 -54.674  1.00  0.00     0.505 C 
HETATM   14  F   UNL     1     -41.829  60.314 -54.160  1.00  0.00    -0.184 F 
HETATM   15  F   UNL     1     -41.326  58.257 -53.669  1.00  0.00    -0.184 F 
ENDBRANCH  12  13
ENDBRANCH   6  12
ENDBRANCH   2   5
BRANCH   1  16
HETATM   16  C   UNL     1     -42.269  53.594 -54.354  1.00  0.00     0.136 C 
BRANCH  16  17
HETATM   17  C   UNL     1     -40.827  53.553 -53.755  1.00  0.00    -0.004 C 
HETATM   18  C   UNL     1     -40.787  54.520 -52.547  1.00  0.00     0.021 C 
HETATM   19  C   UNL     1     -39.856  54.117 -54.818  1.00  0.00     0.021 C 
BRANCH  17  20
HETATM   20  C   UNL     1     -40.367  52.126 -53.407  1.00  0.00    -0.046 A 
HETATM   21  C   UNL     1     -39.932  51.760 -52.126  1.00  0.00     0.027 A 
HETATM   22  C   UNL     1     -39.512  50.456 -51.891  1.00  0.00     0.116 A 
HETATM   23  N   UNL     1     -39.492  49.488 -52.828  1.00  0.00    -0.273 NA
HETATM   24  C   UNL     1     -39.905  49.846 -54.060  1.00  0.00     0.116 A 
HETATM   25  C   UNL     1     -40.332  51.125 -54.391  1.00  0.00     0.027 A 
ENDBRANCH  17  20
ENDBRANCH  16  17
ENDBRANCH   1  16
TORSDOF 6
ENDMDL
