MODEL 1
REMARK VINA RESULT:      -8.7      0.000      0.000
REMARK  7 active torsions:
REMARK  status: ('A' for Active; 'I' for Inactive)
REMARK    1  A    between atoms: O_2  and  C_3 
REMARK    2  A    between atoms: C_6  and  N_7 
REMARK       I    between atoms: N_7  and  C_8 
REMARK    3  A    between atoms: C_8  and  C_9 
REMARK    4  A    between atoms: C_9  and  C_10 
REMARK    5  A    between atoms: C_10  and  N_11 
REMARK    6  A    between atoms: C_10  and  C_20 
REMARK       I    between atoms: N_11  and  C_12 
REMARK    7  A    between atoms: C_12  and  C_13 
ROOT
HETATM    1  C   UNL     1     -42.034  55.468 -53.841  1.00  0.00     0.126 C 
ENDROOT
BRANCH   1   2
HETATM    2  C   UNL     1     -41.954  55.797 -55.345  1.00  0.00     0.133 C 
BRANCH   2   3
HETATM    3  C   UNL     1     -42.964  55.002 -56.135  1.00  0.00     0.224 C 
HETATM    4  N   UNL     1     -43.435  55.407 -57.347  1.00  0.00    -0.326 N 
HETATM    5  H   UNL     1     -44.078  54.709 -57.705  1.00  0.00     0.169 HD
HETATM    6  O   UNL     1     -43.453  53.959 -55.685  1.00  0.00    -0.273 OA
BRANCH   4   7
HETATM    7  C   UNL     1     -43.180  56.490 -58.206  1.00  0.00     0.052 A 
HETATM    8  C   UNL     1     -43.567  57.815 -58.040  1.00  0.00     0.149 A 
HETATM    9  N   UNL     1     -43.235  58.826 -58.887  1.00  0.00    -0.235 NA
HETATM   10  C   UNL     1     -42.488  58.503 -59.961  1.00  0.00     0.163 A 
HETATM   11  C   UNL     1     -42.100  57.211 -60.256  1.00  0.00     0.060 A 
HETATM   12  C   UNL     1     -42.450  56.198 -59.365  1.00  0.00     0.035 A 
BRANCH  10  13
HETATM   13  O   UNL     1     -42.084  59.483 -60.844  1.00  0.00    -0.339 OA
HETATM   14  C   UNL     1     -41.810  60.722 -60.199  1.00  0.00     0.211 C 
ENDBRANCH  10  13
ENDBRANCH   4   7
ENDBRANCH   2   3
ENDBRANCH   1   2
BRANCH   1  15
HETATM   15  N   UNL     1     -41.515  54.149 -53.455  1.00  0.00    -0.348 N 
HETATM   16  C   UNL     1     -40.426  53.511 -54.007  1.00  0.00     0.252 C 
HETATM   17  O   UNL     1     -39.727  53.985 -54.895  1.00  0.00    -0.268 OA
HETATM   18  H   UNL     1     -41.891  53.783 -52.593  1.00  0.00     0.163 HD
BRANCH  16  19
HETATM   19  C   UNL     1     -40.086  52.163 -53.467  1.00  0.00     0.032 A 
HETATM   20  C   UNL     1     -39.793  51.946 -52.115  1.00  0.00     0.017 A 
HETATM   21  C   UNL     1     -39.519  50.654 -51.658  1.00  0.00     0.001 A 
HETATM   22  C   UNL     1     -39.548  49.575 -52.542  1.00  0.00     0.000 A 
HETATM   23  C   UNL     1     -39.855  49.782 -53.886  1.00  0.00     0.001 A 
HETATM   24  C   UNL     1     -40.125  51.071 -54.346  1.00  0.00     0.017 A 
ENDBRANCH  16  19
ENDBRANCH   1  15
BRANCH   1  25
HETATM   25  C   UNL     1     -41.461  56.590 -52.985  1.00  0.00    -0.035 A 
HETATM   26  C   UNL     1     -40.888  57.708 -53.617  1.00  0.00     0.009 A 
HETATM   27  C   UNL     1     -40.333  58.749 -52.871  1.00  0.00     0.001 A 
HETATM   28  C   UNL     1     -40.343  58.689 -51.480  1.00  0.00     0.000 A 
HETATM   29  C   UNL     1     -40.897  57.583 -50.839  1.00  0.00     0.001 A 
HETATM   30  C   UNL     1     -41.447  56.538 -51.585  1.00  0.00     0.009 A 
ENDBRANCH   1  25
TORSDOF 7
ENDMDL
MODEL 2
REMARK VINA RESULT:      -8.6      1.968      5.076
REMARK  7 active torsions:
REMARK  status: ('A' for Active; 'I' for Inactive)
REMARK    1  A    between atoms: O_2  and  C_3 
REMARK    2  A    between atoms: C_6  and  N_7 
REMARK       I    between atoms: N_7  and  C_8 
REMARK    3  A    between atoms: C_8  and  C_9 
REMARK    4  A    between atoms: C_9  and  C_10 
REMARK    5  A    between atoms: C_10  and  N_11 
REMARK    6  A    between atoms: C_10  and  C_20 
REMARK       I    between atoms: N_11  and  C_12 
REMARK    7  A    between atoms: C_12  and  C_13 
ROOT
HETATM    1  C   UNL     1     -40.926  55.020 -54.268  1.00  0.00     0.126 C 
ENDROOT
BRANCH   1   2
HETATM    2  C   UNL     1     -41.325  54.672 -55.716  1.00  0.00     0.133 C 
BRANCH   2   3
HETATM    3  C   UNL     1     -42.819  54.746 -55.907  1.00  0.00     0.224 C 
HETATM    4  N   UNL     1     -43.400  55.457 -56.913  1.00  0.00    -0.326 N 
HETATM    5  H   UNL     1     -44.406  55.342 -56.866  1.00  0.00     0.169 HD
HETATM    6  O   UNL     1     -43.595  54.197 -55.114  1.00  0.00    -0.273 OA
BRANCH   4   7
HETATM    7  C   UNL     1     -42.930  56.217 -57.998  1.00  0.00     0.052 A 
HETATM    8  C   UNL     1     -42.871  55.843 -59.335  1.00  0.00     0.149 A 
HETATM    9  N   UNL     1     -42.455  56.654 -60.345  1.00  0.00    -0.235 NA
HETATM   10  C   UNL     1     -42.067  57.899 -60.007  1.00  0.00     0.163 A 
HETATM   11  C   UNL     1     -42.028  58.356 -58.704  1.00  0.00     0.060 A 
HETATM   12  C   UNL     1     -42.466  57.503 -57.694  1.00  0.00     0.035 A 
BRANCH  10  13
HETATM   13  O   UNL     1     -41.667  58.789 -60.983  1.00  0.00    -0.339 OA
HETATM   14  C   UNL     1     -41.986  60.138 -60.657  1.00  0.00     0.211 C 
ENDBRANCH  10  13
ENDBRANCH   4   7
ENDBRANCH   2   3
ENDBRANCH   1   2
BRANCH   1  15
HETATM   15  N   UNL     1     -41.891  55.844 -53.528  1.00  0.00    -0.348 N 
HETATM   16  C   UNL     1     -41.712  57.154 -53.140  1.00  0.00     0.252 C 
HETATM   17  O   UNL     1     -40.709  57.814 -53.387  1.00  0.00    -0.268 OA
HETATM   18  H   UNL     1     -42.821  55.457 -53.471  1.00  0.00     0.163 HD
BRANCH  16  19
HETATM   19  C   UNL     1     -42.825  57.793 -52.380  1.00  0.00     0.032 A 
HETATM   20  C   UNL     1     -43.000  59.181 -52.328  1.00  0.00     0.017 A 
HETATM   21  C   UNL     1     -44.084  59.722 -51.631  1.00  0.00     0.001 A 
HETATM   22  C   UNL     1     -45.002  58.884 -50.997  1.00  0.00     0.000 A 
HETATM   23  C   UNL     1     -44.842  57.501 -51.059  1.00  0.00     0.001 A 
HETATM   24  C   UNL     1     -43.759  56.957 -51.750  1.00  0.00     0.017 A 
ENDBRANCH  16  19
ENDBRANCH   1  15
BRANCH   1  25
HETATM   25  C   UNL     1     -40.498  53.786 -53.486  1.00  0.00    -0.035 A 
HETATM   26  C   UNL     1     -40.448  53.850 -52.082  1.00  0.00     0.009 A 
HETATM   27  C   UNL     1     -40.041  52.749 -51.326  1.00  0.00     0.001 A 
HETATM   28  C   UNL     1     -39.678  51.566 -51.963  1.00  0.00     0.000 A 
HETATM   29  C   UNL     1     -39.713  51.489 -53.354  1.00  0.00     0.001 A 
HETATM   30  C   UNL     1     -40.113  52.592 -54.111  1.00  0.00     0.009 A 
ENDBRANCH   1  25
TORSDOF 7
ENDMDL
MODEL 3
REMARK VINA RESULT:      -8.5      3.088      6.803
REMARK  7 active torsions:
REMARK  status: ('A' for Active; 'I' for Inactive)
REMARK    1  A    between atoms: O_2  and  C_3 
REMARK    2  A    between atoms: C_6  and  N_7 
REMARK       I    between atoms: N_7  and  C_8 
REMARK    3  A    between atoms: C_8  and  C_9 
REMARK    4  A    between atoms: C_9  and  C_10 
REMARK    5  A    between atoms: C_10  and  N_11 
REMARK    6  A    between atoms: C_10  and  C_20 
REMARK       I    between atoms: N_11  and  C_12 
REMARK    7  A    between atoms: C_12  and  C_13 
ROOT
HETATM    1  C   UNL     1     -41.064  53.609 -51.658  1.00  0.00     0.126 C 
ENDROOT
BRANCH   1   2
HETATM    2  C   UNL     1     -40.187  54.405 -50.672  1.00  0.00     0.133 C 
BRANCH   2   3
HETATM    3  C   UNL     1     -41.010  54.988 -49.550  1.00  0.00     0.224 C 
HETATM    4  N   UNL     1     -41.483  56.265 -49.569  1.00  0.00    -0.326 N 
HETATM    5  H   UNL     1     -42.030  56.430 -48.732  1.00  0.00     0.169 HD
HETATM    6  O   UNL     1     -41.250  54.336 -48.526  1.00  0.00    -0.273 OA
BRANCH   4   7
HETATM    7  C   UNL     1     -41.447  57.329 -50.486  1.00  0.00     0.052 A 
HETATM    8  C   UNL     1     -40.355  58.120 -50.827  1.00  0.00     0.149 A 
HETATM    9  N   UNL     1     -40.379  59.101 -51.769  1.00  0.00    -0.235 NA
HETATM   10  C   UNL     1     -41.550  59.314 -52.399  1.00  0.00     0.163 A 
HETATM   11  C   UNL     1     -42.712  58.629 -52.098  1.00  0.00     0.060 A 
HETATM   12  C   UNL     1     -42.653  57.626 -51.133  1.00  0.00     0.035 A 
BRANCH  10  13
HETATM   13  O   UNL     1     -41.640  60.268 -53.392  1.00  0.00    -0.339 OA
HETATM   14  C   UNL     1     -41.764  59.697 -54.691  1.00  0.00     0.211 C 
ENDBRANCH  10  13
ENDBRANCH   4   7
ENDBRANCH   2   3
ENDBRANCH   1   2
BRANCH   1  15
HETATM   15  N   UNL     1     -41.538  54.358 -52.829  1.00  0.00    -0.348 N 
HETATM   16  C   UNL     1     -42.854  54.607 -53.156  1.00  0.00     0.252 C 
HETATM   17  O   UNL     1     -43.811  54.241 -52.484  1.00  0.00    -0.268 OA
HETATM   18  H   UNL     1     -40.823  54.877 -53.317  1.00  0.00     0.163 HD
BRANCH  16  19
HETATM   19  C   UNL     1     -43.105  55.380 -54.406  1.00  0.00     0.032 A 
HETATM   20  C   UNL     1     -43.995  56.460 -54.456  1.00  0.00     0.017 A 
HETATM   21  C   UNL     1     -44.162  57.172 -55.647  1.00  0.00     0.001 A 
HETATM   22  C   UNL     1     -43.436  56.820 -56.785  1.00  0.00     0.000 A 
HETATM   23  C   UNL     1     -42.537  55.757 -56.738  1.00  0.00     0.001 A 
HETATM   24  C   UNL     1     -42.370  55.040 -55.552  1.00  0.00     0.017 A 
ENDBRANCH  16  19
ENDBRANCH   1  15
BRANCH   1  25
HETATM   25  C   UNL     1     -40.425  52.281 -52.040  1.00  0.00    -0.035 A 
HETATM   26  C   UNL     1     -40.260  51.968 -53.401  1.00  0.00     0.009 A 
HETATM   27  C   UNL     1     -39.698  50.753 -53.797  1.00  0.00     0.001 A 
HETATM   28  C   UNL     1     -39.291  49.831 -52.836  1.00  0.00     0.000 A 
HETATM   29  C   UNL     1     -39.457  50.121 -51.484  1.00  0.00     0.001 A 
HETATM   30  C   UNL     1     -40.026  51.334 -51.088  1.00  0.00     0.009 A 
ENDBRANCH   1  25
TORSDOF 7
ENDMDL
MODEL 4
REMARK VINA RESULT:      -8.4      2.504      6.622
REMARK  7 active torsions:
REMARK  status: ('A' for Active; 'I' for Inactive)
REMARK    1  A    between atoms: O_2  and  C_3 
REMARK    2  A    between atoms: C_6  and  N_7 
REMARK       I    between atoms: N_7  and  C_8 
REMARK    3  A    between atoms: C_8  and  C_9 
REMARK    4  A    between atoms: C_9  and  C_10 
REMARK    5  A    between atoms: C_10  and  N_11 
REMARK    6  A    between atoms: C_10  and  C_20 
REMARK       I    between atoms: N_11  and  C_12 
REMARK    7  A    between atoms: C_12  and  C_13 
ROOT
HETATM    1  C   UNL     1     -42.685  56.560 -55.294  1.00  0.00     0.126 C 
ENDROOT
BRANCH   1   2
HETATM    2  C   UNL     1     -44.020  56.977 -54.648  1.00  0.00     0.133 C 
BRANCH   2   3
HETATM    3  C   UNL     1     -43.852  58.198 -53.778  1.00  0.00     0.224 C 
HETATM    4  N   UNL     1     -43.479  58.125 -52.470  1.00  0.00    -0.326 N 
HETATM    5  H   UNL     1     -43.402  59.063 -52.092  1.00  0.00     0.169 HD
HETATM    6  O   UNL     1     -44.101  59.331 -54.208  1.00  0.00    -0.273 OA
BRANCH   4   7
HETATM    7  C   UNL     1     -43.120  57.089 -51.591  1.00  0.00     0.052 A 
HETATM    8  C   UNL     1     -43.855  55.954 -51.270  1.00  0.00     0.149 A 
HETATM    9  N   UNL     1     -43.418  54.960 -50.450  1.00  0.00    -0.235 NA
HETATM   10  C   UNL     1     -42.191  55.106 -49.914  1.00  0.00     0.163 A 
HETATM   11  C   UNL     1     -41.400  56.220 -50.116  1.00  0.00     0.060 A 
HETATM   12  C   UNL     1     -41.873  57.218 -50.966  1.00  0.00     0.035 A 
BRANCH  10  13
HETATM   13  O   UNL     1     -41.668  54.120 -49.102  1.00  0.00    -0.339 OA
HETATM   14  C   UNL     1     -40.306  54.357 -48.762  1.00  0.00     0.211 C 
ENDBRANCH  10  13
ENDBRANCH   4   7
ENDBRANCH   2   3
ENDBRANCH   1   2
BRANCH   1  15
HETATM   15  N   UNL     1     -42.133  55.279 -54.832  1.00  0.00    -0.348 N 
HETATM   16  C   UNL     1     -40.994  55.111 -54.075  1.00  0.00     0.252 C 
HETATM   17  O   UNL     1     -40.296  56.032 -53.668  1.00  0.00    -0.268 OA
HETATM   18  H   UNL     1     -42.753  54.490 -54.935  1.00  0.00     0.163 HD
BRANCH  16  19
HETATM   19  C   UNL     1     -40.610  53.711 -53.732  1.00  0.00     0.032 A 
HETATM   20  C   UNL     1     -40.476  52.709 -54.700  1.00  0.00     0.017 A 
HETATM   21  C   UNL     1     -40.076  51.424 -54.324  1.00  0.00     0.001 A 
HETATM   22  C   UNL     1     -39.798  51.137 -52.987  1.00  0.00     0.000 A 
HETATM   23  C   UNL     1     -39.914  52.134 -52.021  1.00  0.00     0.001 A 
HETATM   24  C   UNL     1     -40.317  53.417 -52.392  1.00  0.00     0.017 A 
ENDBRANCH  16  19
ENDBRANCH   1  15
BRANCH   1  25
HETATM   25  C   UNL     1     -42.735  56.655 -56.813  1.00  0.00    -0.035 A 
HETATM   26  C   UNL     1     -43.115  55.523 -57.556  1.00  0.00     0.009 A 
HETATM   27  C   UNL     1     -43.155  55.559 -58.951  1.00  0.00     0.001 A 
HETATM   28  C   UNL     1     -42.816  56.729 -59.625  1.00  0.00     0.000 A 
HETATM   29  C   UNL     1     -42.428  57.857 -58.904  1.00  0.00     0.001 A 
HETATM   30  C   UNL     1     -42.381  57.818 -57.508  1.00  0.00     0.009 A 
ENDBRANCH   1  25
TORSDOF 7
ENDMDL
MODEL 5
REMARK VINA RESULT:      -8.3     14.911     17.129
REMARK  7 active torsions:
REMARK  status: ('A' for Active; 'I' for Inactive)
REMARK    1  A    between atoms: O_2  and  C_3 
REMARK    2  A    between atoms: C_6  and  N_7 
REMARK       I    between atoms: N_7  and  C_8 
REMARK    3  A    between atoms: C_8  and  C_9 
REMARK    4  A    between atoms: C_9  and  C_10 
REMARK    5  A    between atoms: C_10  and  N_11 
REMARK    6  A    between atoms: C_10  and  C_20 
REMARK       I    between atoms: N_11  and  C_12 
REMARK    7  A    between atoms: C_12  and  C_13 
ROOT
HETATM    1  C   UNL     1     -34.066  40.678 -53.361  1.00  0.00     0.126 C 
ENDROOT
BRANCH   1   2
HETATM    2  C   UNL     1     -35.547  40.510 -53.757  1.00  0.00     0.133 C 
BRANCH   2   3
HETATM    3  C   UNL     1     -36.243  41.845 -53.856  1.00  0.00     0.224 C 
HETATM    4  N   UNL     1     -36.888  42.259 -54.982  1.00  0.00    -0.326 N 
HETATM    5  H   UNL     1     -37.304  43.168 -54.813  1.00  0.00     0.169 HD
HETATM    6  O   UNL     1     -36.214  42.654 -52.920  1.00  0.00    -0.273 OA
BRANCH   4   7
HETATM    7  C   UNL     1     -37.156  41.697 -56.242  1.00  0.00     0.052 A 
HETATM    8  C   UNL     1     -38.125  40.754 -56.562  1.00  0.00     0.149 A 
HETATM    9  N   UNL     1     -38.367  40.295 -57.820  1.00  0.00    -0.235 NA
HETATM   10  C   UNL     1     -37.599  40.791 -58.809  1.00  0.00     0.163 A 
HETATM   11  C   UNL     1     -36.569  41.685 -58.597  1.00  0.00     0.060 A 
HETATM   12  C   UNL     1     -36.350  42.141 -57.298  1.00  0.00     0.035 A 
BRANCH  10  13
HETATM   13  O   UNL     1     -37.812  40.398 -60.115  1.00  0.00    -0.339 OA
HETATM   14  C   UNL     1     -36.818  39.492 -60.583  1.00  0.00     0.211 C 
ENDBRANCH  10  13
ENDBRANCH   4   7
ENDBRANCH   2   3
ENDBRANCH   1   2
BRANCH   1  15
HETATM   15  N   UNL     1     -33.678  40.051 -52.091  1.00  0.00    -0.348 N 
HETATM   16  C   UNL     1     -33.723  40.641 -50.847  1.00  0.00     0.252 C 
HETATM   17  O   UNL     1     -34.121  41.781 -50.640  1.00  0.00    -0.268 OA
HETATM   18  H   UNL     1     -33.544  39.052 -52.137  1.00  0.00     0.163 HD
BRANCH  16  19
HETATM   19  C   UNL     1     -33.264  39.818 -49.691  1.00  0.00     0.032 A 
HETATM   20  C   UNL     1     -32.030  40.027 -49.062  1.00  0.00     0.017 A 
HETATM   21  C   UNL     1     -31.669  39.249 -47.958  1.00  0.00     0.001 A 
HETATM   22  C   UNL     1     -32.539  38.273 -47.471  1.00  0.00     0.000 A 
HETATM   23  C   UNL     1     -33.774  38.072 -48.081  1.00  0.00     0.001 A 
HETATM   24  C   UNL     1     -34.137  38.843 -49.187  1.00  0.00     0.017 A 
ENDBRANCH  16  19
ENDBRANCH   1  15
BRANCH   1  25
HETATM   25  C   UNL     1     -33.129  40.305 -54.502  1.00  0.00    -0.035 A 
HETATM   26  C   UNL     1     -31.938  39.616 -54.211  1.00  0.00     0.009 A 
HETATM   27  C   UNL     1     -31.040  39.273 -55.223  1.00  0.00     0.001 A 
HETATM   28  C   UNL     1     -31.320  39.613 -56.544  1.00  0.00     0.000 A 
HETATM   29  C   UNL     1     -32.490  40.305 -56.848  1.00  0.00     0.001 A 
HETATM   30  C   UNL     1     -33.386  40.654 -55.835  1.00  0.00     0.009 A 
ENDBRANCH   1  25
TORSDOF 7
ENDMDL
MODEL 6
REMARK VINA RESULT:      -8.3      2.706      6.688
REMARK  7 active torsions:
REMARK  status: ('A' for Active; 'I' for Inactive)
REMARK    1  A    between atoms: O_2  and  C_3 
REMARK    2  A    between atoms: C_6  and  N_7 
REMARK       I    between atoms: N_7  and  C_8 
REMARK    3  A    between atoms: C_8  and  C_9 
REMARK    4  A    between atoms: C_9  and  C_10 
REMARK    5  A    between atoms: C_10  and  N_11 
REMARK    6  A    between atoms: C_10  and  C_20 
REMARK       I    between atoms: N_11  and  C_12 
REMARK    7  A    between atoms: C_12  and  C_13 
ROOT
HETATM    1  C   UNL     1     -41.479  54.182 -52.745  1.00  0.00     0.126 C 
ENDROOT
BRANCH   1   2
HETATM    2  C   UNL     1     -40.839  54.964 -51.582  1.00  0.00     0.133 C 
BRANCH   2   3
HETATM    3  C   UNL     1     -41.873  55.385 -50.567  1.00  0.00     0.224 C 
HETATM    4  N   UNL     1     -42.400  56.640 -50.529  1.00  0.00    -0.326 N 
HETATM    5  H   UNL     1     -43.092  56.688 -49.789  1.00  0.00     0.169 HD
HETATM    6  O   UNL     1     -42.253  54.610 -49.680  1.00  0.00    -0.273 OA
BRANCH   4   7
HETATM    7  C   UNL     1     -42.260  57.806 -51.302  1.00  0.00     0.052 A 
HETATM    8  C   UNL     1     -41.090  58.496 -51.592  1.00  0.00     0.149 A 
HETATM    9  N   UNL     1     -41.020  59.590 -52.397  1.00  0.00    -0.235 NA
HETATM   10  C   UNL     1     -42.176  60.027 -52.935  1.00  0.00     0.163 A 
HETATM   11  C   UNL     1     -43.404  59.454 -52.666  1.00  0.00     0.060 A 
HETATM   12  C   UNL     1     -43.440  58.331 -51.842  1.00  0.00     0.035 A 
BRANCH  10  13
HETATM   13  O   UNL     1     -42.177  61.110 -53.790  1.00  0.00    -0.339 OA
HETATM   14  C   UNL     1     -43.307  61.122 -54.656  1.00  0.00     0.211 C 
ENDBRANCH  10  13
ENDBRANCH   4   7
ENDBRANCH   2   3
ENDBRANCH   1   2
BRANCH   1  15
HETATM   15  N   UNL     1     -41.632  54.929 -54.001  1.00  0.00    -0.348 N 
HETATM   16  C   UNL     1     -42.788  55.524 -54.456  1.00  0.00     0.252 C 
HETATM   17  O   UNL     1     -43.851  55.520 -53.847  1.00  0.00    -0.268 OA
HETATM   18  H   UNL     1     -40.765  55.166 -54.459  1.00  0.00     0.163 HD
BRANCH  16  19
HETATM   19  C   UNL     1     -42.716  56.221 -55.773  1.00  0.00     0.032 A 
HETATM   20  C   UNL     1     -42.927  55.558 -56.988  1.00  0.00     0.017 A 
HETATM   21  C   UNL     1     -42.884  56.271 -58.189  1.00  0.00     0.001 A 
HETATM   22  C   UNL     1     -42.646  57.646 -58.183  1.00  0.00     0.000 A 
HETATM   23  C   UNL     1     -42.452  58.315 -56.977  1.00  0.00     0.001 A 
HETATM   24  C   UNL     1     -42.489  57.606 -55.775  1.00  0.00     0.017 A 
ENDBRANCH  16  19
ENDBRANCH   1  15
BRANCH   1  25
HETATM   25  C   UNL     1     -40.812  52.829 -52.953  1.00  0.00    -0.035 A 
HETATM   26  C   UNL     1     -40.107  52.243 -51.886  1.00  0.00     0.009 A 
HETATM   27  C   UNL     1     -39.463  51.014 -52.039  1.00  0.00     0.001 A 
HETATM   28  C   UNL     1     -39.514  50.351 -53.262  1.00  0.00     0.000 A 
HETATM   29  C   UNL     1     -40.200  50.922 -54.332  1.00  0.00     0.001 A 
HETATM   30  C   UNL     1     -40.838  52.155 -54.182  1.00  0.00     0.009 A 
ENDBRANCH   1  25
TORSDOF 7
ENDMDL
MODEL 7
REMARK VINA RESULT:      -8.0      2.824      7.881
REMARK  7 active torsions:
REMARK  status: ('A' for Active; 'I' for Inactive)
REMARK    1  A    between atoms: O_2  and  C_3 
REMARK    2  A    between atoms: C_6  and  N_7 
REMARK       I    between atoms: N_7  and  C_8 
REMARK    3  A    between atoms: C_8  and  C_9 
REMARK    4  A    between atoms: C_9  and  C_10 
REMARK    5  A    between atoms: C_10  and  N_11 
REMARK    6  A    between atoms: C_10  and  C_20 
REMARK       I    between atoms: N_11  and  C_12 
REMARK    7  A    between atoms: C_12  and  C_13 
ROOT
HETATM    1  C   UNL     1     -43.135  56.232 -55.102  1.00  0.00     0.126 C 
ENDROOT
BRANCH   1   2
HETATM    2  C   UNL     1     -42.501  57.609 -54.824  1.00  0.00     0.133 C 
BRANCH   2   3
HETATM    3  C   UNL     1     -43.346  58.421 -53.874  1.00  0.00     0.224 C 
HETATM    4  N   UNL     1     -43.452  58.128 -52.548  1.00  0.00    -0.326 N 
HETATM    5  H   UNL     1     -44.045  58.819 -52.101  1.00  0.00     0.169 HD
HETATM    6  O   UNL     1     -44.030  59.370 -54.276  1.00  0.00    -0.273 OA
BRANCH   4   7
HETATM    7  C   UNL     1     -42.886  57.171 -51.688  1.00  0.00     0.052 A 
HETATM    8  C   UNL     1     -41.674  57.248 -51.013  1.00  0.00     0.149 A 
HETATM    9  N   UNL     1     -41.213  56.304 -50.149  1.00  0.00    -0.235 NA
HETATM   10  C   UNL     1     -41.992  55.223 -49.952  1.00  0.00     0.163 A 
HETATM   11  C   UNL     1     -43.185  55.015 -50.616  1.00  0.00     0.060 A 
HETATM   12  C   UNL     1     -43.633  56.004 -51.490  1.00  0.00     0.035 A 
BRANCH  10  13
HETATM   13  O   UNL     1     -41.605  54.242 -49.062  1.00  0.00    -0.339 OA
HETATM   14  C   UNL     1     -40.202  54.244 -48.820  1.00  0.00     0.211 C 
ENDBRANCH  10  13
ENDBRANCH   4   7
ENDBRANCH   2   3
ENDBRANCH   1   2
BRANCH   1  15
HETATM   15  N   UNL     1     -43.824  56.104 -56.393  1.00  0.00    -0.348 N 
HETATM   16  C   UNL     1     -43.376  56.583 -57.604  1.00  0.00     0.252 C 
HETATM   17  O   UNL     1     -42.313  57.172 -57.761  1.00  0.00    -0.268 OA
HETATM   18  H   UNL     1     -44.594  55.452 -56.398  1.00  0.00     0.163 HD
BRANCH  16  19
HETATM   19  C   UNL     1     -44.251  56.350 -58.789  1.00  0.00     0.032 A 
HETATM   20  C   UNL     1     -44.010  55.327 -59.714  1.00  0.00     0.017 A 
HETATM   21  C   UNL     1     -44.886  55.132 -60.785  1.00  0.00     0.001 A 
HETATM   22  C   UNL     1     -46.009  55.946 -60.931  1.00  0.00     0.000 A 
HETATM   23  C   UNL     1     -46.265  56.956 -60.006  1.00  0.00     0.001 A 
HETATM   24  C   UNL     1     -45.390  57.157 -58.938  1.00  0.00     0.017 A 
ENDBRANCH  16  19
ENDBRANCH   1  15
BRANCH   1  25
HETATM   25  C   UNL     1     -42.152  55.095 -54.855  1.00  0.00    -0.035 A 
HETATM   26  C   UNL     1     -40.790  55.293 -55.146  1.00  0.00     0.009 A 
HETATM   27  C   UNL     1     -39.858  54.272 -54.954  1.00  0.00     0.001 A 
HETATM   28  C   UNL     1     -40.274  53.036 -54.467  1.00  0.00     0.000 A 
HETATM   29  C   UNL     1     -41.621  52.820 -54.183  1.00  0.00     0.001 A 
HETATM   30  C   UNL     1     -42.555  53.839 -54.382  1.00  0.00     0.009 A 
ENDBRANCH   1  25
TORSDOF 7
ENDMDL
MODEL 8
REMARK VINA RESULT:      -7.9      2.671      7.817
REMARK  7 active torsions:
REMARK  status: ('A' for Active; 'I' for Inactive)
REMARK    1  A    between atoms: O_2  and  C_3 
REMARK    2  A    between atoms: C_6  and  N_7 
REMARK       I    between atoms: N_7  and  C_8 
REMARK    3  A    between atoms: C_8  and  C_9 
REMARK    4  A    between atoms: C_9  and  C_10 
REMARK    5  A    between atoms: C_10  and  N_11 
REMARK    6  A    between atoms: C_10  and  C_20 
REMARK       I    between atoms: N_11  and  C_12 
REMARK    7  A    between atoms: C_12  and  C_13 
ROOT
HETATM    1  C   UNL     1     -42.188  56.894 -55.213  1.00  0.00     0.126 C 
ENDROOT
BRANCH   1   2
HETATM    2  C   UNL     1     -41.437  55.551 -55.119  1.00  0.00     0.133 C 
BRANCH   2   3
HETATM    3  C   UNL     1     -42.396  54.394 -54.981  1.00  0.00     0.224 C 
HETATM    4  N   UNL     1     -42.638  53.776 -53.792  1.00  0.00    -0.326 N 
HETATM    5  H   UNL     1     -43.333  53.049 -53.930  1.00  0.00     0.169 HD
HETATM    6  O   UNL     1     -42.971  53.917 -55.968  1.00  0.00    -0.273 OA
BRANCH   4   7
HETATM    7  C   UNL     1     -42.216  53.964 -52.465  1.00  0.00     0.052 A 
HETATM    8  C   UNL     1     -40.952  53.734 -51.935  1.00  0.00     0.149 A 
HETATM    9  N   UNL     1     -40.598  53.993 -50.648  1.00  0.00    -0.235 NA
HETATM   10  C   UNL     1     -41.552  54.498 -49.842  1.00  0.00     0.163 A 
HETATM   11  C   UNL     1     -42.855  54.709 -50.246  1.00  0.00     0.060 A 
HETATM   12  C   UNL     1     -43.185  54.439 -51.573  1.00  0.00     0.035 A 
BRANCH  10  13
HETATM   13  O   UNL     1     -41.254  54.819 -48.533  1.00  0.00    -0.339 OA
HETATM   14  C   UNL     1     -40.260  53.968 -47.973  1.00  0.00     0.211 C 
ENDBRANCH  10  13
ENDBRANCH   4   7
ENDBRANCH   2   3
ENDBRANCH   1   2
BRANCH   1  15
HETATM   15  N   UNL     1     -43.299  56.930 -56.172  1.00  0.00    -0.348 N 
HETATM   16  C   UNL     1     -43.222  57.324 -57.490  1.00  0.00     0.252 C 
HETATM   17  O   UNL     1     -42.189  57.682 -58.043  1.00  0.00    -0.268 OA
HETATM   18  H   UNL     1     -44.135  56.452 -55.870  1.00  0.00     0.163 HD
BRANCH  16  19
HETATM   19  C   UNL     1     -44.487  57.296 -58.280  1.00  0.00     0.032 A 
HETATM   20  C   UNL     1     -44.610  56.581 -59.478  1.00  0.00     0.017 A 
HETATM   21  C   UNL     1     -45.832  56.559 -60.156  1.00  0.00     0.001 A 
HETATM   22  C   UNL     1     -46.936  57.237 -59.638  1.00  0.00     0.000 A 
HETATM   23  C   UNL     1     -46.825  57.937 -58.438  1.00  0.00     0.001 A 
HETATM   24  C   UNL     1     -45.605  57.965 -57.760  1.00  0.00     0.017 A 
ENDBRANCH  16  19
ENDBRANCH   1  15
BRANCH   1  25
HETATM   25  C   UNL     1     -42.590  57.415 -53.840  1.00  0.00    -0.035 A 
HETATM   26  C   UNL     1     -41.591  57.652 -52.879  1.00  0.00     0.009 A 
HETATM   27  C   UNL     1     -41.916  58.109 -51.601  1.00  0.00     0.001 A 
HETATM   28  C   UNL     1     -43.247  58.339 -51.264  1.00  0.00     0.000 A 
HETATM   29  C   UNL     1     -44.250  58.100 -52.201  1.00  0.00     0.001 A 
HETATM   30  C   UNL     1     -43.925  57.635 -53.478  1.00  0.00     0.009 A 
ENDBRANCH   1  25
TORSDOF 7
ENDMDL
MODEL 9
REMARK VINA RESULT:      -7.8     14.710     17.071
REMARK  7 active torsions:
REMARK  status: ('A' for Active; 'I' for Inactive)
REMARK    1  A    between atoms: O_2  and  C_3 
REMARK    2  A    between atoms: C_6  and  N_7 
REMARK       I    between atoms: N_7  and  C_8 
REMARK    3  A    between atoms: C_8  and  C_9 
REMARK    4  A    between atoms: C_9  and  C_10 
REMARK    5  A    between atoms: C_10  and  N_11 
REMARK    6  A    between atoms: C_10  and  C_20 
REMARK       I    between atoms: N_11  and  C_12 
REMARK    7  A    between atoms: C_12  and  C_13 
ROOT
HETATM    1  C   UNL     1     -34.063  40.930 -55.075  1.00  0.00     0.126 C 
ENDROOT
BRANCH   1   2
HETATM    2  C   UNL     1     -34.809  42.243 -55.384  1.00  0.00     0.133 C 
BRANCH   2   3
HETATM    3  C   UNL     1     -36.233  42.196 -54.886  1.00  0.00     0.224 C 
HETATM    4  N   UNL     1     -37.288  41.903 -55.696  1.00  0.00    -0.326 N 
HETATM    5  H   UNL     1     -38.140  41.901 -55.146  1.00  0.00     0.169 HD
HETATM    6  O   UNL     1     -36.512  42.478 -53.714  1.00  0.00    -0.273 OA
BRANCH   4   7
HETATM    7  C   UNL     1     -37.439  41.543 -57.047  1.00  0.00     0.052 A 
HETATM    8  C   UNL     1     -36.966  42.221 -58.164  1.00  0.00     0.149 A 
HETATM    9  N   UNL     1     -37.102  41.783 -59.445  1.00  0.00    -0.235 NA
HETATM   10  C   UNL     1     -37.750  40.616 -59.626  1.00  0.00     0.163 A 
HETATM   11  C   UNL     1     -38.314  39.891 -58.594  1.00  0.00     0.060 A 
HETATM   12  C   UNL     1     -38.152  40.363 -57.293  1.00  0.00     0.035 A 
BRANCH  10  13
HETATM   13  O   UNL     1     -37.894  40.093 -60.894  1.00  0.00    -0.339 OA
HETATM   14  C   UNL     1     -38.267  38.719 -60.881  1.00  0.00     0.211 C 
ENDBRANCH  10  13
ENDBRANCH   4   7
ENDBRANCH   2   3
ENDBRANCH   1   2
BRANCH   1  15
HETATM   15  N   UNL     1     -33.941  40.593 -53.651  1.00  0.00    -0.348 N 
HETATM   16  C   UNL     1     -32.771  40.314 -52.980  1.00  0.00     0.252 C 
HETATM   17  O   UNL     1     -31.660  40.331 -53.496  1.00  0.00    -0.268 OA
HETATM   18  H   UNL     1     -34.771  40.765 -53.103  1.00  0.00     0.163 HD
BRANCH  16  19
HETATM   19  C   UNL     1     -32.884  39.981 -51.530  1.00  0.00     0.032 A 
HETATM   20  C   UNL     1     -34.092  39.585 -50.942  1.00  0.00     0.017 A 
HETATM   21  C   UNL     1     -34.130  39.248 -49.586  1.00  0.00     0.001 A 
HETATM   22  C   UNL     1     -32.967  39.294 -48.817  1.00  0.00     0.000 A 
HETATM   23  C   UNL     1     -31.759  39.672 -49.400  1.00  0.00     0.001 A 
HETATM   24  C   UNL     1     -31.717  40.012 -50.752  1.00  0.00     0.017 A 
ENDBRANCH  16  19
ENDBRANCH   1  15
BRANCH   1  25
HETATM   25  C   UNL     1     -34.597  39.767 -55.902  1.00  0.00    -0.035 A 
HETATM   26  C   UNL     1     -34.354  39.745 -57.287  1.00  0.00     0.009 A 
HETATM   27  C   UNL     1     -34.842  38.710 -58.086  1.00  0.00     0.001 A 
HETATM   28  C   UNL     1     -35.581  37.679 -57.512  1.00  0.00     0.000 A 
HETATM   29  C   UNL     1     -35.839  37.691 -56.143  1.00  0.00     0.001 A 
HETATM   30  C   UNL     1     -35.357  38.731 -55.344  1.00  0.00     0.009 A 
ENDBRANCH   1  25
TORSDOF 7
ENDMDL
MODEL 10
REMARK VINA RESULT:      -7.8      1.905      2.363
REMARK  7 active torsions:
REMARK  status: ('A' for Active; 'I' for Inactive)
REMARK    1  A    between atoms: O_2  and  C_3 
REMARK    2  A    between atoms: C_6  and  N_7 
REMARK       I    between atoms: N_7  and  C_8 
REMARK    3  A    between atoms: C_8  and  C_9 
REMARK    4  A    between atoms: C_9  and  C_10 
REMARK    5  A    between atoms: C_10  and  N_11 
REMARK    6  A    between atoms: C_10  and  C_20 
REMARK       I    between atoms: N_11  and  C_12 
REMARK    7  A    between atoms: C_12  and  C_13 
ROOT
HETATM    1  C   UNL     1     -43.124  56.293 -53.681  1.00  0.00     0.126 C 
ENDROOT
BRANCH   1   2
HETATM    2  C   UNL     1     -43.764  56.674 -55.030  1.00  0.00     0.133 C 
BRANCH   2   3
HETATM    3  C   UNL     1     -43.011  56.065 -56.187  1.00  0.00     0.224 C 
HETATM    4  N   UNL     1     -42.401  56.815 -57.146  1.00  0.00    -0.326 N 
HETATM    5  H   UNL     1     -41.935  56.200 -57.804  1.00  0.00     0.169 HD
HETATM    6  O   UNL     1     -42.959  54.838 -56.344  1.00  0.00    -0.273 OA
BRANCH   4   7
HETATM    7  C   UNL     1     -42.218  58.190 -57.371  1.00  0.00     0.052 A 
HETATM    8  C   UNL     1     -42.032  59.189 -56.423  1.00  0.00     0.149 A 
HETATM    9  N   UNL     1     -41.804  60.497 -56.717  1.00  0.00    -0.235 NA
HETATM   10  C   UNL     1     -41.767  60.833 -58.021  1.00  0.00     0.163 A 
HETATM   11  C   UNL     1     -41.998  59.934 -59.044  1.00  0.00     0.060 A 
HETATM   12  C   UNL     1     -42.223  58.600 -58.710  1.00  0.00     0.035 A 
BRANCH  10  13
HETATM   13  O   UNL     1     -41.504  62.135 -58.394  1.00  0.00    -0.339 OA
HETATM   14  C   UNL     1     -40.135  62.344 -58.722  1.00  0.00     0.211 C 
ENDBRANCH  10  13
ENDBRANCH   4   7
ENDBRANCH   2   3
ENDBRANCH   1   2
BRANCH   1  15
HETATM   15  N   UNL     1     -42.246  55.116 -53.708  1.00  0.00    -0.348 N 
HETATM   16  C   UNL     1     -42.205  54.111 -52.767  1.00  0.00     0.252 C 
HETATM   17  O   UNL     1     -42.927  54.064 -51.777  1.00  0.00    -0.268 OA
HETATM   18  H   UNL     1     -41.775  54.961 -54.587  1.00  0.00     0.163 HD
BRANCH  16  19
HETATM   19  C   UNL     1     -41.219  53.014 -52.990  1.00  0.00     0.032 A 
HETATM   20  C   UNL     1     -41.112  52.336 -54.211  1.00  0.00     0.017 A 
HETATM   21  C   UNL     1     -40.143  51.342 -54.375  1.00  0.00     0.001 A 
HETATM   22  C   UNL     1     -39.272  51.030 -53.330  1.00  0.00     0.000 A 
HETATM   23  C   UNL     1     -39.362  51.713 -52.119  1.00  0.00     0.001 A 
HETATM   24  C   UNL     1     -40.331  52.703 -51.950  1.00  0.00     0.017 A 
ENDBRANCH  16  19
ENDBRANCH   1  15
BRANCH   1  25
HETATM   25  C   UNL     1     -42.468  57.490 -53.006  1.00  0.00    -0.035 A 
HETATM   26  C   UNL     1     -41.121  57.779 -53.287  1.00  0.00     0.009 A 
HETATM   27  C   UNL     1     -40.473  58.854 -52.676  1.00  0.00     0.001 A 
HETATM   28  C   UNL     1     -41.164  59.658 -51.774  1.00  0.00     0.000 A 
HETATM   29  C   UNL     1     -42.497  59.379 -51.477  1.00  0.00     0.001 A 
HETATM   30  C   UNL     1     -43.143  58.299 -52.083  1.00  0.00     0.009 A 
ENDBRANCH   1  25
TORSDOF 7
ENDMDL
