MODEL 1
REMARK VINA RESULT:      -8.7      0.000      0.000
REMARK  3 active torsions:
REMARK  status: ('A' for Active; 'I' for Inactive)
REMARK    1  A    between atoms: N_7  and  C_9 
REMARK    2  A    between atoms: C_9  and  C_10 
REMARK    3  A    between atoms: C_13  and  C_14 
ROOT
HETATM    1  C   UNL     1     -45.409  60.674 -62.140  1.00  0.00     0.269 C 
HETATM    2  N   UNL     1     -44.350  59.880 -61.401  1.00  0.00    -0.074 N 
HETATM    3  H   UNL     1     -44.037  59.171 -62.080  1.00  0.00     0.279 HD
HETATM    4  C   UNL     1     -44.914  59.202 -60.176  1.00  0.00     0.245 C 
HETATM    5  C   UNL     1     -43.861  58.281 -59.484  1.00  0.00     0.008 C 
HETATM    6  C   UNL     1     -44.501  57.775 -58.153  1.00  0.00     0.246 C 
HETATM    7  N   UNL     1     -43.790  56.605 -57.509  1.00  0.00    -0.063 N 
HETATM    8  H   UNL     1     -44.485  56.228 -56.839  1.00  0.00     0.280 HD
HETATM    9  C   UNL     1     -43.510  55.461 -58.444  1.00  0.00     0.235 C 
HETATM   10  C   UNL     1     -42.768  55.960 -59.672  1.00  0.00     0.029 C 
HETATM   11  C   UNL     1     -43.546  57.063 -60.389  1.00  0.00     0.014 C 
HETATM   12  C   UNL     1     -42.593  59.132 -59.214  1.00  0.00     0.014 C 
HETATM   13  C   UNL     1     -42.082  59.900 -60.438  1.00  0.00     0.029 C 
HETATM   14  C   UNL     1     -43.160  60.753 -61.084  1.00  0.00     0.234 C 
ENDROOT
BRANCH   7  15
HETATM   15  C   UNL     1     -42.631  56.925 -56.548  1.00  0.00     0.323 C 
BRANCH  15  16
HETATM   16  C   UNL     1     -42.477  55.910 -55.477  1.00  0.00     0.199 A 
HETATM   17  O   UNL     1     -43.486  55.785 -54.582  1.00  0.00    -0.194 OA
HETATM   18  N   UNL     1     -43.112  54.766 -53.717  1.00  0.00    -0.106 NA
HETATM   19  C   UNL     1     -41.899  54.386 -54.153  1.00  0.00     0.189 A 
HETATM   20  N   UNL     1     -41.496  55.052 -55.302  1.00  0.00    -0.202 NA
BRANCH  19  21
HETATM   21  C   UNL     1     -41.076  53.369 -53.507  1.00  0.00     0.016 A 
HETATM   22  C   UNL     1     -40.690  52.221 -54.214  1.00  0.00     0.039 A 
HETATM   23  C   UNL     1     -39.890  51.253 -53.604  1.00  0.00     0.035 A 
HETATM   24 CL   UNL     1     -39.434  49.853 -54.494  1.00  0.00    -0.084 Cl
HETATM   25  C   UNL     1     -39.463  51.412 -52.289  1.00  0.00     0.024 A 
HETATM   26  C   UNL     1     -39.839  52.549 -51.577  1.00  0.00     0.003 A 
HETATM   27  C   UNL     1     -40.641  53.522 -52.181  1.00  0.00     0.015 A 
ENDBRANCH  19  21
ENDBRANCH  15  16
ENDBRANCH   7  15
TORSDOF 3
ENDMDL
MODEL 2
REMARK VINA RESULT:      -8.2      1.539      2.201
REMARK  3 active torsions:
REMARK  status: ('A' for Active; 'I' for Inactive)
REMARK    1  A    between atoms: N_7  and  C_9 
REMARK    2  A    between atoms: C_9  and  C_10 
REMARK    3  A    between atoms: C_13  and  C_14 
ROOT
HETATM    1  C   UNL     1     -47.952  56.739 -61.879  1.00  0.00     0.269 C 
HETATM    2  N   UNL     1     -46.875  57.373 -61.021  1.00  0.00    -0.074 N 
HETATM    3  H   UNL     1     -46.323  57.943 -61.678  1.00  0.00     0.279 HD
HETATM    4  C   UNL     1     -45.990  56.334 -60.377  1.00  0.00     0.245 C 
HETATM    5  C   UNL     1     -44.804  56.982 -59.597  1.00  0.00     0.008 C 
HETATM    6  C   UNL     1     -44.067  55.830 -58.845  1.00  0.00     0.246 C 
HETATM    7  N   UNL     1     -42.696  56.189 -58.316  1.00  0.00    -0.063 N 
HETATM    8  H   UNL     1     -42.254  55.271 -58.125  1.00  0.00     0.280 HD
HETATM    9  C   UNL     1     -41.793  56.837 -59.329  1.00  0.00     0.235 C 
HETATM   10  C   UNL     1     -42.485  58.038 -59.952  1.00  0.00     0.029 C 
HETATM   11  C   UNL     1     -43.819  57.649 -60.590  1.00  0.00     0.014 C 
HETATM   12  C   UNL     1     -45.398  58.016 -58.605  1.00  0.00     0.014 C 
HETATM   13  C   UNL     1     -46.375  59.007 -59.246  1.00  0.00     0.029 C 
HETATM   14  C   UNL     1     -47.489  58.316 -60.014  1.00  0.00     0.234 C 
ENDROOT
BRANCH   7  15
HETATM   15  C   UNL     1     -42.622  56.824 -56.917  1.00  0.00     0.323 C 
BRANCH  15  16
HETATM   16  C   UNL     1     -42.511  55.816 -55.834  1.00  0.00     0.199 A 
HETATM   17  O   UNL     1     -43.611  55.586 -55.076  1.00  0.00    -0.194 OA
HETATM   18  N   UNL     1     -43.255  54.597 -54.170  1.00  0.00    -0.106 NA
HETATM   19  C   UNL     1     -41.965  54.338 -54.444  1.00  0.00     0.189 A 
HETATM   20  N   UNL     1     -41.483  55.054 -55.532  1.00  0.00    -0.202 NA
BRANCH  19  21
HETATM   21  C   UNL     1     -41.140  53.397 -53.696  1.00  0.00     0.016 A 
HETATM   22  C   UNL     1     -40.690  52.216 -54.304  1.00  0.00     0.039 A 
HETATM   23  C   UNL     1     -39.887  51.321 -53.596  1.00  0.00     0.035 A 
HETATM   24 CL   UNL     1     -39.352  49.878 -54.365  1.00  0.00    -0.084 Cl
HETATM   25  C   UNL     1     -39.519  51.585 -52.280  1.00  0.00     0.024 A 
HETATM   26  C   UNL     1     -39.958  52.756 -51.666  1.00  0.00     0.003 A 
HETATM   27  C   UNL     1     -40.764  53.658 -52.368  1.00  0.00     0.015 A 
ENDBRANCH  19  21
ENDBRANCH  15  16
ENDBRANCH   7  15
TORSDOF 3
ENDMDL
MODEL 3
REMARK VINA RESULT:      -8.1      5.448      6.699
REMARK  3 active torsions:
REMARK  status: ('A' for Active; 'I' for Inactive)
REMARK    1  A    between atoms: N_7  and  C_9 
REMARK    2  A    between atoms: C_9  and  C_10 
REMARK    3  A    between atoms: C_13  and  C_14 
ROOT
HETATM    1  C   UNL     1     -44.852  63.630 -51.804  1.00  0.00     0.269 C 
HETATM    2  N   UNL     1     -44.417  62.294 -51.233  1.00  0.00    -0.074 N 
HETATM    3  H   UNL     1     -43.800  62.538 -50.444  1.00  0.00     0.279 HD
HETATM    4  C   UNL     1     -43.652  61.477 -52.247  1.00  0.00     0.245 C 
HETATM    5  C   UNL     1     -43.091  60.159 -51.627  1.00  0.00     0.008 C 
HETATM    6  C   UNL     1     -42.473  59.330 -52.797  1.00  0.00     0.246 C 
HETATM    7  N   UNL     1     -41.576  58.192 -52.366  1.00  0.00    -0.063 N 
HETATM    8  H   UNL     1     -41.043  57.956 -53.223  1.00  0.00     0.280 HD
HETATM    9  C   UNL     1     -40.524  58.579 -51.363  1.00  0.00     0.235 C 
HETATM   10  C   UNL     1     -41.167  59.265 -50.171  1.00  0.00     0.029 C 
HETATM   11  C   UNL     1     -41.980  60.488 -50.598  1.00  0.00     0.014 C 
HETATM   12  C   UNL     1     -44.274  59.406 -50.964  1.00  0.00     0.014 C 
HETATM   13  C   UNL     1     -45.110  60.269 -50.013  1.00  0.00     0.029 C 
HETATM   14  C   UNL     1     -45.601  61.550 -50.664  1.00  0.00     0.234 C 
ENDROOT
BRANCH   7  15
HETATM   15  C   UNL     1     -42.244  56.835 -52.080  1.00  0.00     0.323 C 
BRANCH  15  16
HETATM   16  C   UNL     1     -41.546  55.702 -52.735  1.00  0.00     0.199 A 
HETATM   17  O   UNL     1     -40.959  55.936 -53.934  1.00  0.00    -0.194 OA
HETATM   18  N   UNL     1     -40.363  54.741 -54.311  1.00  0.00    -0.106 NA
HETATM   19  C   UNL     1     -40.665  53.887 -53.319  1.00  0.00     0.189 A 
HETATM   20  N   UNL     1     -41.364  54.483 -52.278  1.00  0.00    -0.202 NA
BRANCH  19  21
HETATM   21  C   UNL     1     -40.296  52.476 -53.309  1.00  0.00     0.016 A 
HETATM   22  C   UNL     1     -39.956  51.844 -52.105  1.00  0.00     0.039 A 
HETATM   23  C   UNL     1     -39.617  50.490 -52.090  1.00  0.00     0.035 A 
HETATM   24 CL   UNL     1     -39.200  49.742 -50.598  1.00  0.00    -0.084 Cl
HETATM   25  C   UNL     1     -39.614  49.747 -53.266  1.00  0.00     0.024 A 
HETATM   26  C   UNL     1     -39.953  50.363 -54.470  1.00  0.00     0.003 A 
HETATM   27  C   UNL     1     -40.292  51.719 -54.493  1.00  0.00     0.015 A 
ENDBRANCH  19  21
ENDBRANCH  15  16
ENDBRANCH   7  15
TORSDOF 3
ENDMDL
MODEL 4
REMARK VINA RESULT:      -8.0      4.739      5.727
REMARK  3 active torsions:
REMARK  status: ('A' for Active; 'I' for Inactive)
REMARK    1  A    between atoms: N_7  and  C_9 
REMARK    2  A    between atoms: C_9  and  C_10 
REMARK    3  A    between atoms: C_13  and  C_14 
ROOT
HETATM    1  C   UNL     1     -45.205  62.382 -50.718  1.00  0.00     0.269 C 
HETATM    2  N   UNL     1     -44.560  61.531 -51.794  1.00  0.00    -0.074 N 
HETATM    3  H   UNL     1     -45.316  61.350 -52.470  1.00  0.00     0.279 HD
HETATM    4  C   UNL     1     -44.046  60.224 -51.240  1.00  0.00     0.245 C 
HETATM    5  C   UNL     1     -43.498  59.291 -52.364  1.00  0.00     0.008 C 
HETATM    6  C   UNL     1     -42.850  58.058 -51.658  1.00  0.00     0.246 C 
HETATM    7  N   UNL     1     -42.571  56.879 -52.564  1.00  0.00    -0.063 N 
HETATM    8  H   UNL     1     -42.432  56.088 -51.909  1.00  0.00     0.280 HD
HETATM    9  C   UNL     1     -43.740  56.463 -53.414  1.00  0.00     0.235 C 
HETATM   10  C   UNL     1     -44.270  57.655 -54.193  1.00  0.00     0.029 C 
HETATM   11  C   UNL     1     -44.662  58.804 -53.264  1.00  0.00     0.014 C 
HETATM   12  C   UNL     1     -42.449  60.094 -53.176  1.00  0.00     0.014 C 
HETATM   13  C   UNL     1     -42.941  61.465 -53.651  1.00  0.00     0.029 C 
HETATM   14  C   UNL     1     -43.490  62.314 -52.517  1.00  0.00     0.234 C 
ENDROOT
BRANCH   7  15
HETATM   15  C   UNL     1     -41.222  56.860 -53.305  1.00  0.00     0.323 C 
BRANCH  15  16
HETATM   16  C   UNL     1     -40.837  55.502 -53.761  1.00  0.00     0.199 A 
HETATM   17  O   UNL     1     -40.653  55.317 -55.091  1.00  0.00    -0.194 OA
HETATM   18  N   UNL     1     -40.277  53.990 -55.247  1.00  0.00    -0.106 NA
HETATM   19  C   UNL     1     -40.294  53.488 -54.000  1.00  0.00     0.189 A 
HETATM   20  N   UNL     1     -40.588  54.437 -53.032  1.00  0.00    -0.202 NA
BRANCH  19  21
HETATM   21  C   UNL     1     -40.023  52.092 -53.674  1.00  0.00     0.016 A 
HETATM   22  C   UNL     1     -39.916  51.689 -52.335  1.00  0.00     0.039 A 
HETATM   23  C   UNL     1     -39.671  50.352 -52.018  1.00  0.00     0.035 A 
HETATM   24 CL   UNL     1     -39.541  49.886 -50.367  1.00  0.00    -0.084 Cl
HETATM   25  C   UNL     1     -39.532  49.399 -53.023  1.00  0.00     0.024 A 
HETATM   26  C   UNL     1     -39.638  49.787 -54.358  1.00  0.00     0.003 A 
HETATM   27  C   UNL     1     -39.882  51.125 -54.682  1.00  0.00     0.015 A 
ENDBRANCH  19  21
ENDBRANCH  15  16
ENDBRANCH   7  15
TORSDOF 3
ENDMDL
MODEL 5
REMARK VINA RESULT:      -7.9      4.877      6.642
REMARK  3 active torsions:
REMARK  status: ('A' for Active; 'I' for Inactive)
REMARK    1  A    between atoms: N_7  and  C_9 
REMARK    2  A    between atoms: C_9  and  C_10 
REMARK    3  A    between atoms: C_13  and  C_14 
ROOT
HETATM    1  C   UNL     1     -44.693  64.044 -50.339  1.00  0.00     0.269 C 
HETATM    2  N   UNL     1     -44.400  62.557 -50.367  1.00  0.00    -0.074 N 
HETATM    3  H   UNL     1     -43.753  62.405 -49.579  1.00  0.00     0.279 HD
HETATM    4  C   UNL     1     -43.738  62.142 -51.659  1.00  0.00     0.245 C 
HETATM    5  C   UNL     1     -43.317  60.639 -51.642  1.00  0.00     0.008 C 
HETATM    6  C   UNL     1     -42.804  60.291 -53.075  1.00  0.00     0.246 C 
HETATM    7  N   UNL     1     -42.032  58.995 -53.177  1.00  0.00    -0.063 N 
HETATM    8  H   UNL     1     -41.536  59.071 -54.084  1.00  0.00     0.280 HD
HETATM    9  C   UNL     1     -40.935  58.847 -52.159  1.00  0.00     0.235 C 
HETATM   10  C   UNL     1     -41.488  59.059 -50.761  1.00  0.00     0.029 C 
HETATM   11  C   UNL     1     -42.167  60.423 -50.626  1.00  0.00     0.014 C 
HETATM   12  C   UNL     1     -44.569  59.802 -51.270  1.00  0.00     0.014 C 
HETATM   13  C   UNL     1     -45.297  60.289 -50.013  1.00  0.00     0.029 C 
HETATM   14  C   UNL     1     -45.652  61.764 -50.078  1.00  0.00     0.234 C 
ENDROOT
BRANCH   7  15
HETATM   15  C   UNL     1     -42.841  57.708 -53.416  1.00  0.00     0.323 C 
BRANCH  15  16
HETATM   16  C   UNL     1     -41.979  56.516 -53.610  1.00  0.00     0.199 A 
HETATM   17  O   UNL     1     -41.212  56.472 -54.727  1.00  0.00    -0.194 OA
HETATM   18  N   UNL     1     -40.493  55.287 -54.655  1.00  0.00    -0.106 NA
HETATM   19  C   UNL     1     -40.910  54.710 -53.515  1.00  0.00     0.189 A 
HETATM   20  N   UNL     1     -41.808  55.493 -52.803  1.00  0.00    -0.202 NA
BRANCH  19  21
HETATM   21  C   UNL     1     -40.469  53.401 -53.049  1.00  0.00     0.016 A 
HETATM   22  C   UNL     1     -40.233  52.368 -53.968  1.00  0.00     0.039 A 
HETATM   23  C   UNL     1     -39.796  51.118 -53.526  1.00  0.00     0.035 A 
HETATM   24 CL   UNL     1     -39.518  49.868 -54.675  1.00  0.00    -0.084 Cl
HETATM   25  C   UNL     1     -39.585  50.878 -52.172  1.00  0.00     0.024 A 
HETATM   26  C   UNL     1     -39.814  51.897 -51.249  1.00  0.00     0.003 A 
HETATM   27  C   UNL     1     -40.253  53.151 -51.683  1.00  0.00     0.015 A 
ENDBRANCH  19  21
ENDBRANCH  15  16
ENDBRANCH   7  15
TORSDOF 3
ENDMDL
MODEL 6
REMARK VINA RESULT:      -7.8      4.912      6.432
REMARK  3 active torsions:
REMARK  status: ('A' for Active; 'I' for Inactive)
REMARK    1  A    between atoms: N_7  and  C_9 
REMARK    2  A    between atoms: C_9  and  C_10 
REMARK    3  A    between atoms: C_13  and  C_14 
ROOT
HETATM    1  C   UNL     1     -46.236  62.018 -49.352  1.00  0.00     0.269 C 
HETATM    2  N   UNL     1     -45.329  61.463 -50.432  1.00  0.00    -0.074 N 
HETATM    3  H   UNL     1     -45.812  61.684 -51.315  1.00  0.00     0.279 HD
HETATM    4  C   UNL     1     -45.159  59.968 -50.303  1.00  0.00     0.245 C 
HETATM    5  C   UNL     1     -44.332  59.373 -51.486  1.00  0.00     0.008 C 
HETATM    6  C   UNL     1     -44.083  57.867 -51.157  1.00  0.00     0.246 C 
HETATM    7  N   UNL     1     -43.606  57.031 -52.324  1.00  0.00    -0.063 N 
HETATM    8  H   UNL     1     -43.775  56.055 -52.017  1.00  0.00     0.280 HD
HETATM    9  C   UNL     1     -44.433  57.182 -53.571  1.00  0.00     0.235 C 
HETATM   10  C   UNL     1     -44.549  58.650 -53.945  1.00  0.00     0.029 C 
HETATM   11  C   UNL     1     -45.142  59.475 -52.803  1.00  0.00     0.014 C 
HETATM   12  C   UNL     1     -42.999  60.160 -51.575  1.00  0.00     0.014 C 
HETATM   13  C   UNL     1     -43.172  61.682 -51.603  1.00  0.00     0.029 C 
HETATM   14  C   UNL     1     -44.010  62.197 -50.445  1.00  0.00     0.234 C 
ENDROOT
BRANCH   7  15
HETATM   15  C   UNL     1     -42.090  56.976 -52.581  1.00  0.00     0.323 C 
BRANCH  15  16
HETATM   16  C   UNL     1     -41.450  55.776 -51.988  1.00  0.00     0.199 A 
HETATM   17  O   UNL     1     -40.840  55.921 -50.786  1.00  0.00    -0.194 OA
HETATM   18  N   UNL     1     -40.355  54.666 -50.447  1.00  0.00    -0.106 NA
HETATM   19  C   UNL     1     -40.692  53.883 -51.486  1.00  0.00     0.189 A 
HETATM   20  N   UNL     1     -41.437  54.546 -52.451  1.00  0.00    -0.202 NA
BRANCH  19  21
HETATM   21  C   UNL     1     -40.332  52.474 -51.603  1.00  0.00     0.016 A 
HETATM   22  C   UNL     1     -40.035  51.925 -52.859  1.00  0.00     0.039 A 
HETATM   23  C   UNL     1     -39.675  50.581 -52.973  1.00  0.00     0.035 A 
HETATM   24 CL   UNL     1     -39.320  49.933 -54.527  1.00  0.00    -0.084 Cl
HETATM   25  C   UNL     1     -39.602  49.768 -51.846  1.00  0.00     0.024 A 
HETATM   26  C   UNL     1     -39.893  50.303 -50.593  1.00  0.00     0.003 A 
HETATM   27  C   UNL     1     -40.256  51.647 -50.470  1.00  0.00     0.015 A 
ENDBRANCH  19  21
ENDBRANCH  15  16
ENDBRANCH   7  15
TORSDOF 3
ENDMDL
MODEL 7
REMARK VINA RESULT:      -7.7      4.274      6.083
REMARK  3 active torsions:
REMARK  status: ('A' for Active; 'I' for Inactive)
REMARK    1  A    between atoms: N_7  and  C_9 
REMARK    2  A    between atoms: C_9  and  C_10 
REMARK    3  A    between atoms: C_13  and  C_14 
ROOT
HETATM    1  C   UNL     1     -45.763  61.116 -48.732  1.00  0.00     0.269 C 
HETATM    2  N   UNL     1     -45.031  61.004 -50.054  1.00  0.00    -0.074 N 
HETATM    3  H   UNL     1     -45.437  61.748 -50.640  1.00  0.00     0.279 HD
HETATM    4  C   UNL     1     -45.256  59.661 -50.706  1.00  0.00     0.245 C 
HETATM    5  C   UNL     1     -44.611  59.587 -52.125  1.00  0.00     0.008 C 
HETATM    6  C   UNL     1     -44.763  58.114 -52.620  1.00  0.00     0.246 C 
HETATM    7  N   UNL     1     -44.519  57.911 -54.099  1.00  0.00    -0.063 N 
HETATM    8  H   UNL     1     -44.938  56.984 -54.296  1.00  0.00     0.280 HD
HETATM    9  C   UNL     1     -45.275  58.861 -54.986  1.00  0.00     0.235 C 
HETATM   10  C   UNL     1     -45.004  60.295 -54.567  1.00  0.00     0.029 C 
HETATM   11  C   UNL     1     -45.363  60.529 -53.099  1.00  0.00     0.014 C 
HETATM   12  C   UNL     1     -43.118  59.986 -51.988  1.00  0.00     0.014 C 
HETATM   13  C   UNL     1     -42.889  61.301 -51.236  1.00  0.00     0.029 C 
HETATM   14  C   UNL     1     -43.565  61.323 -49.877  1.00  0.00     0.234 C 
ENDROOT
BRANCH   7  15
HETATM   15  C   UNL     1     -43.070  57.656 -54.547  1.00  0.00     0.323 C 
BRANCH  15  16
HETATM   16  C   UNL     1     -42.681  56.228 -54.452  1.00  0.00     0.199 A 
HETATM   17  O   UNL     1     -43.346  55.344 -55.236  1.00  0.00    -0.194 OA
HETATM   18  N   UNL     1     -42.782  54.102 -54.980  1.00  0.00    -0.106 NA
HETATM   19  C   UNL     1     -41.846  54.344 -54.046  1.00  0.00     0.189 A 
HETATM   20  N   UNL     1     -41.720  55.690 -53.735  1.00  0.00    -0.202 NA
BRANCH  19  21
HETATM   21  C   UNL     1     -41.027  53.313 -53.419  1.00  0.00     0.016 A 
HETATM   22  C   UNL     1     -40.640  52.180 -54.149  1.00  0.00     0.039 A 
HETATM   23  C   UNL     1     -39.843  51.198 -53.556  1.00  0.00     0.035 A 
HETATM   24 CL   UNL     1     -39.386  49.816 -54.473  1.00  0.00    -0.084 Cl
HETATM   25  C   UNL     1     -39.420  51.329 -52.237  1.00  0.00     0.024 A 
HETATM   26  C   UNL     1     -39.796  52.452 -51.502  1.00  0.00     0.003 A 
HETATM   27  C   UNL     1     -40.595  53.439 -52.088  1.00  0.00     0.015 A 
ENDBRANCH  19  21
ENDBRANCH  15  16
ENDBRANCH   7  15
TORSDOF 3
ENDMDL
MODEL 8
REMARK VINA RESULT:      -7.7      5.154      5.924
REMARK  3 active torsions:
REMARK  status: ('A' for Active; 'I' for Inactive)
REMARK    1  A    between atoms: N_7  and  C_9 
REMARK    2  A    between atoms: C_9  and  C_10 
REMARK    3  A    between atoms: C_13  and  C_14 
ROOT
HETATM    1  C   UNL     1     -45.934  63.896 -52.725  1.00  0.00     0.269 C 
HETATM    2  N   UNL     1     -45.086  62.677 -53.036  1.00  0.00    -0.074 N 
HETATM    3  H   UNL     1     -45.625  62.161 -53.747  1.00  0.00     0.279 HD
HETATM    4  C   UNL     1     -44.887  61.810 -51.816  1.00  0.00     0.245 C 
HETATM    5  C   UNL     1     -44.125  60.491 -52.158  1.00  0.00     0.008 C 
HETATM    6  C   UNL     1     -43.835  59.767 -50.806  1.00  0.00     0.246 C 
HETATM    7  N   UNL     1     -43.418  58.319 -50.936  1.00  0.00    -0.063 N 
HETATM    8  H   UNL     1     -43.554  57.933 -49.984  1.00  0.00     0.280 HD
HETATM    9  C   UNL     1     -44.321  57.492 -51.810  1.00  0.00     0.235 C 
HETATM   10  C   UNL     1     -44.481  58.152 -53.168  1.00  0.00     0.029 C 
HETATM   11  C   UNL     1     -45.015  59.579 -53.040  1.00  0.00     0.014 C 
HETATM   12  C   UNL     1     -42.811  60.879 -52.886  1.00  0.00     0.014 C 
HETATM   13  C   UNL     1     -43.008  61.841 -54.062  1.00  0.00     0.029 C 
HETATM   14  C   UNL     1     -43.781  63.090 -53.673  1.00  0.00     0.234 C 
ENDROOT
BRANCH   7  15
HETATM   15  C   UNL     1     -41.920  58.030 -51.135  1.00  0.00     0.323 C 
BRANCH  15  16
HETATM   16  C   UNL     1     -41.599  56.583 -51.062  1.00  0.00     0.199 A 
HETATM   17  O   UNL     1     -41.766  55.964 -49.868  1.00  0.00    -0.194 OA
HETATM   18  N   UNL     1     -41.429  54.633 -50.073  1.00  0.00    -0.106 NA
HETATM   19  C   UNL     1     -41.066  54.575 -51.365  1.00  0.00     0.189 A 
HETATM   20  N   UNL     1     -41.219  55.782 -52.032  1.00  0.00    -0.202 NA
BRANCH  19  21
HETATM   21  C   UNL     1     -40.569  53.372 -52.024  1.00  0.00     0.016 A 
HETATM   22  C   UNL     1     -40.137  52.278 -51.261  1.00  0.00     0.039 A 
HETATM   23  C   UNL     1     -39.675  51.119 -51.888  1.00  0.00     0.035 A 
HETATM   24 CL   UNL     1     -39.149  49.793 -50.927  1.00  0.00    -0.084 Cl
HETATM   25  C   UNL     1     -39.638  51.031 -53.276  1.00  0.00     0.024 A 
HETATM   26  C   UNL     1     -40.065  52.111 -54.046  1.00  0.00     0.003 A 
HETATM   27  C   UNL     1     -40.528  53.275 -53.425  1.00  0.00     0.015 A 
ENDBRANCH  19  21
ENDBRANCH  15  16
ENDBRANCH   7  15
TORSDOF 3
ENDMDL
MODEL 9
REMARK VINA RESULT:      -7.7      1.522      2.091
REMARK  3 active torsions:
REMARK  status: ('A' for Active; 'I' for Inactive)
REMARK    1  A    between atoms: N_7  and  C_9 
REMARK    2  A    between atoms: C_9  and  C_10 
REMARK    3  A    between atoms: C_13  and  C_14 
ROOT
HETATM    1  C   UNL     1     -41.767  62.945 -60.162  1.00  0.00     0.269 C 
HETATM    2  N   UNL     1     -42.315  61.546 -59.960  1.00  0.00    -0.074 N 
HETATM    3  H   UNL     1     -43.323  61.632 -60.158  1.00  0.00     0.279 HD
HETATM    4  C   UNL     1     -42.111  61.066 -58.543  1.00  0.00     0.245 C 
HETATM    5  C   UNL     1     -42.786  59.681 -58.296  1.00  0.00     0.008 C 
HETATM    6  C   UNL     1     -42.368  59.217 -56.865  1.00  0.00     0.246 C 
HETATM    7  N   UNL     1     -43.186  58.077 -56.300  1.00  0.00    -0.063 N 
HETATM    8  H   UNL     1     -42.981  58.102 -55.285  1.00  0.00     0.280 HD
HETATM    9  C   UNL     1     -44.673  58.280 -56.389  1.00  0.00     0.235 C 
HETATM   10  C   UNL     1     -45.071  58.599 -57.820  1.00  0.00     0.029 C 
HETATM   11  C   UNL     1     -44.328  59.826 -58.350  1.00  0.00     0.014 C 
HETATM   12  C   UNL     1     -42.269  58.701 -59.381  1.00  0.00     0.014 C 
HETATM   13  C   UNL     1     -42.385  59.235 -60.813  1.00  0.00     0.029 C 
HETATM   14  C   UNL     1     -41.736  60.598 -60.982  1.00  0.00     0.234 C 
ENDROOT
BRANCH   7  15
HETATM   15  C   UNL     1     -42.729  56.646 -56.635  1.00  0.00     0.323 C 
BRANCH  15  16
HETATM   16  C   UNL     1     -42.360  55.865 -55.429  1.00  0.00     0.199 A 
HETATM   17  O   UNL     1     -42.825  56.301 -54.233  1.00  0.00    -0.194 OA
HETATM   18  N   UNL     1     -42.368  55.394 -53.287  1.00  0.00    -0.106 NA
HETATM   19  C   UNL     1     -41.646  54.507 -53.994  1.00  0.00     0.189 A 
HETATM   20  N   UNL     1     -41.671  54.747 -55.361  1.00  0.00    -0.202 NA
BRANCH  19  21
HETATM   21  C   UNL     1     -40.912  53.392 -53.407  1.00  0.00     0.016 A 
HETATM   22  C   UNL     1     -40.589  52.272 -54.187  1.00  0.00     0.039 A 
HETATM   23  C   UNL     1     -39.873  51.210 -53.632  1.00  0.00     0.035 A 
HETATM   24 CL   UNL     1     -39.493  49.847 -54.611  1.00  0.00    -0.084 Cl
HETATM   25  C   UNL     1     -39.469  51.245 -52.301  1.00  0.00     0.024 A 
HETATM   26  C   UNL     1     -39.783  52.353 -51.516  1.00  0.00     0.003 A 
HETATM   27  C   UNL     1     -40.500  53.420 -52.064  1.00  0.00     0.015 A 
ENDBRANCH  19  21
ENDBRANCH  15  16
ENDBRANCH   7  15
TORSDOF 3
ENDMDL
MODEL 10
REMARK VINA RESULT:      -7.7      3.513      9.042
REMARK  3 active torsions:
REMARK  status: ('A' for Active; 'I' for Inactive)
REMARK    1  A    between atoms: N_7  and  C_9 
REMARK    2  A    between atoms: C_9  and  C_10 
REMARK    3  A    between atoms: C_13  and  C_14 
ROOT
HETATM    1  C   UNL     1     -41.086  55.274 -48.942  1.00  0.00     0.269 C 
HETATM    2  N   UNL     1     -41.590  54.687 -50.246  1.00  0.00    -0.074 N 
HETATM    3  H   UNL     1     -41.176  53.745 -50.285  1.00  0.00     0.279 HD
HETATM    4  C   UNL     1     -41.133  55.497 -51.436  1.00  0.00     0.245 C 
HETATM    5  C   UNL     1     -41.541  54.828 -52.786  1.00  0.00     0.008 C 
HETATM    6  C   UNL     1     -41.166  55.829 -53.924  1.00  0.00     0.246 C 
HETATM    7  N   UNL     1     -41.158  55.237 -55.316  1.00  0.00    -0.063 N 
HETATM    8  H   UNL     1     -40.623  55.925 -55.876  1.00  0.00     0.280 HD
HETATM    9  C   UNL     1     -40.373  53.960 -55.439  1.00  0.00     0.235 C 
HETATM   10  C   UNL     1     -40.849  52.953 -54.406  1.00  0.00     0.029 C 
HETATM   11  C   UNL     1     -40.746  53.513 -52.987  1.00  0.00     0.014 C 
HETATM   12  C   UNL     1     -43.069  54.567 -52.743  1.00  0.00     0.014 C 
HETATM   13  C   UNL     1     -43.543  53.834 -51.484  1.00  0.00     0.029 C 
HETATM   14  C   UNL     1     -43.090  54.517 -50.204  1.00  0.00     0.234 C 
ENDROOT
BRANCH   7  15
HETATM   15  C   UNL     1     -42.488  55.231 -56.089  1.00  0.00     0.323 C 
BRANCH  15  16
HETATM   16  C   UNL     1     -42.545  56.276 -57.141  1.00  0.00     0.199 A 
HETATM   17  O   UNL     1     -43.211  55.979 -58.284  1.00  0.00    -0.194 OA
HETATM   18  N   UNL     1     -43.141  57.115 -59.078  1.00  0.00    -0.106 NA
HETATM   19  C   UNL     1     -42.417  57.986 -58.354  1.00  0.00     0.189 A 
HETATM   20  N   UNL     1     -42.075  57.503 -57.099  1.00  0.00    -0.202 NA
BRANCH  19  21
HETATM   21  C   UNL     1     -42.028  59.313 -58.816  1.00  0.00     0.016 A 
HETATM   22  C   UNL     1     -42.176  59.660 -60.167  1.00  0.00     0.039 A 
HETATM   23  C   UNL     1     -41.819  60.935 -60.610  1.00  0.00     0.035 A 
HETATM   24 CL   UNL     1     -42.008  61.333 -62.273  1.00  0.00    -0.084 Cl
HETATM   25  C   UNL     1     -41.314  61.879 -59.722  1.00  0.00     0.024 A 
HETATM   26  C   UNL     1     -41.163  61.547 -58.377  1.00  0.00     0.003 A 
HETATM   27  C   UNL     1     -41.518  60.272 -57.925  1.00  0.00     0.015 A 
ENDBRANCH  19  21
ENDBRANCH  15  16
ENDBRANCH   7  15
TORSDOF 3
ENDMDL
