MODEL 1
REMARK VINA RESULT:      -8.0      0.000      0.000
REMARK  4 active torsions:
REMARK  status: ('A' for Active; 'I' for Inactive)
REMARK    1  A    between atoms: C_9  and  C_10 
REMARK       I    between atoms: C_10  and  N_11 
REMARK    2  A    between atoms: N_11  and  C_12 
REMARK    3  A    between atoms: C_12  and  C_13 
REMARK    4  A    between atoms: C_14  and  O_15 
ROOT
HETATM    1  C   UNL     1     -41.750  56.618 -52.520  1.00  0.00     0.273 C 
HETATM    2  N   UNL     1     -41.648  55.288 -52.856  1.00  0.00    -0.347 N 
HETATM    3  O   UNL     1     -40.894  57.462 -52.759  1.00  0.00    -0.266 OA
HETATM    4  H   UNL     1     -42.490  54.750 -52.672  1.00  0.00     0.163 HD
ENDROOT
BRANCH   1   5
HETATM    5  C   UNL     1     -43.023  56.942 -51.851  1.00  0.00     0.157 A 
HETATM    6  C   UNL     1     -43.771  58.152 -51.957  1.00  0.00     0.029 A 
HETATM    7  C   UNL     1     -43.629  59.377 -52.639  1.00  0.00     0.023 A 
HETATM    8  C   UNL     1     -44.886  57.960 -51.152  1.00  0.00     0.063 A 
HETATM    9  C   UNL     1     -44.611  60.370 -52.492  1.00  0.00    -0.061 A 
HETATM   10  C   UNL     1     -44.478  61.684 -53.208  1.00  0.00     0.048 C 
HETATM   11  C   UNL     1     -45.722  60.135 -51.670  1.00  0.00     0.009 A 
HETATM   12  C   UNL     1     -45.883  58.925 -50.984  1.00  0.00     0.032 A 
HETATM   13  N   UNL     1     -44.745  56.702 -50.635  1.00  0.00    -0.277 N 
HETATM   14  H   UNL     1     -45.377  56.226 -50.002  1.00  0.00     0.189 HD
HETATM   15  N   UNL     1     -43.635  56.056 -51.033  1.00  0.00    -0.168 NA
ENDBRANCH   1   5
BRANCH   2  16
HETATM   16  C   UNL     1     -40.588  54.651 -53.626  1.00  0.00     0.116 C 
HETATM   17  C   UNL     1     -40.774  54.725 -55.142  1.00  0.00     0.037 C 
BRANCH  16  18
HETATM   18  C   UNL     1     -40.277  53.231 -53.168  1.00  0.00    -0.002 A 
HETATM   19  C   UNL     1     -40.014  52.961 -51.807  1.00  0.00     0.076 A 
HETATM   20  C   UNL     1     -39.718  51.654 -51.402  1.00  0.00     0.038 A 
HETATM   21  C   UNL     1     -39.660  50.615 -52.333  1.00  0.00     0.009 A 
HETATM   22  C   UNL     1     -39.892  50.865 -53.685  1.00  0.00    -0.061 A 
HETATM   23  C   UNL     1     -39.819  49.764 -54.701  1.00  0.00     0.048 C 
HETATM   24  C   UNL     1     -40.188  52.172 -54.092  1.00  0.00     0.018 A 
BRANCH  19  25
HETATM   25  O   UNL     1     -40.076  54.035 -50.957  1.00  0.00    -0.355 OA
HETATM   26  C   UNL     1     -40.704  53.838 -49.696  1.00  0.00     0.210 C 
ENDBRANCH  19  25
ENDBRANCH  16  18
ENDBRANCH   2  16
TORSDOF 4
ENDMDL
MODEL 2
REMARK VINA RESULT:      -7.8      1.858      7.872
REMARK  4 active torsions:
REMARK  status: ('A' for Active; 'I' for Inactive)
REMARK    1  A    between atoms: C_9  and  C_10 
REMARK       I    between atoms: C_10  and  N_11 
REMARK    2  A    between atoms: N_11  and  C_12 
REMARK    3  A    between atoms: C_12  and  C_13 
REMARK    4  A    between atoms: C_14  and  O_15 
ROOT
HETATM    1  C   UNL     1     -41.185  55.120 -52.909  1.00  0.00     0.273 C 
HETATM    2  N   UNL     1     -41.255  56.343 -52.284  1.00  0.00    -0.347 N 
HETATM    3  O   UNL     1     -41.428  54.933 -54.097  1.00  0.00    -0.266 OA
HETATM    4  H   UNL     1     -40.925  56.335 -51.322  1.00  0.00     0.163 HD
ENDROOT
BRANCH   1   5
HETATM    5  C   UNL     1     -40.758  54.039 -52.004  1.00  0.00     0.157 A 
HETATM    6  C   UNL     1     -40.369  52.714 -52.363  1.00  0.00     0.029 A 
HETATM    7  C   UNL     1     -40.251  51.980 -53.560  1.00  0.00     0.023 A 
HETATM    8  C   UNL     1     -40.050  52.093 -51.163  1.00  0.00     0.063 A 
HETATM    9  C   UNL     1     -39.817  50.645 -53.515  1.00  0.00    -0.061 A 
HETATM   10  C   UNL     1     -39.688  49.844 -54.778  1.00  0.00     0.048 C 
HETATM   11  C   UNL     1     -39.505  50.056 -52.282  1.00  0.00     0.009 A 
HETATM   12  C   UNL     1     -39.615  50.767 -51.081  1.00  0.00     0.032 A 
HETATM   13  N   UNL     1     -40.260  53.039 -50.199  1.00  0.00    -0.277 N 
HETATM   14  H   UNL     1     -40.127  52.936 -49.200  1.00  0.00     0.189 HD
HETATM   15  N   UNL     1     -40.686  54.227 -50.666  1.00  0.00    -0.168 NA
ENDBRANCH   1   5
BRANCH   2  16
HETATM   16  C   UNL     1     -41.525  57.636 -52.899  1.00  0.00     0.116 C 
HETATM   17  C   UNL     1     -40.291  58.521 -53.079  1.00  0.00     0.037 C 
BRANCH  16  18
HETATM   18  C   UNL     1     -42.668  58.395 -52.236  1.00  0.00    -0.002 A 
HETATM   19  C   UNL     1     -44.000  57.951 -52.380  1.00  0.00     0.076 A 
HETATM   20  C   UNL     1     -45.041  58.665 -51.775  1.00  0.00     0.038 A 
HETATM   21  C   UNL     1     -44.779  59.826 -51.044  1.00  0.00     0.009 A 
HETATM   22  C   UNL     1     -43.474  60.295 -50.911  1.00  0.00    -0.061 A 
HETATM   23  C   UNL     1     -43.174  61.549 -50.143  1.00  0.00     0.048 C 
HETATM   24  C   UNL     1     -42.430  59.583 -51.516  1.00  0.00     0.018 A 
BRANCH  19  25
HETATM   25  O   UNL     1     -44.178  56.812 -53.123  1.00  0.00    -0.355 OA
HETATM   26  C   UNL     1     -44.720  56.960 -54.430  1.00  0.00     0.210 C 
ENDBRANCH  19  25
ENDBRANCH  16  18
ENDBRANCH   2  16
TORSDOF 4
ENDMDL
MODEL 3
REMARK VINA RESULT:      -7.8      4.151      7.874
REMARK  4 active torsions:
REMARK  status: ('A' for Active; 'I' for Inactive)
REMARK    1  A    between atoms: C_9  and  C_10 
REMARK       I    between atoms: C_10  and  N_11 
REMARK    2  A    between atoms: N_11  and  C_12 
REMARK    3  A    between atoms: C_12  and  C_13 
REMARK    4  A    between atoms: C_14  and  O_15 
ROOT
HETATM    1  C   UNL     1     -42.587  55.451 -55.970  1.00  0.00     0.273 C 
HETATM    2  N   UNL     1     -42.340  56.698 -56.494  1.00  0.00    -0.347 N 
HETATM    3  O   UNL     1     -43.215  54.568 -56.545  1.00  0.00    -0.266 OA
HETATM    4  H   UNL     1     -41.720  57.270 -55.926  1.00  0.00     0.163 HD
ENDROOT
BRANCH   1   5
HETATM    5  C   UNL     1     -41.993  55.264 -54.634  1.00  0.00     0.157 A 
HETATM    6  C   UNL     1     -41.335  54.101 -54.136  1.00  0.00     0.029 A 
HETATM    7  C   UNL     1     -41.025  52.819 -54.633  1.00  0.00     0.023 A 
HETATM    8  C   UNL     1     -40.950  54.428 -52.843  1.00  0.00     0.063 A 
HETATM    9  C   UNL     1     -40.338  51.906 -53.815  1.00  0.00    -0.061 A 
HETATM   10  C   UNL     1     -40.000  50.534 -54.323  1.00  0.00     0.048 C 
HETATM   11  C   UNL     1     -39.967  52.278 -52.515  1.00  0.00     0.009 A 
HETATM   12  C   UNL     1     -40.265  53.546 -52.002  1.00  0.00     0.032 A 
HETATM   13  N   UNL     1     -41.382  55.711 -52.651  1.00  0.00    -0.277 N 
HETATM   14  H   UNL     1     -41.274  56.276 -51.817  1.00  0.00     0.189 HD
HETATM   15  N   UNL     1     -42.015  56.251 -53.709  1.00  0.00    -0.168 NA
ENDBRANCH   1   5
BRANCH   2  16
HETATM   16  C   UNL     1     -42.673  57.177 -57.829  1.00  0.00     0.116 C 
HETATM   17  C   UNL     1     -41.861  58.389 -58.287  1.00  0.00     0.037 C 
BRANCH  16  18
HETATM   18  C   UNL     1     -44.167  57.391 -58.040  1.00  0.00    -0.002 A 
HETATM   19  C   UNL     1     -44.914  58.165 -57.126  1.00  0.00     0.076 A 
HETATM   20  C   UNL     1     -46.288  58.344 -57.325  1.00  0.00     0.038 A 
HETATM   21  C   UNL     1     -46.934  57.748 -58.410  1.00  0.00     0.009 A 
HETATM   22  C   UNL     1     -46.219  56.960 -59.310  1.00  0.00    -0.061 A 
HETATM   23  C   UNL     1     -46.899  56.300 -60.474  1.00  0.00     0.048 C 
HETATM   24  C   UNL     1     -44.845  56.779 -59.113  1.00  0.00     0.018 A 
BRANCH  19  25
HETATM   25  O   UNL     1     -44.212  58.705 -56.078  1.00  0.00    -0.355 OA
HETATM   26  C   UNL     1     -44.813  58.654 -54.790  1.00  0.00     0.210 C 
ENDBRANCH  19  25
ENDBRANCH  16  18
ENDBRANCH   2  16
TORSDOF 4
ENDMDL
MODEL 4
REMARK VINA RESULT:      -7.8      2.185      2.744
REMARK  4 active torsions:
REMARK  status: ('A' for Active; 'I' for Inactive)
REMARK    1  A    between atoms: C_9  and  C_10 
REMARK       I    between atoms: C_10  and  N_11 
REMARK    2  A    between atoms: N_11  and  C_12 
REMARK    3  A    between atoms: C_12  and  C_13 
REMARK    4  A    between atoms: C_14  and  O_15 
ROOT
HETATM    1  C   UNL     1     -42.345  56.964 -54.334  1.00  0.00     0.273 C 
HETATM    2  N   UNL     1     -42.098  55.700 -53.853  1.00  0.00    -0.347 N 
HETATM    3  O   UNL     1     -42.239  57.292 -55.511  1.00  0.00    -0.266 OA
HETATM    4  H   UNL     1     -42.330  55.578 -52.871  1.00  0.00     0.163 HD
ENDROOT
BRANCH   1   5
HETATM    5  C   UNL     1     -42.779  57.901 -53.282  1.00  0.00     0.157 A 
HETATM    6  C   UNL     1     -41.958  58.558 -52.318  1.00  0.00     0.029 A 
HETATM    7  C   UNL     1     -40.586  58.583 -52.001  1.00  0.00     0.023 A 
HETATM    8  C   UNL     1     -42.832  59.334 -51.567  1.00  0.00     0.063 A 
HETATM    9  C   UNL     1     -40.133  59.386 -50.941  1.00  0.00    -0.061 A 
HETATM   10  C   UNL     1     -38.675  59.424 -50.584  1.00  0.00     0.048 C 
HETATM   11  C   UNL     1     -41.049  60.154 -50.209  1.00  0.00     0.009 A 
HETATM   12  C   UNL     1     -42.417  60.144 -50.507  1.00  0.00     0.032 A 
HETATM   13  N   UNL     1     -44.070  59.104 -52.103  1.00  0.00    -0.277 N 
HETATM   14  H   UNL     1     -44.950  59.506 -51.804  1.00  0.00     0.189 HD
HETATM   15  N   UNL     1     -44.079  58.247 -53.139  1.00  0.00    -0.168 NA
ENDBRANCH   1   5
BRANCH   2  16
HETATM   16  C   UNL     1     -41.770  54.509 -54.626  1.00  0.00     0.116 C 
HETATM   17  C   UNL     1     -42.951  53.901 -55.384  1.00  0.00     0.037 C 
BRANCH  16  18
HETATM   18  C   UNL     1     -41.015  53.455 -53.825  1.00  0.00    -0.002 A 
HETATM   19  C   UNL     1     -40.633  53.711 -52.490  1.00  0.00     0.076 A 
HETATM   20  C   UNL     1     -39.930  52.739 -51.769  1.00  0.00     0.038 A 
HETATM   21  C   UNL     1     -39.584  51.522 -52.362  1.00  0.00     0.009 A 
HETATM   22  C   UNL     1     -39.930  51.260 -53.687  1.00  0.00    -0.061 A 
HETATM   23  C   UNL     1     -39.555  49.966 -54.345  1.00  0.00     0.048 C 
HETATM   24  C   UNL     1     -40.634  52.232 -54.410  1.00  0.00     0.018 A 
BRANCH  19  25
HETATM   25  O   UNL     1     -40.995  54.933 -51.983  1.00  0.00    -0.355 OA
HETATM   26  C   UNL     1     -40.910  55.109 -50.574  1.00  0.00     0.210 C 
ENDBRANCH  19  25
ENDBRANCH  16  18
ENDBRANCH   2  16
TORSDOF 4
ENDMDL
MODEL 5
REMARK VINA RESULT:      -7.5      2.282      7.439
REMARK  4 active torsions:
REMARK  status: ('A' for Active; 'I' for Inactive)
REMARK    1  A    between atoms: C_9  and  C_10 
REMARK       I    between atoms: C_10  and  N_11 
REMARK    2  A    between atoms: N_11  and  C_12 
REMARK    3  A    between atoms: C_12  and  C_13 
REMARK    4  A    between atoms: C_14  and  O_15 
ROOT
HETATM    1  C   UNL     1     -41.221  55.291 -54.098  1.00  0.00     0.273 C 
HETATM    2  N   UNL     1     -42.555  55.249 -54.432  1.00  0.00    -0.347 N 
HETATM    3  O   UNL     1     -40.377  55.952 -54.694  1.00  0.00    -0.266 OA
HETATM    4  H   UNL     1     -43.129  54.730 -53.774  1.00  0.00     0.163 HD
ENDROOT
BRANCH   1   5
HETATM    5  C   UNL     1     -40.901  54.468 -52.919  1.00  0.00     0.157 A 
HETATM    6  C   UNL     1     -40.459  53.111 -52.907  1.00  0.00     0.029 A 
HETATM    7  C   UNL     1     -40.188  52.123 -53.874  1.00  0.00     0.023 A 
HETATM    8  C   UNL     1     -40.287  52.799 -51.564  1.00  0.00     0.063 A 
HETATM    9  C   UNL     1     -39.752  50.853 -53.463  1.00  0.00    -0.061 A 
HETATM   10  C   UNL     1     -39.459  49.784 -54.477  1.00  0.00     0.048 C 
HETATM   11  C   UNL     1     -39.590  50.580 -52.098  1.00  0.00     0.009 A 
HETATM   12  C   UNL     1     -39.854  51.546 -51.120  1.00  0.00     0.032 A 
HETATM   13  N   UNL     1     -40.622  53.937 -50.883  1.00  0.00    -0.277 N 
HETATM   14  H   UNL     1     -40.614  54.074 -49.880  1.00  0.00     0.189 HD
HETATM   15  N   UNL     1     -40.997  54.965 -51.665  1.00  0.00    -0.168 NA
ENDBRANCH   1   5
BRANCH   2  16
HETATM   16  C   UNL     1     -43.233  56.028 -55.460  1.00  0.00     0.116 C 
HETATM   17  C   UNL     1     -42.913  55.600 -56.893  1.00  0.00     0.037 C 
BRANCH  16  18
HETATM   18  C   UNL     1     -43.082  57.533 -55.277  1.00  0.00    -0.002 A 
HETATM   19  C   UNL     1     -43.555  58.161 -54.104  1.00  0.00     0.076 A 
HETATM   20  C   UNL     1     -43.421  59.546 -53.954  1.00  0.00     0.038 A 
HETATM   21  C   UNL     1     -42.840  60.320 -54.963  1.00  0.00     0.009 A 
HETATM   22  C   UNL     1     -42.391  59.722 -56.139  1.00  0.00    -0.061 A 
HETATM   23  C   UNL     1     -41.779  60.538 -57.239  1.00  0.00     0.048 C 
HETATM   24  C   UNL     1     -42.524  58.336 -56.291  1.00  0.00     0.018 A 
BRANCH  19  25
HETATM   25  O   UNL     1     -44.124  57.338 -53.167  1.00  0.00    -0.355 OA
HETATM   26  C   UNL     1     -43.694  57.481 -51.819  1.00  0.00     0.210 C 
ENDBRANCH  19  25
ENDBRANCH  16  18
ENDBRANCH   2  16
TORSDOF 4
ENDMDL
MODEL 6
REMARK VINA RESULT:      -7.5      1.878      2.243
REMARK  4 active torsions:
REMARK  status: ('A' for Active; 'I' for Inactive)
REMARK    1  A    between atoms: C_9  and  C_10 
REMARK       I    between atoms: C_10  and  N_11 
REMARK    2  A    between atoms: N_11  and  C_12 
REMARK    3  A    between atoms: C_12  and  C_13 
REMARK    4  A    between atoms: C_14  and  O_15 
ROOT
HETATM    1  C   UNL     1     -41.600  57.231 -53.631  1.00  0.00     0.273 C 
HETATM    2  N   UNL     1     -41.503  55.952 -53.134  1.00  0.00    -0.347 N 
HETATM    3  O   UNL     1     -41.826  57.504 -54.806  1.00  0.00    -0.266 OA
HETATM    4  H   UNL     1     -41.411  55.907 -52.123  1.00  0.00     0.163 HD
ENDROOT
BRANCH   1   5
HETATM    5  C   UNL     1     -41.427  58.262 -52.593  1.00  0.00     0.157 A 
HETATM    6  C   UNL     1     -42.451  59.007 -51.937  1.00  0.00     0.029 A 
HETATM    7  C   UNL     1     -43.857  59.073 -51.998  1.00  0.00     0.023 A 
HETATM    8  C   UNL     1     -41.782  59.834 -51.045  1.00  0.00     0.063 A 
HETATM    9  C   UNL     1     -44.547  59.966 -51.162  1.00  0.00    -0.061 A 
HETATM   10  C   UNL     1     -46.046  60.054 -51.214  1.00  0.00     0.048 C 
HETATM   11  C   UNL     1     -43.832  60.783 -50.275  1.00  0.00     0.009 A 
HETATM   12  C   UNL     1     -42.435  60.734 -50.198  1.00  0.00     0.032 A 
HETATM   13  N   UNL     1     -40.455  59.548 -51.213  1.00  0.00    -0.277 N 
HETATM   14  H   UNL     1     -39.672  59.964 -50.723  1.00  0.00     0.189 HD
HETATM   15  N   UNL     1     -40.201  58.604 -52.137  1.00  0.00    -0.168 NA
ENDBRANCH   1   5
BRANCH   2  16
HETATM   16  C   UNL     1     -41.737  54.705 -53.851  1.00  0.00     0.116 C 
HETATM   17  C   UNL     1     -43.213  54.359 -54.053  1.00  0.00     0.037 C 
BRANCH  16  18
HETATM   18  C   UNL     1     -40.957  53.525 -53.285  1.00  0.00    -0.002 A 
HETATM   19  C   UNL     1     -40.496  53.547 -51.951  1.00  0.00     0.076 A 
HETATM   20  C   UNL     1     -39.770  52.461 -51.447  1.00  0.00     0.038 A 
HETATM   21  C   UNL     1     -39.479  51.361 -52.257  1.00  0.00     0.009 A 
HETATM   22  C   UNL     1     -39.904  51.331 -53.584  1.00  0.00    -0.061 A 
HETATM   23  C   UNL     1     -39.588  50.164 -54.474  1.00  0.00     0.048 C 
HETATM   24  C   UNL     1     -40.630  52.416 -54.091  1.00  0.00     0.018 A 
BRANCH  19  25
HETATM   25  O   UNL     1     -40.809  54.667 -51.224  1.00  0.00    -0.355 OA
HETATM   26  C   UNL     1     -40.701  54.581 -49.808  1.00  0.00     0.210 C 
ENDBRANCH  19  25
ENDBRANCH  16  18
ENDBRANCH   2  16
TORSDOF 4
ENDMDL
MODEL 7
REMARK VINA RESULT:      -7.5      2.205      7.980
REMARK  4 active torsions:
REMARK  status: ('A' for Active; 'I' for Inactive)
REMARK    1  A    between atoms: C_9  and  C_10 
REMARK       I    between atoms: C_10  and  N_11 
REMARK    2  A    between atoms: N_11  and  C_12 
REMARK    3  A    between atoms: C_12  and  C_13 
REMARK    4  A    between atoms: C_14  and  O_15 
ROOT
HETATM    1  C   UNL     1     -41.376  56.833 -52.671  1.00  0.00     0.273 C 
HETATM    2  N   UNL     1     -40.530  57.906 -52.828  1.00  0.00    -0.347 N 
HETATM    3  O   UNL     1     -42.291  56.784 -51.856  1.00  0.00    -0.266 OA
HETATM    4  H   UNL     1     -39.893  57.819 -53.615  1.00  0.00     0.163 HD
ENDROOT
BRANCH   1   5
HETATM    5  C   UNL     1     -41.087  55.736 -53.610  1.00  0.00     0.157 A 
HETATM    6  C   UNL     1     -40.712  54.398 -53.286  1.00  0.00     0.029 A 
HETATM    7  C   UNL     1     -40.485  53.665 -52.105  1.00  0.00     0.023 A 
HETATM    8  C   UNL     1     -40.565  53.757 -54.510  1.00  0.00     0.063 A 
HETATM    9  C   UNL     1     -40.116  52.312 -52.188  1.00  0.00    -0.061 A 
HETATM   10  C   UNL     1     -39.866  51.514 -50.941  1.00  0.00     0.048 C 
HETATM   11  C   UNL     1     -39.979  51.704 -53.443  1.00  0.00     0.009 A 
HETATM   12  C   UNL     1     -40.200  52.413 -54.630  1.00  0.00     0.032 A 
HETATM   13  N   UNL     1     -40.846  54.708 -55.452  1.00  0.00    -0.277 N 
HETATM   14  H   UNL     1     -40.838  54.594 -56.458  1.00  0.00     0.189 HD
HETATM   15  N   UNL     1     -41.166  55.914 -54.949  1.00  0.00    -0.168 NA
ENDBRANCH   1   5
BRANCH   2  16
HETATM   16  C   UNL     1     -40.605  59.196 -52.154  1.00  0.00     0.116 C 
HETATM   17  C   UNL     1     -40.216  59.162 -50.676  1.00  0.00     0.037 C 
BRANCH  16  18
HETATM   18  C   UNL     1     -41.932  59.915 -52.369  1.00  0.00    -0.002 A 
HETATM   19  C   UNL     1     -42.362  60.248 -53.671  1.00  0.00     0.076 A 
HETATM   20  C   UNL     1     -43.577  60.919 -53.853  1.00  0.00     0.038 A 
HETATM   21  C   UNL     1     -44.362  61.281 -52.756  1.00  0.00     0.009 A 
HETATM   22  C   UNL     1     -43.943  60.984 -51.461  1.00  0.00    -0.061 A 
HETATM   23  C   UNL     1     -44.766  61.379 -50.270  1.00  0.00     0.048 C 
HETATM   24  C   UNL     1     -42.728  60.313 -51.276  1.00  0.00     0.018 A 
BRANCH  19  25
HETATM   25  O   UNL     1     -41.530  59.872 -54.695  1.00  0.00    -0.355 OA
HETATM   26  C   UNL     1     -42.129  59.291 -55.847  1.00  0.00     0.210 C 
ENDBRANCH  19  25
ENDBRANCH  16  18
ENDBRANCH   2  16
TORSDOF 4
ENDMDL
MODEL 8
REMARK VINA RESULT:      -7.4      3.649      7.006
REMARK  4 active torsions:
REMARK  status: ('A' for Active; 'I' for Inactive)
REMARK    1  A    between atoms: C_9  and  C_10 
REMARK       I    between atoms: C_10  and  N_11 
REMARK    2  A    between atoms: N_11  and  C_12 
REMARK    3  A    between atoms: C_12  and  C_13 
REMARK    4  A    between atoms: C_14  and  O_15 
ROOT
HETATM    1  C   UNL     1     -41.922  58.224 -54.154  1.00  0.00     0.273 C 
HETATM    2  N   UNL     1     -43.030  57.863 -54.884  1.00  0.00    -0.347 N 
HETATM    3  O   UNL     1     -41.182  59.162 -54.432  1.00  0.00    -0.266 OA
HETATM    4  H   UNL     1     -43.585  57.126 -54.457  1.00  0.00     0.163 HD
ENDROOT
BRANCH   1   5
HETATM    5  C   UNL     1     -41.718  57.374 -52.967  1.00  0.00     0.157 A 
HETATM    6  C   UNL     1     -41.310  56.007 -52.944  1.00  0.00     0.029 A 
HETATM    7  C   UNL     1     -40.984  55.028 -53.904  1.00  0.00     0.023 A 
HETATM    8  C   UNL     1     -41.255  55.669 -51.598  1.00  0.00     0.063 A 
HETATM    9  C   UNL     1     -40.612  53.741 -53.482  1.00  0.00    -0.061 A 
HETATM   10  C   UNL     1     -40.264  52.682 -54.488  1.00  0.00     0.048 C 
HETATM   11  C   UNL     1     -40.569  53.442 -52.113  1.00  0.00     0.009 A 
HETATM   12  C   UNL     1     -40.889  54.399 -51.143  1.00  0.00     0.032 A 
HETATM   13  N   UNL     1     -41.618  56.803 -50.926  1.00  0.00    -0.277 N 
HETATM   14  H   UNL     1     -41.689  56.924 -49.922  1.00  0.00     0.189 HD
HETATM   15  N   UNL     1     -41.904  57.853 -51.716  1.00  0.00    -0.168 NA
ENDBRANCH   1   5
BRANCH   2  16
HETATM   16  C   UNL     1     -43.590  58.553 -56.039  1.00  0.00     0.116 C 
HETATM   17  C   UNL     1     -45.106  58.751 -55.984  1.00  0.00     0.037 C 
BRANCH  16  18
HETATM   18  C   UNL     1     -43.150  57.959 -57.372  1.00  0.00    -0.002 A 
HETATM   19  C   UNL     1     -42.182  58.616 -58.161  1.00  0.00     0.076 A 
HETATM   20  C   UNL     1     -41.795  58.067 -59.389  1.00  0.00     0.038 A 
HETATM   21  C   UNL     1     -42.372  56.882 -59.853  1.00  0.00     0.009 A 
HETATM   22  C   UNL     1     -43.348  56.231 -59.100  1.00  0.00    -0.061 A 
HETATM   23  C   UNL     1     -43.989  54.966 -59.588  1.00  0.00     0.048 C 
HETATM   24  C   UNL     1     -43.736  56.780 -57.871  1.00  0.00     0.018 A 
BRANCH  19  25
HETATM   25  O   UNL     1     -41.673  59.781 -57.646  1.00  0.00    -0.355 OA
HETATM   26  C   UNL     1     -41.422  60.846 -58.554  1.00  0.00     0.210 C 
ENDBRANCH  19  25
ENDBRANCH  16  18
ENDBRANCH   2  16
TORSDOF 4
ENDMDL
MODEL 9
REMARK VINA RESULT:      -7.3      1.995      7.771
REMARK  4 active torsions:
REMARK  status: ('A' for Active; 'I' for Inactive)
REMARK    1  A    between atoms: C_9  and  C_10 
REMARK       I    between atoms: C_10  and  N_11 
REMARK    2  A    between atoms: N_11  and  C_12 
REMARK    3  A    between atoms: C_12  and  C_13 
REMARK    4  A    between atoms: C_14  and  O_15 
ROOT
HETATM    1  C   UNL     1     -41.492  55.261 -52.983  1.00  0.00     0.273 C 
HETATM    2  N   UNL     1     -41.662  56.488 -52.386  1.00  0.00    -0.347 N 
HETATM    3  O   UNL     1     -41.735  55.022 -54.161  1.00  0.00    -0.266 OA
HETATM    4  H   UNL     1     -41.318  56.534 -51.430  1.00  0.00     0.163 HD
ENDROOT
BRANCH   1   5
HETATM    5  C   UNL     1     -40.957  54.245 -52.059  1.00  0.00     0.157 A 
HETATM    6  C   UNL     1     -40.508  52.931 -52.385  1.00  0.00     0.029 A 
HETATM    7  C   UNL     1     -40.407  52.155 -53.557  1.00  0.00     0.023 A 
HETATM    8  C   UNL     1     -40.093  52.380 -51.180  1.00  0.00     0.063 A 
HETATM    9  C   UNL     1     -39.893  50.849 -53.481  1.00  0.00    -0.061 A 
HETATM   10  C   UNL     1     -39.780  50.003 -54.717  1.00  0.00     0.048 C 
HETATM   11  C   UNL     1     -39.485  50.332 -52.244  1.00  0.00     0.009 A 
HETATM   12  C   UNL     1     -39.576  51.086 -51.068  1.00  0.00     0.032 A 
HETATM   13  N   UNL     1     -40.309  53.354 -50.244  1.00  0.00    -0.277 N 
HETATM   14  H   UNL     1     -40.121  53.301 -49.251  1.00  0.00     0.189 HD
HETATM   15  N   UNL     1     -40.828  54.494 -50.735  1.00  0.00    -0.168 NA
ENDBRANCH   1   5
BRANCH   2  16
HETATM   16  C   UNL     1     -42.055  57.736 -53.027  1.00  0.00     0.116 C 
HETATM   17  C   UNL     1     -41.084  58.229 -54.100  1.00  0.00     0.037 C 
BRANCH  16  18
HETATM   18  C   UNL     1     -42.408  58.840 -52.039  1.00  0.00    -0.002 A 
HETATM   19  C   UNL     1     -41.474  59.252 -51.064  1.00  0.00     0.076 A 
HETATM   20  C   UNL     1     -41.815  60.259 -50.154  1.00  0.00     0.038 A 
HETATM   21  C   UNL     1     -43.080  60.851 -50.187  1.00  0.00     0.009 A 
HETATM   22  C   UNL     1     -44.025  60.441 -51.126  1.00  0.00    -0.061 A 
HETATM   23  C   UNL     1     -45.394  61.055 -51.167  1.00  0.00     0.048 C 
HETATM   24  C   UNL     1     -43.686  59.433 -52.037  1.00  0.00     0.018 A 
BRANCH  19  25
HETATM   25  O   UNL     1     -40.260  58.614 -51.086  1.00  0.00    -0.355 OA
HETATM   26  C   UNL     1     -39.109  59.383 -50.758  1.00  0.00     0.210 C 
ENDBRANCH  19  25
ENDBRANCH  16  18
ENDBRANCH   2  16
TORSDOF 4
ENDMDL
MODEL 10
REMARK VINA RESULT:      -7.3      3.787      5.997
REMARK  4 active torsions:
REMARK  status: ('A' for Active; 'I' for Inactive)
REMARK    1  A    between atoms: C_9  and  C_10 
REMARK       I    between atoms: C_10  and  N_11 
REMARK    2  A    between atoms: N_11  and  C_12 
REMARK    3  A    between atoms: C_12  and  C_13 
REMARK    4  A    between atoms: C_14  and  O_15 
ROOT
HETATM    1  C   UNL     1     -43.272  58.189 -54.945  1.00  0.00     0.273 C 
HETATM    2  N   UNL     1     -42.381  57.610 -54.071  1.00  0.00    -0.347 N 
HETATM    3  O   UNL     1     -44.447  58.425 -54.683  1.00  0.00    -0.266 OA
HETATM    4  H   UNL     1     -41.426  57.578 -54.416  1.00  0.00     0.163 HD
ENDROOT
BRANCH   1   5
HETATM    5  C   UNL     1     -42.662  58.527 -56.243  1.00  0.00     0.157 A 
HETATM    6  C   UNL     1     -42.782  57.806 -57.468  1.00  0.00     0.029 A 
HETATM    7  C   UNL     1     -43.434  56.632 -57.895  1.00  0.00     0.023 A 
HETATM    8  C   UNL     1     -42.038  58.531 -58.389  1.00  0.00     0.063 A 
HETATM    9  C   UNL     1     -43.317  56.222 -59.233  1.00  0.00    -0.061 A 
HETATM   10  C   UNL     1     -44.001  54.973 -59.709  1.00  0.00     0.048 C 
HETATM   11  C   UNL     1     -42.556  56.984 -60.131  1.00  0.00     0.009 A 
HETATM   12  C   UNL     1     -41.901  58.154 -59.728  1.00  0.00     0.032 A 
HETATM   13  N   UNL     1     -41.537  59.595 -57.691  1.00  0.00    -0.277 N 
HETATM   14  H   UNL     1     -40.945  60.337 -58.047  1.00  0.00     0.189 HD
HETATM   15  N   UNL     1     -41.892  59.629 -56.394  1.00  0.00    -0.168 NA
ENDBRANCH   1   5
BRANCH   2  16
HETATM   16  C   UNL     1     -42.612  57.262 -52.676  1.00  0.00     0.116 C 
HETATM   17  C   UNL     1     -42.213  58.350 -51.678  1.00  0.00     0.037 C 
BRANCH  16  18
HETATM   18  C   UNL     1     -42.036  55.905 -52.286  1.00  0.00    -0.002 A 
HETATM   19  C   UNL     1     -42.395  54.744 -53.005  1.00  0.00     0.076 A 
HETATM   20  C   UNL     1     -41.868  53.503 -52.629  1.00  0.00     0.038 A 
HETATM   21  C   UNL     1     -41.004  53.396 -51.537  1.00  0.00     0.009 A 
HETATM   22  C   UNL     1     -40.657  54.527 -50.799  1.00  0.00    -0.061 A 
HETATM   23  C   UNL     1     -39.743  54.430 -49.614  1.00  0.00     0.048 C 
HETATM   24  C   UNL     1     -41.184  55.770 -51.173  1.00  0.00     0.018 A 
BRANCH  19  25
HETATM   25  O   UNL     1     -43.259  54.928 -54.054  1.00  0.00    -0.355 OA
HETATM   26  C   UNL     1     -43.007  54.194 -55.247  1.00  0.00     0.210 C 
ENDBRANCH  19  25
ENDBRANCH  16  18
ENDBRANCH   2  16
TORSDOF 4
ENDMDL
