MODEL 1
REMARK VINA RESULT:      -8.8      0.000      0.000
REMARK  8 active torsions:
REMARK  status: ('A' for Active; 'I' for Inactive)
REMARK    1  A    between atoms: C_2  and  O_3 
REMARK    2  A    between atoms: O_3  and  C_4 
REMARK    3  A    between atoms: C_7  and  N_8 
REMARK       I    between atoms: N_8  and  C_9 
REMARK    4  A    between atoms: C_9  and  C_10 
REMARK    5  A    between atoms: C_12  and  N_13 
REMARK    6  A    between atoms: N_16  and  C_18 
REMARK    7  A    between atoms: C_18  and  C_19 
REMARK    8  A    between atoms: C_18  and  C_25 
ROOT
HETATM    1  C   UNL     1     -43.643  57.477 -51.078  1.00  0.00     0.200 C 
HETATM    2  N   UNL     1     -42.819  58.302 -51.974  1.00  0.00    -0.211 N 
HETATM    3  C   UNL     1     -43.319  59.459 -52.478  1.00  0.00     0.702 C 
HETATM    4  N   UNL     1     -44.492  59.918 -52.183  1.00  0.00    -0.028 NA
HETATM    5  C   UNL     1     -45.322  59.131 -51.421  1.00  0.00     0.263 C 
HETATM    6  O   UNL     1     -46.239  59.593 -50.749  1.00  0.00    -0.271 OA
HETATM    7  C   UNL     1     -45.088  57.646 -51.474  1.00  0.00     0.141 C 
HETATM    8  H   UNL     1     -42.320  57.698 -52.629  1.00  0.00     0.178 HD
ENDROOT
BRANCH   3   9
HETATM    9  N   UNL     1     -42.456  60.175 -53.283  1.00  0.00    -0.213 N 
HETATM   10  C   UNL     1     -42.783  61.476 -53.889  1.00  0.00     0.169 C 
HETATM   11  C   UNL     1     -43.444  61.255 -55.262  1.00  0.00     0.256 C 
HETATM   12  N   UNL     1     -42.487  60.462 -56.159  1.00  0.00    -0.056 N 
HETATM   13  H   UNL     1     -41.603  60.973 -56.190  1.00  0.00     0.281 HD
HETATM   14  C   UNL     1     -42.124  59.123 -55.494  1.00  0.00     0.256 C 
HETATM   15  C   UNL     1     -41.497  59.399 -54.105  1.00  0.00     0.169 C 
BRANCH  12  16
HETATM   16  C   UNL     1     -42.927  60.343 -57.621  1.00  0.00     0.254 C 
BRANCH  16  17
HETATM   17  C   UNL     1     -42.001  61.108 -58.566  1.00  0.00    -0.023 A 
HETATM   18  C   UNL     1     -40.870  61.806 -58.100  1.00  0.00     0.009 A 
HETATM   19  C   UNL     1     -40.051  62.512 -58.983  1.00  0.00     0.001 A 
HETATM   20  C   UNL     1     -40.345  62.531 -60.343  1.00  0.00     0.000 A 
HETATM   21  C   UNL     1     -41.454  61.842 -60.825  1.00  0.00     0.001 A 
HETATM   22  C   UNL     1     -42.277  61.135 -59.945  1.00  0.00     0.009 A 
ENDBRANCH  16  17
BRANCH  16  23
HETATM   23  C   UNL     1     -43.278  58.908 -58.064  1.00  0.00    -0.023 A 
HETATM   24  C   UNL     1     -44.603  58.433 -58.142  1.00  0.00     0.009 A 
HETATM   25  C   UNL     1     -44.886  57.134 -58.583  1.00  0.00     0.001 A 
HETATM   26  C   UNL     1     -43.857  56.287 -58.975  1.00  0.00     0.000 A 
HETATM   27  C   UNL     1     -42.546  56.742 -58.947  1.00  0.00     0.001 A 
HETATM   28  C   UNL     1     -42.260  58.039 -58.513  1.00  0.00     0.009 A 
ENDBRANCH  16  23
ENDBRANCH  12  16
ENDBRANCH   3   9
BRANCH   1  29
HETATM   29  C   UNL     1     -43.131  56.026 -51.170  1.00  0.00     0.246 C 
HETATM   30  N   UNL     1     -41.823  55.889 -51.593  1.00  0.00    -0.325 N 
HETATM   31  H   UNL     1     -41.216  56.699 -51.572  1.00  0.00     0.169 HD
HETATM   32  O   UNL     1     -43.904  55.103 -50.902  1.00  0.00    -0.271 OA
BRANCH  30  33
HETATM   33  C   UNL     1     -41.195  54.684 -51.978  1.00  0.00     0.035 A 
HETATM   34  C   UNL     1     -41.185  54.201 -53.288  1.00  0.00     0.032 A 
HETATM   35  C   UNL     1     -40.497  53.025 -53.613  1.00  0.00     0.039 A 
HETATM   36  C   UNL     1     -39.816  52.314 -52.628  1.00  0.00     0.068 A 
HETATM   37  C   UNL     1     -39.836  52.786 -51.316  1.00  0.00     0.039 A 
HETATM   38  C   UNL     1     -40.507  53.969 -50.993  1.00  0.00     0.032 A 
BRANCH  36  39
HETATM   39  O   UNL     1     -39.111  51.159 -52.814  1.00  0.00    -0.352 OA
BRANCH  39  40
HETATM   40  C   UNL     1     -39.860  49.988 -53.136  1.00  0.00     0.171 C 
HETATM   41  C   UNL     1     -39.781  49.777 -54.637  1.00  0.00     0.034 C 
ENDBRANCH  39  40
ENDBRANCH  36  39
ENDBRANCH  30  33
ENDBRANCH   1  29
TORSDOF 8
ENDMDL
MODEL 2
REMARK VINA RESULT:      -8.7      2.914      7.607
REMARK  8 active torsions:
REMARK  status: ('A' for Active; 'I' for Inactive)
REMARK    1  A    between atoms: C_2  and  O_3 
REMARK    2  A    between atoms: O_3  and  C_4 
REMARK    3  A    between atoms: C_7  and  N_8 
REMARK       I    between atoms: N_8  and  C_9 
REMARK    4  A    between atoms: C_9  and  C_10 
REMARK    5  A    between atoms: C_12  and  N_13 
REMARK    6  A    between atoms: N_16  and  C_18 
REMARK    7  A    between atoms: C_18  and  C_19 
REMARK    8  A    between atoms: C_18  and  C_25 
ROOT
HETATM    1  C   UNL     1     -41.579  54.494 -54.330  1.00  0.00     0.200 C 
HETATM    2  N   UNL     1     -42.113  55.309 -53.227  1.00  0.00    -0.211 N 
HETATM    3  C   UNL     1     -41.843  54.965 -51.942  1.00  0.00     0.702 C 
HETATM    4  N   UNL     1     -41.093  53.964 -51.612  1.00  0.00    -0.028 NA
HETATM    5  C   UNL     1     -40.650  53.131 -52.611  1.00  0.00     0.263 C 
HETATM    6  O   UNL     1     -39.644  52.438 -52.498  1.00  0.00    -0.271 OA
HETATM    7  C   UNL     1     -41.486  53.064 -53.860  1.00  0.00     0.141 C 
HETATM    8  H   UNL     1     -43.077  55.572 -53.436  1.00  0.00     0.178 HD
ENDROOT
BRANCH   3   9
HETATM    9  N   UNL     1     -42.364  55.811 -50.983  1.00  0.00    -0.213 N 
HETATM   10  C   UNL     1     -43.679  56.464 -51.087  1.00  0.00     0.169 C 
HETATM   11  C   UNL     1     -43.529  57.816 -51.808  1.00  0.00     0.256 C 
HETATM   12  N   UNL     1     -42.546  58.696 -51.027  1.00  0.00    -0.056 N 
HETATM   13  H   UNL     1     -42.889  58.761 -50.068  1.00  0.00     0.281 HD
HETATM   14  C   UNL     1     -41.189  57.984 -50.893  1.00  0.00     0.256 C 
HETATM   15  C   UNL     1     -41.400  56.617 -50.196  1.00  0.00     0.169 C 
BRANCH  12  16
HETATM   16  C   UNL     1     -42.455  60.145 -51.514  1.00  0.00     0.254 C 
BRANCH  16  17
HETATM   17  C   UNL     1     -42.767  60.272 -53.006  1.00  0.00    -0.023 A 
HETATM   18  C   UNL     1     -41.826  59.933 -53.997  1.00  0.00     0.009 A 
HETATM   19  C   UNL     1     -42.131  60.076 -55.352  1.00  0.00     0.001 A 
HETATM   20  C   UNL     1     -43.378  60.558 -55.739  1.00  0.00     0.000 A 
HETATM   21  C   UNL     1     -44.325  60.893 -54.774  1.00  0.00     0.001 A 
HETATM   22  C   UNL     1     -44.024  60.751 -53.417  1.00  0.00     0.009 A 
ENDBRANCH  16  17
BRANCH  16  23
HETATM   23  C   UNL     1     -43.167  61.167 -50.604  1.00  0.00    -0.023 A 
HETATM   24  C   UNL     1     -44.182  60.807 -49.695  1.00  0.00     0.009 A 
HETATM   25  C   UNL     1     -44.781  61.756 -48.859  1.00  0.00     0.001 A 
HETATM   26  C   UNL     1     -44.368  63.082 -48.895  1.00  0.00     0.000 A 
HETATM   27  C   UNL     1     -43.342  63.458 -49.752  1.00  0.00     0.001 A 
HETATM   28  C   UNL     1     -42.738  62.512 -50.584  1.00  0.00     0.009 A 
ENDBRANCH  16  23
ENDBRANCH  12  16
ENDBRANCH   3   9
BRANCH   1  29
HETATM   29  C   UNL     1     -42.496  54.698 -55.552  1.00  0.00     0.246 C 
HETATM   30  N   UNL     1     -42.140  55.737 -56.389  1.00  0.00    -0.325 N 
HETATM   31  H   UNL     1     -41.208  56.127 -56.314  1.00  0.00     0.169 HD
HETATM   32  O   UNL     1     -43.480  53.966 -55.687  1.00  0.00    -0.271 OA
BRANCH  30  33
HETATM   33  C   UNL     1     -42.928  56.274 -57.431  1.00  0.00     0.035 A 
HETATM   34  C   UNL     1     -42.836  55.859 -58.761  1.00  0.00     0.032 A 
HETATM   35  C   UNL     1     -43.686  56.394 -59.739  1.00  0.00     0.039 A 
HETATM   36  C   UNL     1     -44.632  57.356 -59.397  1.00  0.00     0.068 A 
HETATM   37  C   UNL     1     -44.716  57.783 -58.072  1.00  0.00     0.039 A 
HETATM   38  C   UNL     1     -43.882  57.237 -57.091  1.00  0.00     0.032 A 
BRANCH  36  39
HETATM   39  O   UNL     1     -45.514  57.954 -60.251  1.00  0.00    -0.352 OA
BRANCH  39  40
HETATM   40  C   UNL     1     -46.900  57.682 -60.045  1.00  0.00     0.171 C 
HETATM   41  C   UNL     1     -47.253  56.425 -60.820  1.00  0.00     0.034 C 
ENDBRANCH  39  40
ENDBRANCH  36  39
ENDBRANCH  30  33
ENDBRANCH   1  29
TORSDOF 8
ENDMDL
MODEL 3
REMARK VINA RESULT:      -8.5      2.944      6.600
REMARK  8 active torsions:
REMARK  status: ('A' for Active; 'I' for Inactive)
REMARK    1  A    between atoms: C_2  and  O_3 
REMARK    2  A    between atoms: O_3  and  C_4 
REMARK    3  A    between atoms: C_7  and  N_8 
REMARK       I    between atoms: N_8  and  C_9 
REMARK    4  A    between atoms: C_9  and  C_10 
REMARK    5  A    between atoms: C_12  and  N_13 
REMARK    6  A    between atoms: N_16  and  C_18 
REMARK    7  A    between atoms: C_18  and  C_19 
REMARK    8  A    between atoms: C_18  and  C_25 
ROOT
HETATM    1  C   UNL     1     -43.338  56.568 -56.241  1.00  0.00     0.200 C 
HETATM    2  N   UNL     1     -43.481  57.924 -55.689  1.00  0.00    -0.211 N 
HETATM    3  C   UNL     1     -44.030  58.907 -56.446  1.00  0.00     0.702 C 
HETATM    4  N   UNL     1     -44.487  58.717 -57.642  1.00  0.00    -0.028 NA
HETATM    5  C   UNL     1     -44.290  57.487 -58.222  1.00  0.00     0.263 C 
HETATM    6  O   UNL     1     -45.003  57.059 -59.124  1.00  0.00    -0.271 OA
HETATM    7  C   UNL     1     -43.119  56.683 -57.728  1.00  0.00     0.141 C 
HETATM    8  H   UNL     1     -42.638  58.168 -55.166  1.00  0.00     0.178 HD
ENDROOT
BRANCH   3   9
HETATM    9  N   UNL     1     -44.148  60.135 -55.826  1.00  0.00    -0.213 N 
HETATM   10  C   UNL     1     -43.010  60.900 -55.290  1.00  0.00     0.169 C 
HETATM   11  C   UNL     1     -42.754  60.490 -53.828  1.00  0.00     0.256 C 
HETATM   12  N   UNL     1     -44.020  60.751 -53.004  1.00  0.00    -0.056 N 
HETATM   13  H   UNL     1     -44.273  61.732 -53.133  1.00  0.00     0.281 HD
HETATM   14  C   UNL     1     -45.209  59.976 -53.599  1.00  0.00     0.256 C 
HETATM   15  C   UNL     1     -45.401  60.397 -55.078  1.00  0.00     0.169 C 
BRANCH  12  16
HETATM   16  C   UNL     1     -43.849  60.582 -51.492  1.00  0.00     0.254 C 
BRANCH  16  17
HETATM   17  C   UNL     1     -42.791  59.535 -51.146  1.00  0.00    -0.023 A 
HETATM   18  C   UNL     1     -41.521  59.891 -50.651  1.00  0.00     0.009 A 
HETATM   19  C   UNL     1     -40.567  58.915 -50.360  1.00  0.00     0.001 A 
HETATM   20  C   UNL     1     -40.864  57.569 -50.555  1.00  0.00     0.000 A 
HETATM   21  C   UNL     1     -42.116  57.195 -51.037  1.00  0.00     0.001 A 
HETATM   22  C   UNL     1     -43.074  58.169 -51.330  1.00  0.00     0.009 A 
ENDBRANCH  16  17
BRANCH  16  23
HETATM   23  C   UNL     1     -43.739  61.910 -50.713  1.00  0.00    -0.023 A 
HETATM   24  C   UNL     1     -43.164  63.074 -51.261  1.00  0.00     0.009 A 
HETATM   25  C   UNL     1     -43.114  64.272 -50.537  1.00  0.00     0.001 A 
HETATM   26  C   UNL     1     -43.654  64.341 -49.259  1.00  0.00     0.000 A 
HETATM   27  C   UNL     1     -44.263  63.220 -48.710  1.00  0.00     0.001 A 
HETATM   28  C   UNL     1     -44.320  62.026 -49.432  1.00  0.00     0.009 A 
ENDBRANCH  16  23
ENDBRANCH  12  16
ENDBRANCH   3   9
BRANCH   1  29
HETATM   29  C   UNL     1     -42.188  55.871 -55.486  1.00  0.00     0.246 C 
HETATM   30  N   UNL     1     -42.438  54.567 -55.106  1.00  0.00    -0.325 N 
HETATM   31  H   UNL     1     -43.208  54.072 -55.539  1.00  0.00     0.169 HD
HETATM   32  O   UNL     1     -41.161  56.510 -55.244  1.00  0.00    -0.271 OA
BRANCH  30  33
HETATM   33  C   UNL     1     -41.657  53.795 -54.217  1.00  0.00     0.035 A 
HETATM   34  C   UNL     1     -40.740  52.829 -54.634  1.00  0.00     0.032 A 
HETATM   35  C   UNL     1     -39.957  52.135 -53.702  1.00  0.00     0.039 A 
HETATM   36  C   UNL     1     -40.088  52.396 -52.341  1.00  0.00     0.068 A 
HETATM   37  C   UNL     1     -41.014  53.351 -51.921  1.00  0.00     0.039 A 
HETATM   38  C   UNL     1     -41.784  54.057 -52.850  1.00  0.00     0.032 A 
BRANCH  36  39
HETATM   39  O   UNL     1     -39.389  51.791 -51.336  1.00  0.00    -0.352 OA
BRANCH  39  40
HETATM   40  C   UNL     1     -40.108  50.884 -50.501  1.00  0.00     0.171 C 
HETATM   41  C   UNL     1     -39.787  49.472 -50.955  1.00  0.00     0.034 C 
ENDBRANCH  39  40
ENDBRANCH  36  39
ENDBRANCH  30  33
ENDBRANCH   1  29
TORSDOF 8
ENDMDL
MODEL 4
REMARK VINA RESULT:      -8.4      2.855      6.544
REMARK  8 active torsions:
REMARK  status: ('A' for Active; 'I' for Inactive)
REMARK    1  A    between atoms: C_2  and  O_3 
REMARK    2  A    between atoms: O_3  and  C_4 
REMARK    3  A    between atoms: C_7  and  N_8 
REMARK       I    between atoms: N_8  and  C_9 
REMARK    4  A    between atoms: C_9  and  C_10 
REMARK    5  A    between atoms: C_12  and  N_13 
REMARK    6  A    between atoms: N_16  and  C_18 
REMARK    7  A    between atoms: C_18  and  C_19 
REMARK    8  A    between atoms: C_18  and  C_25 
ROOT
HETATM    1  C   UNL     1     -43.179  57.696 -58.113  1.00  0.00     0.200 C 
HETATM    2  N   UNL     1     -43.790  58.624 -57.150  1.00  0.00    -0.211 N 
HETATM    3  C   UNL     1     -43.618  59.962 -57.299  1.00  0.00     0.702 C 
HETATM    4  N   UNL     1     -42.968  60.494 -58.282  1.00  0.00    -0.028 NA
HETATM    5  C   UNL     1     -42.310  59.656 -59.151  1.00  0.00     0.263 C 
HETATM    6  O   UNL     1     -42.030  59.981 -60.300  1.00  0.00    -0.271 OA
HETATM    7  C   UNL     1     -41.897  58.312 -58.617  1.00  0.00     0.141 C 
HETATM    8  H   UNL     1     -43.681  58.253 -56.205  1.00  0.00     0.178 HD
ENDROOT
BRANCH   3   9
HETATM    9  N   UNL     1     -44.258  60.748 -56.361  1.00  0.00    -0.213 N 
HETATM   10  C   UNL     1     -43.622  61.873 -55.657  1.00  0.00     0.169 C 
HETATM   11  C   UNL     1     -42.948  61.363 -54.370  1.00  0.00     0.256 C 
HETATM   12  N   UNL     1     -44.003  60.692 -53.482  1.00  0.00    -0.056 N 
HETATM   13  H   UNL     1     -44.751  61.371 -53.330  1.00  0.00     0.281 HD
HETATM   14  C   UNL     1     -44.686  59.544 -54.245  1.00  0.00     0.256 C 
HETATM   15  C   UNL     1     -45.315  60.103 -55.546  1.00  0.00     0.169 C 
BRANCH  12  16
HETATM   16  C   UNL     1     -43.517  60.318 -52.079  1.00  0.00     0.254 C 
BRANCH  16  17
HETATM   17  C   UNL     1     -44.358  60.974 -50.984  1.00  0.00    -0.023 A 
HETATM   18  C   UNL     1     -45.679  61.403 -51.213  1.00  0.00     0.009 A 
HETATM   19  C   UNL     1     -46.419  62.016 -50.200  1.00  0.00     0.001 A 
HETATM   20  C   UNL     1     -45.853  62.209 -48.943  1.00  0.00     0.000 A 
HETATM   21  C   UNL     1     -44.551  61.786 -48.694  1.00  0.00     0.001 A 
HETATM   22  C   UNL     1     -43.807  61.172 -49.705  1.00  0.00     0.009 A 
ENDBRANCH  16  17
BRANCH  16  23
HETATM   23  C   UNL     1     -43.241  58.812 -51.883  1.00  0.00    -0.023 A 
HETATM   24  C   UNL     1     -41.994  58.220 -52.164  1.00  0.00     0.009 A 
HETATM   25  C   UNL     1     -41.769  56.856 -51.939  1.00  0.00     0.001 A 
HETATM   26  C   UNL     1     -42.775  56.057 -51.411  1.00  0.00     0.000 A 
HETATM   27  C   UNL     1     -44.001  56.623 -51.087  1.00  0.00     0.001 A 
HETATM   28  C   UNL     1     -44.227  57.984 -51.305  1.00  0.00     0.009 A 
ENDBRANCH  16  23
ENDBRANCH  12  16
ENDBRANCH   3   9
BRANCH   1  29
HETATM   29  C   UNL     1     -42.990  56.339 -57.405  1.00  0.00     0.246 C 
HETATM   30  N   UNL     1     -42.561  56.413 -56.095  1.00  0.00    -0.325 N 
HETATM   31  H   UNL     1     -42.638  57.297 -55.606  1.00  0.00     0.169 HD
HETATM   32  O   UNL     1     -43.194  55.302 -58.042  1.00  0.00    -0.271 OA
BRANCH  30  33
HETATM   33  C   UNL     1     -42.097  55.335 -55.309  1.00  0.00     0.035 A 
HETATM   34  C   UNL     1     -42.941  54.424 -54.672  1.00  0.00     0.032 A 
HETATM   35  C   UNL     1     -42.415  53.344 -53.951  1.00  0.00     0.039 A 
HETATM   36  C   UNL     1     -41.037  53.168 -53.852  1.00  0.00     0.068 A 
HETATM   37  C   UNL     1     -40.191  54.086 -54.476  1.00  0.00     0.039 A 
HETATM   38  C   UNL     1     -40.714  55.154 -55.211  1.00  0.00     0.032 A 
BRANCH  36  39
HETATM   39  O   UNL     1     -40.400  52.163 -53.182  1.00  0.00    -0.352 OA
BRANCH  39  40
HETATM   40  C   UNL     1     -39.512  51.342 -53.939  1.00  0.00     0.171 C 
HETATM   41  C   UNL     1     -40.250  50.068 -54.311  1.00  0.00     0.034 C 
ENDBRANCH  39  40
ENDBRANCH  36  39
ENDBRANCH  30  33
ENDBRANCH   1  29
TORSDOF 8
ENDMDL
MODEL 5
REMARK VINA RESULT:      -8.3      3.134      9.105
REMARK  8 active torsions:
REMARK  status: ('A' for Active; 'I' for Inactive)
REMARK    1  A    between atoms: C_2  and  O_3 
REMARK    2  A    between atoms: O_3  and  C_4 
REMARK    3  A    between atoms: C_7  and  N_8 
REMARK       I    between atoms: N_8  and  C_9 
REMARK    4  A    between atoms: C_9  and  C_10 
REMARK    5  A    between atoms: C_12  and  N_13 
REMARK    6  A    between atoms: N_16  and  C_18 
REMARK    7  A    between atoms: C_18  and  C_19 
REMARK    8  A    between atoms: C_18  and  C_25 
ROOT
HETATM    1  C   UNL     1     -42.190  59.746 -54.825  1.00  0.00     0.200 C 
HETATM    2  N   UNL     1     -42.595  58.352 -54.582  1.00  0.00    -0.211 N 
HETATM    3  C   UNL     1     -42.678  57.482 -55.620  1.00  0.00     0.702 C 
HETATM    4  N   UNL     1     -42.376  57.793 -56.839  1.00  0.00    -0.028 NA
HETATM    5  C   UNL     1     -42.080  59.106 -57.118  1.00  0.00     0.263 C 
HETATM    6  O   UNL     1     -41.401  59.441 -58.083  1.00  0.00    -0.271 OA
HETATM    7  C   UNL     1     -42.666  60.144 -56.200  1.00  0.00     0.141 C 
HETATM    8  H   UNL     1     -43.364  58.335 -53.911  1.00  0.00     0.178 HD
ENDROOT
BRANCH   3   9
HETATM    9  N   UNL     1     -43.035  56.192 -55.282  1.00  0.00    -0.213 N 
HETATM   10  C   UNL     1     -43.518  55.793 -53.950  1.00  0.00     0.169 C 
HETATM   11  C   UNL     1     -42.322  55.404 -53.062  1.00  0.00     0.256 C 
HETATM   12  N   UNL     1     -41.554  54.256 -53.728  1.00  0.00    -0.056 N 
HETATM   13  H   UNL     1     -42.220  53.501 -53.899  1.00  0.00     0.281 HD
HETATM   14  C   UNL     1     -41.090  54.674 -55.134  1.00  0.00     0.256 C 
HETATM   15  C   UNL     1     -42.324  55.090 -55.973  1.00  0.00     0.169 C 
BRANCH  12  16
HETATM   16  C   UNL     1     -40.459  53.629 -52.861  1.00  0.00     0.254 C 
BRANCH  16  17
HETATM   17  C   UNL     1     -40.620  53.984 -51.383  1.00  0.00    -0.023 A 
HETATM   18  C   UNL     1     -39.512  54.245 -50.554  1.00  0.00     0.009 A 
HETATM   19  C   UNL     1     -39.685  54.550 -49.203  1.00  0.00     0.001 A 
HETATM   20  C   UNL     1     -40.966  54.600 -48.658  1.00  0.00     0.000 A 
HETATM   21  C   UNL     1     -42.074  54.352 -49.463  1.00  0.00     0.001 A 
HETATM   22  C   UNL     1     -41.905  54.046 -50.815  1.00  0.00     0.009 A 
ENDBRANCH  16  17
BRANCH  16  23
HETATM   23  C   UNL     1     -40.195  52.137 -53.154  1.00  0.00    -0.023 A 
HETATM   24  C   UNL     1     -40.283  51.582 -54.447  1.00  0.00     0.009 A 
HETATM   25  C   UNL     1     -40.001  50.231 -54.680  1.00  0.00     0.001 A 
HETATM   26  C   UNL     1     -39.605  49.407 -53.635  1.00  0.00     0.000 A 
HETATM   27  C   UNL     1     -39.470  49.935 -52.357  1.00  0.00     0.001 A 
HETATM   28  C   UNL     1     -39.745  51.284 -52.122  1.00  0.00     0.009 A 
ENDBRANCH  16  23
ENDBRANCH  12  16
ENDBRANCH   3   9
BRANCH   1  29
HETATM   29  C   UNL     1     -42.765  60.609 -53.685  1.00  0.00     0.246 C 
HETATM   30  N   UNL     1     -43.228  59.906 -52.590  1.00  0.00    -0.325 N 
HETATM   31  H   UNL     1     -42.949  58.939 -52.477  1.00  0.00     0.169 HD
HETATM   32  O   UNL     1     -42.808  61.834 -53.828  1.00  0.00    -0.271 OA
BRANCH  30  33
HETATM   33  C   UNL     1     -44.000  60.430 -51.529  1.00  0.00     0.035 A 
HETATM   34  C   UNL     1     -45.383  60.609 -51.593  1.00  0.00     0.032 A 
HETATM   35  C   UNL     1     -46.096  61.083 -50.485  1.00  0.00     0.039 A 
HETATM   36  C   UNL     1     -45.432  61.393 -49.301  1.00  0.00     0.068 A 
HETATM   37  C   UNL     1     -44.048  61.230 -49.239  1.00  0.00     0.039 A 
HETATM   38  C   UNL     1     -43.336  60.739 -50.338  1.00  0.00     0.032 A 
BRANCH  36  39
HETATM   39  O   UNL     1     -46.008  61.863 -48.156  1.00  0.00    -0.352 OA
BRANCH  39  40
HETATM   40  C   UNL     1     -45.472  61.389 -46.921  1.00  0.00     0.171 C 
HETATM   41  C   UNL     1     -45.322  62.577 -45.987  1.00  0.00     0.034 C 
ENDBRANCH  39  40
ENDBRANCH  36  39
ENDBRANCH  30  33
ENDBRANCH   1  29
TORSDOF 8
ENDMDL
MODEL 6
REMARK VINA RESULT:      -8.3      1.331      3.412
REMARK  8 active torsions:
REMARK  status: ('A' for Active; 'I' for Inactive)
REMARK    1  A    between atoms: C_2  and  O_3 
REMARK    2  A    between atoms: O_3  and  C_4 
REMARK    3  A    between atoms: C_7  and  N_8 
REMARK       I    between atoms: N_8  and  C_9 
REMARK    4  A    between atoms: C_9  and  C_10 
REMARK    5  A    between atoms: C_12  and  N_13 
REMARK    6  A    between atoms: N_16  and  C_18 
REMARK    7  A    between atoms: C_18  and  C_19 
REMARK    8  A    between atoms: C_18  and  C_25 
ROOT
HETATM    1  C   UNL     1     -43.371  58.287 -51.658  1.00  0.00     0.200 C 
HETATM    2  N   UNL     1     -43.524  59.131 -52.853  1.00  0.00    -0.211 N 
HETATM    3  C   UNL     1     -44.684  59.806 -53.059  1.00  0.00     0.702 C 
HETATM    4  N   UNL     1     -45.677  59.788 -52.231  1.00  0.00    -0.028 NA
HETATM    5  C   UNL     1     -45.604  58.942 -51.150  1.00  0.00     0.263 C 
HETATM    6  O   UNL     1     -46.244  59.127 -50.119  1.00  0.00    -0.271 OA
HETATM    7  C   UNL     1     -44.724  57.730 -51.294  1.00  0.00     0.141 C 
HETATM    8  H   UNL     1     -43.127  58.650 -53.661  1.00  0.00     0.178 HD
ENDROOT
BRANCH   3   9
HETATM    9  N   UNL     1     -44.715  60.594 -54.192  1.00  0.00    -0.213 N 
HETATM   10  C   UNL     1     -45.431  60.232 -55.427  1.00  0.00     0.169 C 
HETATM   11  C   UNL     1     -44.498  59.423 -56.346  1.00  0.00     0.256 C 
HETATM   12  N   UNL     1     -43.254  60.261 -56.664  1.00  0.00    -0.056 N 
HETATM   13  H   UNL     1     -43.574  61.147 -57.057  1.00  0.00     0.281 HD
HETATM   14  C   UNL     1     -42.540  60.663 -55.362  1.00  0.00     0.256 C 
HETATM   15  C   UNL     1     -43.529  61.442 -54.459  1.00  0.00     0.169 C 
BRANCH  12  16
HETATM   16  C   UNL     1     -42.334  59.664 -57.732  1.00  0.00     0.254 C 
BRANCH  16  17
HETATM   17  C   UNL     1     -42.955  58.443 -58.411  1.00  0.00    -0.023 A 
HETATM   18  C   UNL     1     -42.504  57.135 -58.152  1.00  0.00     0.009 A 
HETATM   19  C   UNL     1     -43.076  56.039 -58.801  1.00  0.00     0.001 A 
HETATM   20  C   UNL     1     -44.108  56.231 -59.715  1.00  0.00     0.000 A 
HETATM   21  C   UNL     1     -44.573  57.516 -59.980  1.00  0.00     0.001 A 
HETATM   22  C   UNL     1     -44.002  58.615 -59.334  1.00  0.00     0.009 A 
ENDBRANCH  16  17
BRANCH  16  23
HETATM   23  C   UNL     1     -41.712  60.703 -58.688  1.00  0.00    -0.023 A 
HETATM   24  C   UNL     1     -40.815  61.701 -58.256  1.00  0.00     0.009 A 
HETATM   25  C   UNL     1     -40.243  62.606 -59.159  1.00  0.00     0.001 A 
HETATM   26  C   UNL     1     -40.536  62.523 -60.514  1.00  0.00     0.000 A 
HETATM   27  C   UNL     1     -41.385  61.525 -60.974  1.00  0.00     0.001 A 
HETATM   28  C   UNL     1     -41.953  60.617 -60.076  1.00  0.00     0.009 A 
ENDBRANCH  16  23
ENDBRANCH  12  16
ENDBRANCH   3   9
BRANCH   1  29
HETATM   29  C   UNL     1     -42.312  57.212 -51.973  1.00  0.00     0.246 C 
HETATM   30  N   UNL     1     -42.423  56.622 -53.217  1.00  0.00    -0.325 N 
HETATM   31  H   UNL     1     -42.993  57.074 -53.922  1.00  0.00     0.169 HD
HETATM   32  O   UNL     1     -41.476  56.928 -51.111  1.00  0.00    -0.271 OA
BRANCH  30  33
HETATM   33  C   UNL     1     -41.736  55.469 -53.657  1.00  0.00     0.035 A 
HETATM   34  C   UNL     1     -40.774  55.481 -54.668  1.00  0.00     0.032 A 
HETATM   35  C   UNL     1     -40.089  54.310 -55.019  1.00  0.00     0.039 A 
HETATM   36  C   UNL     1     -40.366  53.111 -54.367  1.00  0.00     0.068 A 
HETATM   37  C   UNL     1     -41.338  53.094 -53.366  1.00  0.00     0.039 A 
HETATM   38  C   UNL     1     -42.009  54.265 -53.001  1.00  0.00     0.032 A 
BRANCH  36  39
HETATM   39  O   UNL     1     -39.773  51.906 -54.614  1.00  0.00    -0.352 OA
BRANCH  39  40
HETATM   40  C   UNL     1     -39.574  51.041 -53.496  1.00  0.00     0.171 C 
HETATM   41  C   UNL     1     -39.566  49.611 -54.004  1.00  0.00     0.034 C 
ENDBRANCH  39  40
ENDBRANCH  36  39
ENDBRANCH  30  33
ENDBRANCH   1  29
TORSDOF 8
ENDMDL
MODEL 7
REMARK VINA RESULT:      -8.3      2.955      6.692
REMARK  8 active torsions:
REMARK  status: ('A' for Active; 'I' for Inactive)
REMARK    1  A    between atoms: C_2  and  O_3 
REMARK    2  A    between atoms: O_3  and  C_4 
REMARK    3  A    between atoms: C_7  and  N_8 
REMARK       I    between atoms: N_8  and  C_9 
REMARK    4  A    between atoms: C_9  and  C_10 
REMARK    5  A    between atoms: C_12  and  N_13 
REMARK    6  A    between atoms: N_16  and  C_18 
REMARK    7  A    between atoms: C_18  and  C_19 
REMARK    8  A    between atoms: C_18  and  C_25 
ROOT
HETATM    1  C   UNL     1     -43.092  57.869 -57.535  1.00  0.00     0.200 C 
HETATM    2  N   UNL     1     -43.691  58.830 -56.596  1.00  0.00    -0.211 N 
HETATM    3  C   UNL     1     -43.488  60.160 -56.770  1.00  0.00     0.702 C 
HETATM    4  N   UNL     1     -42.817  60.657 -57.758  1.00  0.00    -0.028 NA
HETATM    5  C   UNL     1     -42.170  59.788 -58.603  1.00  0.00     0.263 C 
HETATM    6  O   UNL     1     -41.873  60.084 -59.757  1.00  0.00    -0.271 OA
HETATM    7  C   UNL     1     -41.793  58.446 -58.039  1.00  0.00     0.141 C 
HETATM    8  H   UNL     1     -43.598  58.475 -55.643  1.00  0.00     0.178 HD
ENDROOT
BRANCH   3   9
HETATM    9  N   UNL     1     -44.119  60.979 -55.854  1.00  0.00    -0.213 N 
HETATM   10  C   UNL     1     -43.412  61.901 -54.950  1.00  0.00     0.169 C 
HETATM   11  C   UNL     1     -43.055  61.171 -53.643  1.00  0.00     0.256 C 
HETATM   12  N   UNL     1     -44.340  60.650 -52.990  1.00  0.00    -0.056 N 
HETATM   13  H   UNL     1     -44.969  61.446 -52.875  1.00  0.00     0.281 HD
HETATM   14  C   UNL     1     -45.086  59.718 -53.961  1.00  0.00     0.256 C 
HETATM   15  C   UNL     1     -45.391  60.488 -55.271  1.00  0.00     0.169 C 
BRANCH  12  16
HETATM   16  C   UNL     1     -44.159  60.080 -51.581  1.00  0.00     0.254 C 
BRANCH  16  17
HETATM   17  C   UNL     1     -42.770  59.474 -51.378  1.00  0.00    -0.023 A 
HETATM   18  C   UNL     1     -41.757  60.150 -50.671  1.00  0.00     0.009 A 
HETATM   19  C   UNL     1     -40.491  59.581 -50.516  1.00  0.00     0.001 A 
HETATM   20  C   UNL     1     -40.217  58.330 -51.062  1.00  0.00     0.000 A 
HETATM   21  C   UNL     1     -41.208  57.643 -51.758  1.00  0.00     0.001 A 
HETATM   22  C   UNL     1     -42.475  58.208 -51.916  1.00  0.00     0.009 A 
ENDBRANCH  16  17
BRANCH  16  23
HETATM   23  C   UNL     1     -44.640  61.015 -50.451  1.00  0.00    -0.023 A 
HETATM   24  C   UNL     1     -44.623  62.420 -50.561  1.00  0.00     0.009 A 
HETATM   25  C   UNL     1     -45.100  63.237 -49.529  1.00  0.00     0.001 A 
HETATM   26  C   UNL     1     -45.624  62.671 -48.373  1.00  0.00     0.000 A 
HETATM   27  C   UNL     1     -45.691  61.289 -48.255  1.00  0.00     0.001 A 
HETATM   28  C   UNL     1     -45.220  60.472 -49.285  1.00  0.00     0.009 A 
ENDBRANCH  16  23
ENDBRANCH  12  16
ENDBRANCH   3   9
BRANCH   1  29
HETATM   29  C   UNL     1     -42.940  56.523 -56.798  1.00  0.00     0.246 C 
HETATM   30  N   UNL     1     -42.339  56.595 -55.557  1.00  0.00    -0.325 N 
HETATM   31  H   UNL     1     -42.268  57.497 -55.101  1.00  0.00     0.169 HD
HETATM   32  O   UNL     1     -43.320  55.491 -57.358  1.00  0.00    -0.271 OA
BRANCH  30  33
HETATM   33  C   UNL     1     -41.878  55.502 -54.790  1.00  0.00     0.035 A 
HETATM   34  C   UNL     1     -42.629  54.895 -53.781  1.00  0.00     0.032 A 
HETATM   35  C   UNL     1     -42.135  53.779 -53.094  1.00  0.00     0.039 A 
HETATM   36  C   UNL     1     -40.879  53.261 -53.404  1.00  0.00     0.068 A 
HETATM   37  C   UNL     1     -40.122  53.875 -54.401  1.00  0.00     0.039 A 
HETATM   38  C   UNL     1     -40.620  54.978 -55.101  1.00  0.00     0.032 A 
BRANCH  36  39
HETATM   39  O   UNL     1     -40.286  52.184 -52.811  1.00  0.00    -0.352 OA
BRANCH  39  40
HETATM   40  C   UNL     1     -39.438  51.380 -53.630  1.00  0.00     0.171 C 
HETATM   41  C   UNL     1     -40.287  50.289 -54.258  1.00  0.00     0.034 C 
ENDBRANCH  39  40
ENDBRANCH  36  39
ENDBRANCH  30  33
ENDBRANCH   1  29
TORSDOF 8
ENDMDL
MODEL 8
REMARK VINA RESULT:      -8.3      0.906      3.050
REMARK  8 active torsions:
REMARK  status: ('A' for Active; 'I' for Inactive)
REMARK    1  A    between atoms: C_2  and  O_3 
REMARK    2  A    between atoms: O_3  and  C_4 
REMARK    3  A    between atoms: C_7  and  N_8 
REMARK       I    between atoms: N_8  and  C_9 
REMARK    4  A    between atoms: C_9  and  C_10 
REMARK    5  A    between atoms: C_12  and  N_13 
REMARK    6  A    between atoms: N_16  and  C_18 
REMARK    7  A    between atoms: C_18  and  C_19 
REMARK    8  A    between atoms: C_18  and  C_25 
ROOT
HETATM    1  C   UNL     1     -43.535  57.366 -50.862  1.00  0.00     0.200 C 
HETATM    2  N   UNL     1     -42.750  58.183 -51.800  1.00  0.00    -0.211 N 
HETATM    3  C   UNL     1     -43.269  59.338 -52.288  1.00  0.00     0.702 C 
HETATM    4  N   UNL     1     -44.426  59.803 -51.944  1.00  0.00    -0.028 NA
HETATM    5  C   UNL     1     -45.223  59.024 -51.139  1.00  0.00     0.263 C 
HETATM    6  O   UNL     1     -46.108  59.493 -50.430  1.00  0.00    -0.271 OA
HETATM    7  C   UNL     1     -44.996  57.538 -51.193  1.00  0.00     0.141 C 
HETATM    8  H   UNL     1     -42.283  57.573 -52.472  1.00  0.00     0.178 HD
ENDROOT
BRANCH   3   9
HETATM    9  N   UNL     1     -42.441  60.047 -53.136  1.00  0.00    -0.213 N 
HETATM   10  C   UNL     1     -42.860  61.238 -53.892  1.00  0.00     0.169 C 
HETATM   11  C   UNL     1     -43.435  60.809 -55.254  1.00  0.00     0.256 C 
HETATM   12  N   UNL     1     -42.369  60.024 -56.026  1.00  0.00    -0.056 N 
HETATM   13  H   UNL     1     -41.536  60.613 -56.081  1.00  0.00     0.281 HD
HETATM   14  C   UNL     1     -41.912  58.805 -55.206  1.00  0.00     0.256 C 
HETATM   15  C   UNL     1     -41.377  59.286 -53.834  1.00  0.00     0.169 C 
BRANCH  12  16
HETATM   16  C   UNL     1     -42.729  59.709 -57.480  1.00  0.00     0.254 C 
BRANCH  16  17
HETATM   17  C   UNL     1     -44.236  59.548 -57.678  1.00  0.00    -0.023 A 
HETATM   18  C   UNL     1     -44.896  58.330 -57.423  1.00  0.00     0.009 A 
HETATM   19  C   UNL     1     -46.271  58.204 -57.630  1.00  0.00     0.001 A 
HETATM   20  C   UNL     1     -47.009  59.291 -58.092  1.00  0.00     0.000 A 
HETATM   21  C   UNL     1     -46.376  60.506 -58.343  1.00  0.00     0.001 A 
HETATM   22  C   UNL     1     -45.001  60.635 -58.137  1.00  0.00     0.009 A 
ENDBRANCH  16  17
BRANCH  16  23
HETATM   23  C   UNL     1     -42.022  60.606 -58.518  1.00  0.00    -0.023 A 
HETATM   24  C   UNL     1     -42.129  60.398 -59.908  1.00  0.00     0.009 A 
HETATM   25  C   UNL     1     -41.502  61.253 -60.822  1.00  0.00     0.001 A 
HETATM   26  C   UNL     1     -40.773  62.347 -60.373  1.00  0.00     0.000 A 
HETATM   27  C   UNL     1     -40.685  62.600 -59.010  1.00  0.00     0.001 A 
HETATM   28  C   UNL     1     -41.313  61.751 -58.095  1.00  0.00     0.009 A 
ENDBRANCH  16  23
ENDBRANCH  12  16
ENDBRANCH   3   9
BRANCH   1  29
HETATM   29  C   UNL     1     -43.031  55.913 -50.968  1.00  0.00     0.246 C 
HETATM   30  N   UNL     1     -41.739  55.770 -51.434  1.00  0.00    -0.325 N 
HETATM   31  H   UNL     1     -41.129  56.578 -51.435  1.00  0.00     0.169 HD
HETATM   32  O   UNL     1     -43.799  54.993 -50.672  1.00  0.00    -0.271 OA
BRANCH  30  33
HETATM   33  C   UNL     1     -41.129  54.561 -51.836  1.00  0.00     0.035 A 
HETATM   34  C   UNL     1     -41.042  54.145 -53.166  1.00  0.00     0.032 A 
HETATM   35  C   UNL     1     -40.375  52.960 -53.503  1.00  0.00     0.039 A 
HETATM   36  C   UNL     1     -39.792  52.174 -52.512  1.00  0.00     0.068 A 
HETATM   37  C   UNL     1     -39.890  52.581 -51.182  1.00  0.00     0.039 A 
HETATM   38  C   UNL     1     -40.539  53.772 -50.844  1.00  0.00     0.032 A 
BRANCH  36  39
HETATM   39  O   UNL     1     -39.118  51.003 -52.708  1.00  0.00    -0.352 OA
BRANCH  39  40
HETATM   40  C   UNL     1     -39.892  49.867 -53.092  1.00  0.00     0.171 C 
HETATM   41  C   UNL     1     -39.821  49.738 -54.603  1.00  0.00     0.034 C 
ENDBRANCH  39  40
ENDBRANCH  36  39
ENDBRANCH  30  33
ENDBRANCH   1  29
TORSDOF 8
ENDMDL
MODEL 9
REMARK VINA RESULT:      -8.2      2.225      4.264
REMARK  8 active torsions:
REMARK  status: ('A' for Active; 'I' for Inactive)
REMARK    1  A    between atoms: C_2  and  O_3 
REMARK    2  A    between atoms: O_3  and  C_4 
REMARK    3  A    between atoms: C_7  and  N_8 
REMARK       I    between atoms: N_8  and  C_9 
REMARK    4  A    between atoms: C_9  and  C_10 
REMARK    5  A    between atoms: C_12  and  N_13 
REMARK    6  A    between atoms: N_16  and  C_18 
REMARK    7  A    between atoms: C_18  and  C_19 
REMARK    8  A    between atoms: C_18  and  C_25 
ROOT
HETATM    1  C   UNL     1     -41.952  59.588 -53.279  1.00  0.00     0.200 C 
HETATM    2  N   UNL     1     -42.954  59.525 -54.354  1.00  0.00    -0.211 N 
HETATM    3  C   UNL     1     -43.997  60.393 -54.358  1.00  0.00     0.702 C 
HETATM    4  N   UNL     1     -44.153  61.326 -53.476  1.00  0.00    -0.028 NA
HETATM    5  C   UNL     1     -43.287  61.359 -52.408  1.00  0.00     0.263 C 
HETATM    6  O   UNL     1     -43.067  62.381 -51.767  1.00  0.00    -0.271 OA
HETATM    7  C   UNL     1     -42.638  60.059 -52.020  1.00  0.00     0.141 C 
HETATM    8  H   UNL     1     -43.173  58.548 -54.556  1.00  0.00     0.178 HD
ENDROOT
BRANCH   3   9
HETATM    9  N   UNL     1     -44.863  60.271 -55.427  1.00  0.00    -0.213 N 
HETATM   10  C   UNL     1     -45.480  59.003 -55.847  1.00  0.00     0.169 C 
HETATM   11  C   UNL     1     -44.563  58.292 -56.859  1.00  0.00     0.256 C 
HETATM   12  N   UNL     1     -44.337  59.212 -58.065  1.00  0.00    -0.056 N 
HETATM   13  H   UNL     1     -45.256  59.469 -58.430  1.00  0.00     0.281 HD
HETATM   14  C   UNL     1     -43.729  60.548 -57.605  1.00  0.00     0.256 C 
HETATM   15  C   UNL     1     -44.670  61.203 -56.563  1.00  0.00     0.169 C 
BRANCH  12  16
HETATM   16  C   UNL     1     -43.611  58.559 -59.243  1.00  0.00     0.254 C 
BRANCH  16  17
HETATM   17  C   UNL     1     -44.210  57.199 -59.607  1.00  0.00    -0.023 A 
HETATM   18  C   UNL     1     -45.543  57.062 -60.040  1.00  0.00     0.009 A 
HETATM   19  C   UNL     1     -46.069  55.807 -60.348  1.00  0.00     0.001 A 
HETATM   20  C   UNL     1     -45.275  54.669 -60.233  1.00  0.00     0.000 A 
HETATM   21  C   UNL     1     -43.952  54.785 -59.814  1.00  0.00     0.001 A 
HETATM   22  C   UNL     1     -43.421  56.039 -59.503  1.00  0.00     0.009 A 
ENDBRANCH  16  17
BRANCH  16  23
HETATM   23  C   UNL     1     -43.356  59.505 -60.435  1.00  0.00    -0.023 A 
HETATM   24  C   UNL     1     -44.397  60.099 -61.178  1.00  0.00     0.009 A 
HETATM   25  C   UNL     1     -44.128  60.982 -62.231  1.00  0.00     0.001 A 
HETATM   26  C   UNL     1     -42.816  61.307 -62.555  1.00  0.00     0.000 A 
HETATM   27  C   UNL     1     -41.772  60.768 -61.815  1.00  0.00     0.001 A 
HETATM   28  C   UNL     1     -42.038  59.892 -60.759  1.00  0.00     0.009 A 
ENDBRANCH  16  23
ENDBRANCH  12  16
ENDBRANCH   3   9
BRANCH   1  29
HETATM   29  C   UNL     1     -41.302  58.196 -53.158  1.00  0.00     0.246 C 
HETATM   30  N   UNL     1     -41.727  57.265 -54.085  1.00  0.00    -0.325 N 
HETATM   31  H   UNL     1     -42.217  57.587 -54.911  1.00  0.00     0.169 HD
HETATM   32  O   UNL     1     -40.491  57.993 -52.250  1.00  0.00    -0.271 OA
BRANCH  30  33
HETATM   33  C   UNL     1     -41.467  55.877 -54.051  1.00  0.00     0.035 A 
HETATM   34  C   UNL     1     -42.166  54.979 -53.242  1.00  0.00     0.032 A 
HETATM   35  C   UNL     1     -41.894  53.606 -53.296  1.00  0.00     0.039 A 
HETATM   36  C   UNL     1     -40.913  53.116 -54.154  1.00  0.00     0.068 A 
HETATM   37  C   UNL     1     -40.203  54.013 -54.952  1.00  0.00     0.039 A 
HETATM   38  C   UNL     1     -40.485  55.381 -54.914  1.00  0.00     0.032 A 
BRANCH  36  39
HETATM   39  O   UNL     1     -40.554  51.807 -54.300  1.00  0.00    -0.352 OA
BRANCH  39  40
HETATM   40  C   UNL     1     -39.689  51.258 -53.305  1.00  0.00     0.171 C 
HETATM   41  C   UNL     1     -39.623  49.756 -53.516  1.00  0.00     0.034 C 
ENDBRANCH  39  40
ENDBRANCH  36  39
ENDBRANCH  30  33
ENDBRANCH   1  29
TORSDOF 8
ENDMDL
MODEL 10
REMARK VINA RESULT:      -8.2      3.319      8.994
REMARK  8 active torsions:
REMARK  status: ('A' for Active; 'I' for Inactive)
REMARK    1  A    between atoms: C_2  and  O_3 
REMARK    2  A    between atoms: O_3  and  C_4 
REMARK    3  A    between atoms: C_7  and  N_8 
REMARK       I    between atoms: N_8  and  C_9 
REMARK    4  A    between atoms: C_9  and  C_10 
REMARK    5  A    between atoms: C_12  and  N_13 
REMARK    6  A    between atoms: N_16  and  C_18 
REMARK    7  A    between atoms: C_18  and  C_19 
REMARK    8  A    between atoms: C_18  and  C_25 
ROOT
HETATM    1  C   UNL     1     -42.883  58.172 -57.722  1.00  0.00     0.200 C 
HETATM    2  N   UNL     1     -42.788  57.117 -56.701  1.00  0.00    -0.211 N 
HETATM    3  C   UNL     1     -42.850  55.813 -57.070  1.00  0.00     0.702 C 
HETATM    4  N   UNL     1     -42.949  55.422 -58.299  1.00  0.00    -0.028 NA
HETATM    5  C   UNL     1     -43.129  56.378 -59.270  1.00  0.00     0.263 C 
HETATM    6  O   UNL     1     -42.825  56.195 -60.444  1.00  0.00    -0.271 OA
HETATM    7  C   UNL     1     -43.764  57.672 -58.839  1.00  0.00     0.141 C 
HETATM    8  H   UNL     1     -43.338  57.386 -55.883  1.00  0.00     0.178 HD
ENDROOT
BRANCH   3   9
HETATM    9  N   UNL     1     -42.720  54.901 -56.041  1.00  0.00    -0.213 N 
HETATM   10  C   UNL     1     -43.715  54.719 -54.971  1.00  0.00     0.169 C 
HETATM   11  C   UNL     1     -43.398  55.671 -53.804  1.00  0.00     0.256 C 
HETATM   12  N   UNL     1     -41.984  55.380 -53.287  1.00  0.00    -0.056 N 
HETATM   13  H   UNL     1     -41.944  54.387 -53.050  1.00  0.00     0.281 HD
HETATM   14  C   UNL     1     -40.961  55.536 -54.425  1.00  0.00     0.256 C 
HETATM   15  C   UNL     1     -41.345  54.585 -55.587  1.00  0.00     0.169 C 
BRANCH  12  16
HETATM   16  C   UNL     1     -41.609  56.111 -51.995  1.00  0.00     0.254 C 
BRANCH  16  17
HETATM   17  C   UNL     1     -42.649  57.162 -51.605  1.00  0.00    -0.023 A 
HETATM   18  C   UNL     1     -43.985  56.820 -51.319  1.00  0.00     0.009 A 
HETATM   19  C   UNL     1     -44.919  57.801 -50.983  1.00  0.00     0.001 A 
HETATM   20  C   UNL     1     -44.535  59.138 -50.924  1.00  0.00     0.000 A 
HETATM   21  C   UNL     1     -43.217  59.496 -51.196  1.00  0.00     0.001 A 
HETATM   22  C   UNL     1     -42.280  58.517 -51.534  1.00  0.00     0.009 A 
ENDBRANCH  16  17
BRANCH  16  23
HETATM   23  C   UNL     1     -41.150  55.184 -50.851  1.00  0.00    -0.023 A 
HETATM   24  C   UNL     1     -41.262  55.534 -49.490  1.00  0.00     0.009 A 
HETATM   25  C   UNL     1     -40.868  54.652 -48.476  1.00  0.00     0.001 A 
HETATM   26  C   UNL     1     -40.372  53.395 -48.795  1.00  0.00     0.000 A 
HETATM   27  C   UNL     1     -40.288  53.007 -50.126  1.00  0.00     0.001 A 
HETATM   28  C   UNL     1     -40.685  53.883 -51.140  1.00  0.00     0.009 A 
ENDBRANCH  16  23
ENDBRANCH  12  16
ENDBRANCH   3   9
BRANCH   1  29
HETATM   29  C   UNL     1     -43.404  59.449 -57.032  1.00  0.00     0.246 C 
HETATM   30  N   UNL     1     -43.410  59.413 -55.652  1.00  0.00    -0.325 N 
HETATM   31  H   UNL     1     -42.864  58.702 -55.180  1.00  0.00     0.169 HD
HETATM   32  O   UNL     1     -43.803  60.384 -57.732  1.00  0.00    -0.271 OA
BRANCH  30  33
HETATM   33  C   UNL     1     -44.042  60.343 -54.797  1.00  0.00     0.035 A 
HETATM   34  C   UNL     1     -45.381  60.255 -54.414  1.00  0.00     0.032 A 
HETATM   35  C   UNL     1     -45.933  61.181 -53.519  1.00  0.00     0.039 A 
HETATM   36  C   UNL     1     -45.151  62.212 -53.004  1.00  0.00     0.068 A 
HETATM   37  C   UNL     1     -43.817  62.311 -53.397  1.00  0.00     0.039 A 
HETATM   38  C   UNL     1     -43.259  61.377 -54.275  1.00  0.00     0.032 A 
BRANCH  36  39
HETATM   39  O   UNL     1     -45.567  63.175 -52.130  1.00  0.00    -0.352 OA
BRANCH  39  40
HETATM   40  C   UNL     1     -46.631  62.829 -51.243  1.00  0.00     0.171 C 
HETATM   41  C   UNL     1     -46.020  62.401 -49.921  1.00  0.00     0.034 C 
ENDBRANCH  39  40
ENDBRANCH  36  39
ENDBRANCH  30  33
ENDBRANCH   1  29
TORSDOF 8
ENDMDL
