MODEL 1
REMARK VINA RESULT:      -8.7      0.000      0.000
REMARK  5 active torsions:
REMARK  status: ('A' for Active; 'I' for Inactive)
REMARK    1  A    between atoms: C_8  and  N_9 
REMARK    2  A    between atoms: C_12  and  N_13 
REMARK    3  A    between atoms: N_13  and  C_15 
REMARK    4  A    between atoms: C_15  and  C_16 
REMARK    5  A    between atoms: C_20  and  C_21 
ROOT
HETATM    1  N   UNL     1     -42.682  57.134 -51.497  1.00  0.00    -0.065 N 
HETATM    2  H   UNL     1     -42.491  56.642 -52.374  1.00  0.00     0.280 HD
HETATM    3  C   UNL     1     -43.973  56.566 -50.937  1.00  0.00     0.270 C 
ENDROOT
BRANCH   1   4
HETATM    4  C   UNL     1     -42.787  58.647 -51.788  1.00  0.00     0.191 C 
HETATM    5  C   UNL     1     -41.488  59.246 -52.349  1.00  0.00     0.053 C 
HETATM    6  C   UNL     1     -41.222  58.836 -53.795  1.00  0.00     0.126 C 
HETATM    7  N   UNL     1     -42.383  59.204 -54.612  1.00  0.00    -0.366 N 
HETATM    8  C   UNL     1     -43.646  58.579 -54.207  1.00  0.00     0.126 C 
HETATM    9  C   UNL     1     -43.946  58.955 -52.757  1.00  0.00     0.053 C 
BRANCH   7  10
HETATM   10  C   UNL     1     -42.144  59.234 -55.992  1.00  0.00     0.129 A 
HETATM   11  N   UNL     1     -41.674  60.358 -56.564  1.00  0.00    -0.218 NA
HETATM   12  C   UNL     1     -41.536  60.378 -57.914  1.00  0.00     0.102 A 
HETATM   13  N   UNL     1     -41.855  59.341 -58.699  1.00  0.00    -0.348 N 
HETATM   14  C   UNL     1     -41.046  61.637 -58.554  1.00  0.00     0.091 C 
HETATM   15  C   UNL     1     -42.321  58.205 -58.159  1.00  0.00     0.010 A 
HETATM   16  H   UNL     1     -41.751  59.427 -59.709  1.00  0.00     0.167 HD
HETATM   17  C   UNL     1     -42.698  57.072 -59.057  1.00  0.00     0.068 C 
HETATM   18  C   UNL     1     -42.474  58.133 -56.774  1.00  0.00     0.075 A 
ENDBRANCH   7  10
ENDBRANCH   1   4
BRANCH   1  19
HETATM   19  C   UNL     1     -41.529  56.724 -50.556  1.00  0.00     0.295 C 
BRANCH  19  20
HETATM   20  C   UNL     1     -40.939  55.357 -50.729  1.00  0.00     0.082 A 
HETATM   21  N   UNL     1     -40.139  54.825 -49.797  1.00  0.00    -0.177 NA
HETATM   22  N   UNL     1     -39.784  53.629 -50.312  1.00  0.00    -0.277 N 
HETATM   23  H   UNL     1     -39.169  53.025 -49.774  1.00  0.00     0.189 HD
HETATM   24  C   UNL     1     -40.335  53.369 -51.539  1.00  0.00     0.062 A 
HETATM   25  C   UNL     1     -41.107  54.478 -51.825  1.00  0.00     0.062 A 
BRANCH  24  26
HETATM   26  C   UNL     1     -40.093  52.136 -52.285  1.00  0.00    -0.008 A 
HETATM   27  C   UNL     1     -40.279  52.100 -53.673  1.00  0.00     0.014 A 
HETATM   28  C   UNL     1     -40.056  50.923 -54.390  1.00  0.00     0.001 A 
HETATM   29  C   UNL     1     -39.639  49.770 -53.730  1.00  0.00     0.000 A 
HETATM   30  C   UNL     1     -39.442  49.793 -52.352  1.00  0.00     0.001 A 
HETATM   31  C   UNL     1     -39.668  50.970 -51.632  1.00  0.00     0.014 A 
ENDBRANCH  24  26
ENDBRANCH  19  20
ENDBRANCH   1  19
TORSDOF 5
ENDMDL
MODEL 2
REMARK VINA RESULT:      -8.5      2.736      3.706
REMARK  5 active torsions:
REMARK  status: ('A' for Active; 'I' for Inactive)
REMARK    1  A    between atoms: C_8  and  N_9 
REMARK    2  A    between atoms: C_12  and  N_13 
REMARK    3  A    between atoms: N_13  and  C_15 
REMARK    4  A    between atoms: C_15  and  C_16 
REMARK    5  A    between atoms: C_20  and  C_21 
ROOT
HETATM    1  N   UNL     1     -43.152  57.334 -53.751  1.00  0.00    -0.065 N 
HETATM    2  H   UNL     1     -43.431  56.559 -54.359  1.00  0.00     0.280 HD
HETATM    3  C   UNL     1     -44.031  57.274 -52.517  1.00  0.00     0.270 C 
ENDROOT
BRANCH   1   4
HETATM    4  C   UNL     1     -43.321  58.659 -54.526  1.00  0.00     0.191 C 
HETATM    5  C   UNL     1     -42.525  58.698 -55.840  1.00  0.00     0.053 C 
HETATM    6  C   UNL     1     -43.131  57.814 -56.927  1.00  0.00     0.126 C 
HETATM    7  N   UNL     1     -44.529  58.207 -57.131  1.00  0.00    -0.366 N 
HETATM    8  C   UNL     1     -45.384  58.088 -55.945  1.00  0.00     0.126 C 
HETATM    9  C   UNL     1     -44.806  58.951 -54.825  1.00  0.00     0.053 C 
BRANCH   7  10
HETATM   10  C   UNL     1     -45.098  57.754 -58.328  1.00  0.00     0.129 A 
HETATM   11  N   UNL     1     -44.679  56.596 -58.870  1.00  0.00    -0.218 NA
HETATM   12  C   UNL     1     -45.191  56.231 -60.072  1.00  0.00     0.102 A 
HETATM   13  N   UNL     1     -46.081  56.972 -60.746  1.00  0.00    -0.348 N 
HETATM   14  C   UNL     1     -44.700  54.962 -60.693  1.00  0.00     0.091 C 
HETATM   15  C   UNL     1     -46.523  58.128 -60.229  1.00  0.00     0.010 A 
HETATM   16  H   UNL     1     -46.409  56.654 -61.657  1.00  0.00     0.167 HD
HETATM   17  C   UNL     1     -47.494  58.951 -61.012  1.00  0.00     0.068 C 
HETATM   18  C   UNL     1     -46.032  58.543 -58.992  1.00  0.00     0.075 A 
ENDBRANCH   7  10
ENDBRANCH   1   4
BRANCH   1  19
HETATM   19  C   UNL     1     -41.706  57.000 -53.328  1.00  0.00     0.295 C 
BRANCH  19  20
HETATM   20  C   UNL     1     -41.169  55.646 -53.680  1.00  0.00     0.082 A 
HETATM   21  N   UNL     1     -40.784  55.358 -54.930  1.00  0.00    -0.177 NA
HETATM   22  N   UNL     1     -40.403  54.065 -54.867  1.00  0.00    -0.277 N 
HETATM   23  H   UNL     1     -40.059  53.612 -55.709  1.00  0.00     0.189 HD
HETATM   24  C   UNL     1     -40.521  53.513 -53.618  1.00  0.00     0.062 A 
HETATM   25  C   UNL     1     -41.005  54.533 -52.822  1.00  0.00     0.062 A 
BRANCH  24  26
HETATM   26  C   UNL     1     -40.167  52.129 -53.313  1.00  0.00    -0.008 A 
HETATM   27  C   UNL     1     -40.167  51.158 -54.323  1.00  0.00     0.014 A 
HETATM   28  C   UNL     1     -39.836  49.832 -54.035  1.00  0.00     0.001 A 
HETATM   29  C   UNL     1     -39.494  49.462 -52.737  1.00  0.00     0.000 A 
HETATM   30  C   UNL     1     -39.481  50.418 -51.724  1.00  0.00     0.001 A 
HETATM   31  C   UNL     1     -39.816  51.745 -52.010  1.00  0.00     0.014 A 
ENDBRANCH  24  26
ENDBRANCH  19  20
ENDBRANCH   1  19
TORSDOF 5
ENDMDL
MODEL 3
REMARK VINA RESULT:      -8.5      2.673      3.625
REMARK  5 active torsions:
REMARK  status: ('A' for Active; 'I' for Inactive)
REMARK    1  A    between atoms: C_8  and  N_9 
REMARK    2  A    between atoms: C_12  and  N_13 
REMARK    3  A    between atoms: N_13  and  C_15 
REMARK    4  A    between atoms: C_15  and  C_16 
REMARK    5  A    between atoms: C_20  and  C_21 
ROOT
HETATM    1  N   UNL     1     -43.124  57.448 -53.876  1.00  0.00    -0.065 N 
HETATM    2  H   UNL     1     -43.391  56.680 -54.498  1.00  0.00     0.280 HD
HETATM    3  C   UNL     1     -44.014  57.362 -52.651  1.00  0.00     0.270 C 
ENDROOT
BRANCH   1   4
HETATM    4  C   UNL     1     -43.297  58.783 -54.633  1.00  0.00     0.191 C 
HETATM    5  C   UNL     1     -42.468  58.859 -55.924  1.00  0.00     0.053 C 
HETATM    6  C   UNL     1     -43.029  57.983 -57.041  1.00  0.00     0.126 C 
HETATM    7  N   UNL     1     -44.428  58.355 -57.276  1.00  0.00    -0.366 N 
HETATM    8  C   UNL     1     -45.311  58.200 -56.115  1.00  0.00     0.126 C 
HETATM    9  C   UNL     1     -44.779  59.053 -54.966  1.00  0.00     0.053 C 
BRANCH   7  10
HETATM   10  C   UNL     1     -44.958  57.912 -58.495  1.00  0.00     0.129 A 
HETATM   11  N   UNL     1     -45.903  58.641 -59.116  1.00  0.00    -0.218 NA
HETATM   12  C   UNL     1     -46.453  58.139 -60.251  1.00  0.00     0.102 A 
HETATM   13  N   UNL     1     -46.109  56.953 -60.771  1.00  0.00    -0.348 N 
HETATM   14  C   UNL     1     -47.528  58.931 -60.924  1.00  0.00     0.091 C 
HETATM   15  C   UNL     1     -45.165  56.206 -60.178  1.00  0.00     0.010 A 
HETATM   16  H   UNL     1     -46.577  56.621 -61.612  1.00  0.00     0.167 HD
HETATM   17  C   UNL     1     -44.818  54.874 -60.759  1.00  0.00     0.068 C 
HETATM   18  C   UNL     1     -44.565  56.683 -59.012  1.00  0.00     0.075 A 
ENDBRANCH   7  10
ENDBRANCH   1   4
BRANCH   1  19
HETATM   19  C   UNL     1     -41.679  57.120 -53.444  1.00  0.00     0.295 C 
BRANCH  19  20
HETATM   20  C   UNL     1     -41.146  55.757 -53.766  1.00  0.00     0.082 A 
HETATM   21  N   UNL     1     -40.737  55.447 -55.002  1.00  0.00    -0.177 NA
HETATM   22  N   UNL     1     -40.369  54.152 -54.913  1.00  0.00    -0.277 N 
HETATM   23  H   UNL     1     -40.011  53.683 -55.740  1.00  0.00     0.189 HD
HETATM   24  C   UNL     1     -40.517  53.620 -53.658  1.00  0.00     0.062 A 
HETATM   25  C   UNL     1     -41.008  54.655 -52.888  1.00  0.00     0.062 A 
BRANCH  24  26
HETATM   26  C   UNL     1     -40.179  52.238 -53.325  1.00  0.00    -0.008 A 
HETATM   27  C   UNL     1     -39.849  51.886 -52.010  1.00  0.00     0.014 A 
HETATM   28  C   UNL     1     -39.519  50.568 -51.687  1.00  0.00     0.001 A 
HETATM   29  C   UNL     1     -39.521  49.585 -52.674  1.00  0.00     0.000 A 
HETATM   30  C   UNL     1     -39.856  49.918 -53.983  1.00  0.00     0.001 A 
HETATM   31  C   UNL     1     -40.183  51.238 -54.309  1.00  0.00     0.014 A 
ENDBRANCH  24  26
ENDBRANCH  19  20
ENDBRANCH   1  19
TORSDOF 5
ENDMDL
MODEL 4
REMARK VINA RESULT:      -8.4      1.686      2.195
REMARK  5 active torsions:
REMARK  status: ('A' for Active; 'I' for Inactive)
REMARK    1  A    between atoms: C_8  and  N_9 
REMARK    2  A    between atoms: C_12  and  N_13 
REMARK    3  A    between atoms: N_13  and  C_15 
REMARK    4  A    between atoms: C_15  and  C_16 
REMARK    5  A    between atoms: C_20  and  C_21 
ROOT
HETATM    1  N   UNL     1     -42.774  56.999 -51.726  1.00  0.00    -0.065 N 
HETATM    2  H   UNL     1     -42.906  56.176 -52.320  1.00  0.00     0.280 HD
HETATM    3  C   UNL     1     -44.120  57.327 -51.108  1.00  0.00     0.270 C 
ENDROOT
BRANCH   1   4
HETATM    4  C   UNL     1     -42.232  58.157 -52.594  1.00  0.00     0.191 C 
HETATM    5  C   UNL     1     -41.325  57.680 -53.738  1.00  0.00     0.053 C 
HETATM    6  C   UNL     1     -42.098  57.001 -54.865  1.00  0.00     0.126 C 
HETATM    7  N   UNL     1     -43.136  57.919 -55.346  1.00  0.00    -0.366 N 
HETATM    8  C   UNL     1     -44.113  58.330 -54.333  1.00  0.00     0.126 C 
HETATM    9  C   UNL     1     -43.379  59.007 -53.178  1.00  0.00     0.053 C 
BRANCH   7  10
HETATM   10  C   UNL     1     -43.672  57.595 -56.599  1.00  0.00     0.129 A 
HETATM   11  N   UNL     1     -42.910  56.959 -57.507  1.00  0.00    -0.218 NA
HETATM   12  C   UNL     1     -43.434  56.738 -58.739  1.00  0.00     0.102 A 
HETATM   13  N   UNL     1     -44.664  57.131 -59.094  1.00  0.00    -0.348 N 
HETATM   14  C   UNL     1     -42.575  56.063 -59.761  1.00  0.00     0.091 C 
HETATM   15  C   UNL     1     -45.451  57.762 -58.209  1.00  0.00     0.010 A 
HETATM   16  H   UNL     1     -44.991  56.957 -60.044  1.00  0.00     0.167 HD
HETATM   17  C   UNL     1     -46.809  58.216 -58.636  1.00  0.00     0.068 C 
HETATM   18  C   UNL     1     -44.960  58.006 -56.927  1.00  0.00     0.075 A 
ENDBRANCH   7  10
ENDBRANCH   1   4
BRANCH   1  19
HETATM   19  C   UNL     1     -41.831  56.525 -50.600  1.00  0.00     0.295 C 
BRANCH  19  20
HETATM   20  C   UNL     1     -41.107  55.228 -50.796  1.00  0.00     0.082 A 
HETATM   21  N   UNL     1     -40.121  54.854 -49.970  1.00  0.00    -0.177 NA
HETATM   22  N   UNL     1     -39.697  53.677 -50.477  1.00  0.00    -0.277 N 
HETATM   23  H   UNL     1     -38.941  53.184 -50.009  1.00  0.00     0.189 HD
HETATM   24  C   UNL     1     -40.382  53.275 -51.593  1.00  0.00     0.062 A 
HETATM   25  C   UNL     1     -41.319  54.266 -51.811  1.00  0.00     0.062 A 
BRANCH  24  26
HETATM   26  C   UNL     1     -40.098  52.034 -52.309  1.00  0.00    -0.008 A 
HETATM   27  C   UNL     1     -40.190  51.984 -53.707  1.00  0.00     0.014 A 
HETATM   28  C   UNL     1     -39.927  50.798 -54.395  1.00  0.00     0.001 A 
HETATM   29  C   UNL     1     -39.562  49.650 -53.697  1.00  0.00     0.000 A 
HETATM   30  C   UNL     1     -39.459  49.686 -52.309  1.00  0.00     0.001 A 
HETATM   31  C   UNL     1     -39.726  50.872 -51.618  1.00  0.00     0.014 A 
ENDBRANCH  24  26
ENDBRANCH  19  20
ENDBRANCH   1  19
TORSDOF 5
ENDMDL
MODEL 5
REMARK VINA RESULT:      -8.3      1.569      2.602
REMARK  5 active torsions:
REMARK  status: ('A' for Active; 'I' for Inactive)
REMARK    1  A    between atoms: C_8  and  N_9 
REMARK    2  A    between atoms: C_12  and  N_13 
REMARK    3  A    between atoms: N_13  and  C_15 
REMARK    4  A    between atoms: C_15  and  C_16 
REMARK    5  A    between atoms: C_20  and  C_21 
ROOT
HETATM    1  N   UNL     1     -43.255  57.585 -52.737  1.00  0.00    -0.065 N 
HETATM    2  H   UNL     1     -43.429  56.797 -53.367  1.00  0.00     0.280 HD
HETATM    3  C   UNL     1     -44.183  57.420 -51.548  1.00  0.00     0.270 C 
ENDROOT
BRANCH   1   4
HETATM    4  C   UNL     1     -43.513  58.901 -53.503  1.00  0.00     0.191 C 
HETATM    5  C   UNL     1     -42.334  59.324 -54.392  1.00  0.00     0.053 C 
HETATM    6  C   UNL     1     -42.189  58.455 -55.639  1.00  0.00     0.126 C 
HETATM    7  N   UNL     1     -43.457  58.473 -56.377  1.00  0.00    -0.366 N 
HETATM    8  C   UNL     1     -44.614  57.973 -55.629  1.00  0.00     0.126 C 
HETATM    9  C   UNL     1     -44.790  58.810 -54.364  1.00  0.00     0.053 C 
BRANCH   7  10
HETATM   10  C   UNL     1     -43.368  58.038 -57.706  1.00  0.00     0.129 A 
HETATM   11  N   UNL     1     -43.811  56.811 -58.038  1.00  0.00    -0.218 NA
HETATM   12  C   UNL     1     -43.631  56.391 -59.315  1.00  0.00     0.102 A 
HETATM   13  N   UNL     1     -43.027  57.133 -60.253  1.00  0.00    -0.348 N 
HETATM   14  C   UNL     1     -44.091  55.015 -59.677  1.00  0.00     0.091 C 
HETATM   15  C   UNL     1     -42.580  58.362 -59.955  1.00  0.00     0.010 A 
HETATM   16  H   UNL     1     -42.901  56.751 -61.189  1.00  0.00     0.167 HD
HETATM   17  C   UNL     1     -41.883  59.160 -61.009  1.00  0.00     0.068 C 
HETATM   18  C   UNL     1     -42.747  58.842 -58.656  1.00  0.00     0.075 A 
ENDBRANCH   7  10
ENDBRANCH   1   4
BRANCH   1  19
HETATM   19  C   UNL     1     -41.806  57.383 -52.246  1.00  0.00     0.295 C 
BRANCH  19  20
HETATM   20  C   UNL     1     -41.342  55.980 -51.996  1.00  0.00     0.082 A 
HETATM   21  N   UNL     1     -40.998  55.573 -50.768  1.00  0.00    -0.177 NA
HETATM   22  N   UNL     1     -40.608  54.293 -50.943  1.00  0.00    -0.277 N 
HETATM   23  H   UNL     1     -40.299  53.757 -50.136  1.00  0.00     0.189 HD
HETATM   24  C   UNL     1     -40.698  53.859 -52.240  1.00  0.00     0.062 A 
HETATM   25  C   UNL     1     -41.191  54.940 -52.943  1.00  0.00     0.062 A 
BRANCH  24  26
HETATM   26  C   UNL     1     -40.333  52.509 -52.665  1.00  0.00    -0.008 A 
HETATM   27  C   UNL     1     -39.794  51.599 -51.746  1.00  0.00     0.014 A 
HETATM   28  C   UNL     1     -39.436  50.310 -52.148  1.00  0.00     0.001 A 
HETATM   29  C   UNL     1     -39.619  49.914 -53.471  1.00  0.00     0.000 A 
HETATM   30  C   UNL     1     -40.161  50.806 -54.393  1.00  0.00     0.001 A 
HETATM   31  C   UNL     1     -40.516  52.097 -53.992  1.00  0.00     0.014 A 
ENDBRANCH  24  26
ENDBRANCH  19  20
ENDBRANCH   1  19
TORSDOF 5
ENDMDL
MODEL 6
REMARK VINA RESULT:      -8.2      3.961      7.203
REMARK  5 active torsions:
REMARK  status: ('A' for Active; 'I' for Inactive)
REMARK    1  A    between atoms: C_8  and  N_9 
REMARK    2  A    between atoms: C_12  and  N_13 
REMARK    3  A    between atoms: N_13  and  C_15 
REMARK    4  A    between atoms: C_15  and  C_16 
REMARK    5  A    between atoms: C_20  and  C_21 
ROOT
HETATM    1  N   UNL     1     -43.096  59.353 -52.483  1.00  0.00    -0.065 N 
HETATM    2  H   UNL     1     -42.756  59.207 -51.528  1.00  0.00     0.280 HD
HETATM    3  C   UNL     1     -41.915  59.820 -53.312  1.00  0.00     0.270 C 
ENDROOT
BRANCH   1   4
HETATM    4  C   UNL     1     -44.236  60.394 -52.451  1.00  0.00     0.191 C 
HETATM    5  C   UNL     1     -45.544  59.842 -51.863  1.00  0.00     0.053 C 
HETATM    6  C   UNL     1     -45.480  59.648 -50.351  1.00  0.00     0.126 C 
HETATM    7  N   UNL     1     -45.103  60.920 -49.727  1.00  0.00    -0.366 N 
HETATM    8  C   UNL     1     -43.806  61.457 -50.152  1.00  0.00     0.126 C 
HETATM    9  C   UNL     1     -43.823  61.657 -51.667  1.00  0.00     0.053 C 
BRANCH   7  10
HETATM   10  C   UNL     1     -45.362  61.000 -48.352  1.00  0.00     0.129 A 
HETATM   11  N   UNL     1     -45.975  59.977 -47.728  1.00  0.00    -0.218 NA
HETATM   12  C   UNL     1     -46.286  60.124 -46.416  1.00  0.00     0.102 A 
HETATM   13  N   UNL     1     -46.023  61.239 -45.720  1.00  0.00    -0.348 N 
HETATM   14  C   UNL     1     -46.999  59.003 -45.729  1.00  0.00     0.091 C 
HETATM   15  C   UNL     1     -45.408  62.273 -46.312  1.00  0.00     0.010 A 
HETATM   16  H   UNL     1     -46.305  61.296 -44.742  1.00  0.00     0.167 HD
HETATM   17  C   UNL     1     -45.151  63.516 -45.524  1.00  0.00     0.068 C 
HETATM   18  C   UNL     1     -45.061  62.167 -47.659  1.00  0.00     0.075 A 
ENDBRANCH   7  10
ENDBRANCH   1   4
BRANCH   1  19
HETATM   19  C   UNL     1     -43.503  57.948 -52.975  1.00  0.00     0.295 C 
BRANCH  19  20
HETATM   20  C   UNL     1     -42.638  56.791 -52.578  1.00  0.00     0.082 A 
HETATM   21  N   UNL     1     -42.005  56.772 -51.398  1.00  0.00    -0.177 NA
HETATM   22  N   UNL     1     -41.311  55.615 -51.415  1.00  0.00    -0.277 N 
HETATM   23  H   UNL     1     -40.744  55.369 -50.608  1.00  0.00     0.189 HD
HETATM   24  C   UNL     1     -41.484  54.882 -52.560  1.00  0.00     0.062 A 
HETATM   25  C   UNL     1     -42.359  55.624 -53.329  1.00  0.00     0.062 A 
BRANCH  24  26
HETATM   26  C   UNL     1     -40.834  53.596 -52.798  1.00  0.00    -0.008 A 
HETATM   27  C   UNL     1     -40.135  52.953 -51.768  1.00  0.00     0.014 A 
HETATM   28  C   UNL     1     -39.506  51.726 -51.992  1.00  0.00     0.001 A 
HETATM   29  C   UNL     1     -39.573  51.125 -53.246  1.00  0.00     0.000 A 
HETATM   30  C   UNL     1     -40.271  51.747 -54.277  1.00  0.00     0.001 A 
HETATM   31  C   UNL     1     -40.898  52.977 -54.055  1.00  0.00     0.014 A 
ENDBRANCH  24  26
ENDBRANCH  19  20
ENDBRANCH   1  19
TORSDOF 5
ENDMDL
MODEL 7
REMARK VINA RESULT:      -8.0      2.293      5.397
REMARK  5 active torsions:
REMARK  status: ('A' for Active; 'I' for Inactive)
REMARK    1  A    between atoms: C_8  and  N_9 
REMARK    2  A    between atoms: C_12  and  N_13 
REMARK    3  A    between atoms: N_13  and  C_15 
REMARK    4  A    between atoms: C_15  and  C_16 
REMARK    5  A    between atoms: C_20  and  C_21 
ROOT
HETATM    1  N   UNL     1     -42.645  57.711 -56.911  1.00  0.00    -0.065 N 
HETATM    2  H   UNL     1     -41.915  57.658 -56.196  1.00  0.00     0.280 HD
HETATM    3  C   UNL     1     -41.950  57.847 -58.253  1.00  0.00     0.270 C 
ENDROOT
BRANCH   1   4
HETATM    4  C   UNL     1     -43.558  58.919 -56.601  1.00  0.00     0.191 C 
HETATM    5  C   UNL     1     -44.568  58.640 -55.478  1.00  0.00     0.053 C 
HETATM    6  C   UNL     1     -43.920  58.587 -54.097  1.00  0.00     0.126 C 
HETATM    7  N   UNL     1     -43.190  59.839 -53.869  1.00  0.00    -0.366 N 
HETATM    8  C   UNL     1     -42.127  60.119 -54.838  1.00  0.00     0.126 C 
HETATM    9  C   UNL     1     -42.731  60.170 -56.240  1.00  0.00     0.053 C 
BRANCH   7  10
HETATM   10  C   UNL     1     -42.863  60.092 -52.530  1.00  0.00     0.129 A 
HETATM   11  N   UNL     1     -41.641  59.768 -52.069  1.00  0.00    -0.218 NA
HETATM   12  C   UNL     1     -41.388  59.949 -50.748  1.00  0.00     0.102 A 
HETATM   13  N   UNL     1     -42.298  60.422 -49.885  1.00  0.00    -0.348 N 
HETATM   14  C   UNL     1     -40.042  59.557 -50.227  1.00  0.00     0.091 C 
HETATM   15  C   UNL     1     -43.523  60.759 -50.315  1.00  0.00     0.010 A 
HETATM   16  H   UNL     1     -42.053  60.511 -48.900  1.00  0.00     0.167 HD
HETATM   17  C   UNL     1     -44.530  61.257 -49.330  1.00  0.00     0.068 C 
HETATM   18  C   UNL     1     -43.829  60.598 -51.667  1.00  0.00     0.075 A 
ENDBRANCH   7  10
ENDBRANCH   1   4
BRANCH   1  19
HETATM   19  C   UNL     1     -43.340  56.334 -56.867  1.00  0.00     0.295 C 
BRANCH  19  20
HETATM   20  C   UNL     1     -42.989  55.410 -55.741  1.00  0.00     0.082 A 
HETATM   21  N   UNL     1     -43.840  55.193 -54.731  1.00  0.00    -0.177 NA
HETATM   22  N   UNL     1     -43.173  54.354 -53.912  1.00  0.00    -0.277 N 
HETATM   23  H   UNL     1     -43.625  54.034 -53.060  1.00  0.00     0.189 HD
HETATM   24  C   UNL     1     -41.925  54.014 -54.365  1.00  0.00     0.062 A 
HETATM   25  C   UNL     1     -41.789  54.681 -55.567  1.00  0.00     0.062 A 
BRANCH  24  26
HETATM   26  C   UNL     1     -41.024  53.117 -53.645  1.00  0.00    -0.008 A 
HETATM   27  C   UNL     1     -40.740  53.335 -52.290  1.00  0.00     0.014 A 
HETATM   28  C   UNL     1     -39.875  52.485 -51.599  1.00  0.00     0.001 A 
HETATM   29  C   UNL     1     -39.287  51.404 -52.251  1.00  0.00     0.000 A 
HETATM   30  C   UNL     1     -39.565  51.171 -53.596  1.00  0.00     0.001 A 
HETATM   31  C   UNL     1     -40.429  52.023 -54.290  1.00  0.00     0.014 A 
ENDBRANCH  24  26
ENDBRANCH  19  20
ENDBRANCH   1  19
TORSDOF 5
ENDMDL
MODEL 8
REMARK VINA RESULT:      -7.9      1.505      1.892
REMARK  5 active torsions:
REMARK  status: ('A' for Active; 'I' for Inactive)
REMARK    1  A    between atoms: C_8  and  N_9 
REMARK    2  A    between atoms: C_12  and  N_13 
REMARK    3  A    between atoms: N_13  and  C_15 
REMARK    4  A    between atoms: C_15  and  C_16 
REMARK    5  A    between atoms: C_20  and  C_21 
ROOT
HETATM    1  N   UNL     1     -43.461  58.533 -52.332  1.00  0.00    -0.065 N 
HETATM    2  H   UNL     1     -43.731  57.755 -52.940  1.00  0.00     0.280 HD
HETATM    3  C   UNL     1     -44.631  58.804 -51.406  1.00  0.00     0.270 C 
ENDROOT
BRANCH   1   4
HETATM    4  C   UNL     1     -43.117  59.755 -53.213  1.00  0.00     0.191 C 
HETATM    5  C   UNL     1     -41.767  59.620 -53.933  1.00  0.00     0.053 C 
HETATM    6  C   UNL     1     -41.805  58.616 -55.082  1.00  0.00     0.126 C 
HETATM    7  N   UNL     1     -42.875  59.000 -56.009  1.00  0.00    -0.366 N 
HETATM    8  C   UNL     1     -44.217  59.039 -55.420  1.00  0.00     0.126 C 
HETATM    9  C   UNL     1     -44.222  60.026 -54.255  1.00  0.00     0.053 C 
BRANCH   7  10
HETATM   10  C   UNL     1     -42.794  58.409 -57.277  1.00  0.00     0.129 A 
HETATM   11  N   UNL     1     -42.362  59.134 -58.325  1.00  0.00    -0.218 NA
HETATM   12  C   UNL     1     -42.378  58.555 -59.552  1.00  0.00     0.102 A 
HETATM   13  N   UNL     1     -42.811  57.306 -59.768  1.00  0.00    -0.348 N 
HETATM   14  C   UNL     1     -41.930  59.371 -60.723  1.00  0.00     0.091 C 
HETATM   15  C   UNL     1     -43.243  56.556 -58.743  1.00  0.00     0.010 A 
HETATM   16  H   UNL     1     -42.821  56.937 -60.718  1.00  0.00     0.167 HD
HETATM   17  C   UNL     1     -43.749  55.176 -59.012  1.00  0.00     0.068 C 
HETATM   18  C   UNL     1     -43.239  57.104 -57.461  1.00  0.00     0.075 A 
ENDBRANCH   7  10
ENDBRANCH   1   4
BRANCH   1  19
HETATM   19  C   UNL     1     -42.294  57.985 -51.485  1.00  0.00     0.295 C 
BRANCH  19  20
HETATM   20  C   UNL     1     -42.058  56.505 -51.495  1.00  0.00     0.082 A 
HETATM   21  N   UNL     1     -42.579  55.714 -50.548  1.00  0.00    -0.177 NA
HETATM   22  N   UNL     1     -42.129  54.482 -50.864  1.00  0.00    -0.277 N 
HETATM   23  H   UNL     1     -42.399  53.694 -50.282  1.00  0.00     0.189 HD
HETATM   24  C   UNL     1     -41.344  54.450 -51.988  1.00  0.00     0.062 A 
HETATM   25  C   UNL     1     -41.297  55.759 -52.426  1.00  0.00     0.062 A 
BRANCH  24  26
HETATM   26  C   UNL     1     -40.749  53.227 -52.520  1.00  0.00    -0.008 A 
HETATM   27  C   UNL     1     -40.963  52.856 -53.854  1.00  0.00     0.014 A 
HETATM   28  C   UNL     1     -40.402  51.684 -54.366  1.00  0.00     0.001 A 
HETATM   29  C   UNL     1     -39.616  50.872 -53.553  1.00  0.00     0.000 A 
HETATM   30  C   UNL     1     -39.387  51.232 -52.227  1.00  0.00     0.001 A 
HETATM   31  C   UNL     1     -39.951  52.403 -51.712  1.00  0.00     0.014 A 
ENDBRANCH  24  26
ENDBRANCH  19  20
ENDBRANCH   1  19
TORSDOF 5
ENDMDL
MODEL 9
REMARK VINA RESULT:      -7.8      2.227      5.249
REMARK  5 active torsions:
REMARK  status: ('A' for Active; 'I' for Inactive)
REMARK    1  A    between atoms: C_8  and  N_9 
REMARK    2  A    between atoms: C_12  and  N_13 
REMARK    3  A    between atoms: N_13  and  C_15 
REMARK    4  A    between atoms: C_15  and  C_16 
REMARK    5  A    between atoms: C_20  and  C_21 
ROOT
HETATM    1  N   UNL     1     -44.124  58.197 -56.434  1.00  0.00    -0.065 N 
HETATM    2  H   UNL     1     -43.243  58.004 -56.919  1.00  0.00     0.280 HD
HETATM    3  C   UNL     1     -45.214  58.246 -57.487  1.00  0.00     0.270 C 
ENDROOT
BRANCH   1   4
HETATM    4  C   UNL     1     -43.988  59.533 -55.671  1.00  0.00     0.191 C 
HETATM    5  C   UNL     1     -44.615  59.494 -54.269  1.00  0.00     0.053 C 
HETATM    6  C   UNL     1     -43.797  58.674 -53.275  1.00  0.00     0.126 C 
HETATM    7  N   UNL     1     -42.428  59.201 -53.241  1.00  0.00    -0.366 N 
HETATM    8  C   UNL     1     -41.720  59.164 -54.524  1.00  0.00     0.126 C 
HETATM    9  C   UNL     1     -42.512  59.967 -55.554  1.00  0.00     0.053 C 
BRANCH   7  10
HETATM   10  C   UNL     1     -41.674  58.804 -52.128  1.00  0.00     0.129 A 
HETATM   11  N   UNL     1     -40.607  59.532 -51.751  1.00  0.00    -0.218 NA
HETATM   12  C   UNL     1     -39.851  59.072 -50.723  1.00  0.00     0.102 A 
HETATM   13  N   UNL     1     -40.110  57.927 -50.077  1.00  0.00    -0.348 N 
HETATM   14  C   UNL     1     -38.644  59.861 -50.325  1.00  0.00     0.091 C 
HETATM   15  C   UNL     1     -41.170  57.182 -50.425  1.00  0.00     0.010 A 
HETATM   16  H   UNL     1     -39.489  57.624 -49.328  1.00  0.00     0.167 HD
HETATM   17  C   UNL     1     -41.423  55.895 -49.710  1.00  0.00     0.068 C 
HETATM   18  C   UNL     1     -41.982  57.617 -51.472  1.00  0.00     0.075 A 
ENDBRANCH   7  10
ENDBRANCH   1   4
BRANCH   1  19
HETATM   19  C   UNL     1     -44.366  56.956 -55.549  1.00  0.00     0.295 C 
BRANCH  19  20
HETATM   20  C   UNL     1     -43.236  55.985 -55.385  1.00  0.00     0.082 A 
HETATM   21  N   UNL     1     -42.405  55.711 -56.398  1.00  0.00    -0.177 NA
HETATM   22  N   UNL     1     -41.562  54.787 -55.891  1.00  0.00    -0.277 N 
HETATM   23  H   UNL     1     -40.822  54.419 -56.483  1.00  0.00     0.189 HD
HETATM   24  C   UNL     1     -41.815  54.464 -54.584  1.00  0.00     0.062 A 
HETATM   25  C   UNL     1     -42.896  55.246 -54.227  1.00  0.00     0.062 A 
BRANCH  24  26
HETATM   26  C   UNL     1     -41.030  53.490 -53.829  1.00  0.00    -0.008 A 
HETATM   27  C   UNL     1     -40.896  53.612 -52.439  1.00  0.00     0.014 A 
HETATM   28  C   UNL     1     -40.142  52.688 -51.713  1.00  0.00     0.001 A 
HETATM   29  C   UNL     1     -39.517  51.628 -52.366  1.00  0.00     0.000 A 
HETATM   30  C   UNL     1     -39.649  51.489 -53.745  1.00  0.00     0.001 A 
HETATM   31  C   UNL     1     -40.401  52.415 -54.474  1.00  0.00     0.014 A 
ENDBRANCH  24  26
ENDBRANCH  19  20
ENDBRANCH   1  19
TORSDOF 5
ENDMDL
MODEL 10
REMARK VINA RESULT:      -7.8      3.788      6.134
REMARK  5 active torsions:
REMARK  status: ('A' for Active; 'I' for Inactive)
REMARK    1  A    between atoms: C_8  and  N_9 
REMARK    2  A    between atoms: C_12  and  N_13 
REMARK    3  A    between atoms: N_13  and  C_15 
REMARK    4  A    between atoms: C_15  and  C_16 
REMARK    5  A    between atoms: C_20  and  C_21 
ROOT
HETATM    1  N   UNL     1     -42.419  57.836 -50.940  1.00  0.00    -0.065 N 
HETATM    2  H   UNL     1     -42.956  57.939 -50.075  1.00  0.00     0.280 HD
HETATM    3  C   UNL     1     -41.004  57.458 -50.547  1.00  0.00     0.270 C 
ENDROOT
BRANCH   1   4
HETATM    4  C   UNL     1     -42.473  59.169 -51.720  1.00  0.00     0.191 C 
HETATM    5  C   UNL     1     -43.833  59.423 -52.387  1.00  0.00     0.053 C 
HETATM    6  C   UNL     1     -44.925  59.793 -51.388  1.00  0.00     0.126 C 
HETATM    7  N   UNL     1     -44.480  60.954 -50.610  1.00  0.00    -0.366 N 
HETATM    8  C   UNL     1     -43.244  60.750 -49.848  1.00  0.00     0.126 C 
HETATM    9  C   UNL     1     -42.123  60.366 -50.812  1.00  0.00     0.053 C 
BRANCH   7  10
HETATM   10  C   UNL     1     -45.500  61.629 -49.926  1.00  0.00     0.129 A 
HETATM   11  N   UNL     1     -46.311  62.468 -50.597  1.00  0.00    -0.218 NA
HETATM   12  C   UNL     1     -47.232  63.169 -49.888  1.00  0.00     0.102 A 
HETATM   13  N   UNL     1     -47.362  63.073 -48.558  1.00  0.00    -0.348 N 
HETATM   14  C   UNL     1     -48.111  64.128 -50.627  1.00  0.00     0.091 C 
HETATM   15  C   UNL     1     -46.573  62.241 -47.862  1.00  0.00     0.010 A 
HETATM   16  H   UNL     1     -48.058  63.645 -48.081  1.00  0.00     0.167 HD
HETATM   17  C   UNL     1     -46.717  62.172 -46.377  1.00  0.00     0.068 C 
HETATM   18  C   UNL     1     -45.615  61.493 -48.547  1.00  0.00     0.075 A 
ENDBRANCH   7  10
ENDBRANCH   1   4
BRANCH   1  19
HETATM   19  C   UNL     1     -43.056  56.628 -51.658  1.00  0.00     0.295 C 
BRANCH  19  20
HETATM   20  C   UNL     1     -42.138  55.626 -52.288  1.00  0.00     0.082 A 
HETATM   21  N   UNL     1     -41.349  55.960 -53.318  1.00  0.00    -0.177 NA
HETATM   22  N   UNL     1     -40.711  54.812 -53.629  1.00  0.00    -0.277 N 
HETATM   23  H   UNL     1     -40.040  54.813 -54.392  1.00  0.00     0.189 HD
HETATM   24  C   UNL     1     -41.054  53.753 -52.829  1.00  0.00     0.062 A 
HETATM   25  C   UNL     1     -41.973  54.265 -51.935  1.00  0.00     0.062 A 
BRANCH  24  26
HETATM   26  C   UNL     1     -40.488  52.414 -52.980  1.00  0.00    -0.008 A 
HETATM   27  C   UNL     1     -40.515  51.769 -54.223  1.00  0.00     0.014 A 
HETATM   28  C   UNL     1     -39.983  50.487 -54.371  1.00  0.00     0.001 A 
HETATM   29  C   UNL     1     -39.411  49.837 -53.280  1.00  0.00     0.000 A 
HETATM   30  C   UNL     1     -39.369  50.469 -52.041  1.00  0.00     0.001 A 
HETATM   31  C   UNL     1     -39.905  51.751 -51.890  1.00  0.00     0.014 A 
ENDBRANCH  24  26
ENDBRANCH  19  20
ENDBRANCH   1  19
TORSDOF 5
ENDMDL
