MODEL 1
REMARK VINA RESULT:      -9.2      0.000      0.000
REMARK  7 active torsions:
REMARK  status: ('A' for Active; 'I' for Inactive)
REMARK    1  A    between atoms: C_3  and  C_4 
REMARK    2  A    between atoms: C_4  and  S_5 
REMARK    3  A    between atoms: S_5  and  C_6 
REMARK    4  A    between atoms: C_6  and  C_7 
REMARK    5  A    between atoms: C_16  and  C_17 
REMARK       I    between atoms: C_17  and  N_18 
REMARK    6  A    between atoms: N_18  and  C_19 
REMARK    7  A    between atoms: C_19  and  C_20 
ROOT
HETATM    1  C   UNL     1     -42.102  56.009 -50.314  1.00  0.00     0.162 C 
HETATM    2  N   UNL     1     -41.226  56.483 -51.415  1.00  0.00    -0.277 NA
HETATM    3  C   UNL     1     -41.932  56.919 -52.553  1.00  0.00     0.036 A 
HETATM    4  C   UNL     1     -43.221  56.446 -52.859  1.00  0.00     0.057 A 
HETATM    5  N   UNL     1     -43.836  55.522 -52.005  1.00  0.00    -0.324 N 
HETATM    6  C   UNL     1     -43.283  55.148 -50.805  1.00  0.00     0.240 C 
HETATM    7  O   UNL     1     -43.794  54.250 -50.138  1.00  0.00    -0.271 OA
HETATM    8  C   UNL     1     -41.279  57.737 -53.477  1.00  0.00     0.027 A 
HETATM    9  C   UNL     1     -41.932  58.151 -54.640  1.00  0.00     0.019 A 
HETATM   10  C   UNL     1     -43.243  57.731 -54.903  1.00  0.00     0.034 A 
HETATM   11  C   UNL     1     -43.879  56.846 -54.024  1.00  0.00     0.048 A 
HETATM   12  H   UNL     1     -40.552  55.767 -51.687  1.00  0.00     0.128 HD
HETATM   13  H   UNL     1     -44.685  55.047 -52.280  1.00  0.00     0.169 HD
ENDROOT
BRANCH  10  14
HETATM   14  C   UNL     1     -43.913  58.242 -56.131  1.00  0.00     0.252 C 
HETATM   15  N   UNL     1     -43.196  58.137 -57.303  1.00  0.00    -0.353 N 
HETATM   16  H   UNL     1     -42.390  57.528 -57.320  1.00  0.00     0.163 HD
HETATM   17  O   UNL     1     -45.056  58.679 -56.073  1.00  0.00    -0.268 OA
BRANCH  15  18
HETATM   18  C   UNL     1     -43.829  58.381 -58.581  1.00  0.00     0.163 C 
BRANCH  18  19
HETATM   19  C   UNL     1     -44.369  57.110 -59.185  1.00  0.00    -0.019 A 
HETATM   20  C   UNL     1     -45.589  57.052 -59.880  1.00  0.00     0.042 A 
HETATM   21 CL   UNL     1     -46.587  58.450 -60.082  1.00  0.00    -0.084 Cl
HETATM   22  C   UNL     1     -46.044  55.847 -60.426  1.00  0.00     0.024 A 
HETATM   23  C   UNL     1     -45.287  54.685 -60.286  1.00  0.00     0.002 A 
HETATM   24  C   UNL     1     -44.078  54.724 -59.599  1.00  0.00     0.001 A 
HETATM   25  C   UNL     1     -43.624  55.925 -59.051  1.00  0.00     0.010 A 
ENDBRANCH  18  19
ENDBRANCH  15  18
ENDBRANCH  10  14
BRANCH   1  26
HETATM   26  C   UNL     1     -41.305  55.242 -49.244  1.00  0.00     0.103 C 
BRANCH  26  27
HETATM   27  S   UNL     1     -39.763  54.434 -49.826  1.00  0.00    -0.162 SA
BRANCH  27  28
HETATM   28  C   UNL     1     -40.405  52.769 -50.187  1.00  0.00     0.112 C 
BRANCH  28  29
HETATM   29  C   UNL     1     -40.238  52.399 -51.643  1.00  0.00    -0.043 A 
HETATM   30  C   UNL     1     -39.766  51.131 -52.050  1.00  0.00    -0.055 A 
HETATM   31  C   UNL     1     -39.406  50.054 -51.061  1.00  0.00     0.049 C 
HETATM   32  C   UNL     1     -39.674  50.842 -53.422  1.00  0.00     0.007 A 
HETATM   33  C   UNL     1     -40.013  51.796 -54.380  1.00  0.00     0.001 A 
HETATM   34  C   UNL     1     -40.450  53.055 -53.982  1.00  0.00     0.001 A 
HETATM   35  C   UNL     1     -40.561  53.354 -52.624  1.00  0.00     0.008 A 
ENDBRANCH  28  29
ENDBRANCH  27  28
ENDBRANCH  26  27
ENDBRANCH   1  26
TORSDOF 7
ENDMDL
MODEL 2
REMARK VINA RESULT:      -8.9      1.874      2.397
REMARK  7 active torsions:
REMARK  status: ('A' for Active; 'I' for Inactive)
REMARK    1  A    between atoms: C_3  and  C_4 
REMARK    2  A    between atoms: C_4  and  S_5 
REMARK    3  A    between atoms: S_5  and  C_6 
REMARK    4  A    between atoms: C_6  and  C_7 
REMARK    5  A    between atoms: C_16  and  C_17 
REMARK       I    between atoms: C_17  and  N_18 
REMARK    6  A    between atoms: N_18  and  C_19 
REMARK    7  A    between atoms: C_19  and  C_20 
ROOT
HETATM    1  C   UNL     1     -41.252  55.156 -51.540  1.00  0.00     0.162 C 
HETATM    2  N   UNL     1     -42.180  54.563 -52.534  1.00  0.00    -0.277 NA
HETATM    3  C   UNL     1     -42.245  55.277 -53.747  1.00  0.00     0.036 A 
HETATM    4  C   UNL     1     -41.947  56.650 -53.821  1.00  0.00     0.057 A 
HETATM    5  N   UNL     1     -41.562  57.335 -52.662  1.00  0.00    -0.324 N 
HETATM    6  C   UNL     1     -41.339  56.694 -51.468  1.00  0.00     0.240 C 
HETATM    7  O   UNL     1     -41.115  57.342 -50.447  1.00  0.00    -0.271 OA
HETATM    8  C   UNL     1     -42.753  54.637 -54.878  1.00  0.00     0.027 A 
HETATM    9  C   UNL     1     -42.874  55.327 -56.087  1.00  0.00     0.019 A 
HETATM   10  C   UNL     1     -42.509  56.677 -56.169  1.00  0.00     0.034 A 
HETATM   11  C   UNL     1     -42.075  57.352 -55.022  1.00  0.00     0.048 A 
HETATM   12  H   UNL     1     -43.121  54.463 -52.150  1.00  0.00     0.128 HD
HETATM   13  H   UNL     1     -41.500  58.344 -52.652  1.00  0.00     0.169 HD
ENDROOT
BRANCH  10  14
HETATM   14  C   UNL     1     -42.609  57.354 -57.493  1.00  0.00     0.252 C 
HETATM   15  N   UNL     1     -42.568  56.533 -58.599  1.00  0.00    -0.353 N 
HETATM   16  H   UNL     1     -42.711  55.541 -58.467  1.00  0.00     0.163 HD
HETATM   17  O   UNL     1     -42.767  58.567 -57.554  1.00  0.00    -0.268 OA
BRANCH  15  18
HETATM   18  C   UNL     1     -42.889  57.047 -59.913  1.00  0.00     0.163 C 
BRANCH  18  19
HETATM   19  C   UNL     1     -44.379  57.133 -60.127  1.00  0.00    -0.019 A 
HETATM   20  C   UNL     1     -45.214  56.004 -60.153  1.00  0.00     0.042 A 
HETATM   21 CL   UNL     1     -44.587  54.405 -59.958  1.00  0.00    -0.084 Cl
HETATM   22  C   UNL     1     -46.592  56.140 -60.351  1.00  0.00     0.024 A 
HETATM   23  C   UNL     1     -47.154  57.404 -60.524  1.00  0.00     0.002 A 
HETATM   24  C   UNL     1     -46.340  58.532 -60.503  1.00  0.00     0.001 A 
HETATM   25  C   UNL     1     -44.965  58.399 -60.310  1.00  0.00     0.010 A 
ENDBRANCH  18  19
ENDBRANCH  15  18
ENDBRANCH  10  14
BRANCH   1  26
HETATM   26  C   UNL     1     -41.459  54.555 -50.139  1.00  0.00     0.103 C 
BRANCH  26  27
HETATM   27  S   UNL     1     -40.931  52.809 -49.934  1.00  0.00    -0.162 SA
BRANCH  27  28
HETATM   28  C   UNL     1     -39.497  52.789 -51.057  1.00  0.00     0.112 C 
BRANCH  28  29
HETATM   29  C   UNL     1     -39.676  51.804 -52.189  1.00  0.00    -0.043 A 
HETATM   30  C   UNL     1     -39.562  50.408 -52.000  1.00  0.00    -0.055 A 
HETATM   31  C   UNL     1     -39.266  49.802 -50.654  1.00  0.00     0.049 C 
HETATM   32  C   UNL     1     -39.781  49.549 -53.090  1.00  0.00     0.007 A 
HETATM   33  C   UNL     1     -40.077  50.055 -54.355  1.00  0.00     0.001 A 
HETATM   34  C   UNL     1     -40.161  51.430 -54.550  1.00  0.00     0.001 A 
HETATM   35  C   UNL     1     -39.961  52.297 -53.476  1.00  0.00     0.008 A 
ENDBRANCH  28  29
ENDBRANCH  27  28
ENDBRANCH  26  27
ENDBRANCH   1  26
TORSDOF 7
ENDMDL
MODEL 3
REMARK VINA RESULT:      -8.7      3.049      4.383
REMARK  7 active torsions:
REMARK  status: ('A' for Active; 'I' for Inactive)
REMARK    1  A    between atoms: C_3  and  C_4 
REMARK    2  A    between atoms: C_4  and  S_5 
REMARK    3  A    between atoms: S_5  and  C_6 
REMARK    4  A    between atoms: C_6  and  C_7 
REMARK    5  A    between atoms: C_16  and  C_17 
REMARK       I    between atoms: C_17  and  N_18 
REMARK    6  A    between atoms: N_18  and  C_19 
REMARK    7  A    between atoms: C_19  and  C_20 
ROOT
HETATM    1  C   UNL     1     -41.766  56.147 -52.953  1.00  0.00     0.162 C 
HETATM    2  N   UNL     1     -42.557  55.360 -53.931  1.00  0.00    -0.277 NA
HETATM    3  C   UNL     1     -42.570  55.912 -55.227  1.00  0.00     0.036 A 
HETATM    4  C   UNL     1     -42.371  57.286 -55.455  1.00  0.00     0.057 A 
HETATM    5  N   UNL     1     -42.140  58.138 -54.367  1.00  0.00    -0.324 N 
HETATM    6  C   UNL     1     -41.975  57.669 -53.087  1.00  0.00     0.240 C 
HETATM    7  O   UNL     1     -41.889  58.453 -52.144  1.00  0.00    -0.271 OA
HETATM    8  C   UNL     1     -42.928  55.096 -56.302  1.00  0.00     0.027 A 
HETATM    9  C   UNL     1     -42.995  55.621 -57.595  1.00  0.00     0.019 A 
HETATM   10  C   UNL     1     -42.727  56.977 -57.822  1.00  0.00     0.034 A 
HETATM   11  C   UNL     1     -42.447  57.822 -56.742  1.00  0.00     0.048 A 
HETATM   12  H   UNL     1     -43.517  55.227 -53.610  1.00  0.00     0.128 HD
HETATM   13  H   UNL     1     -42.155  59.142 -54.483  1.00  0.00     0.169 HD
ENDROOT
BRANCH  10  14
HETATM   14  C   UNL     1     -42.762  57.476 -59.226  1.00  0.00     0.252 C 
HETATM   15  N   UNL     1     -43.127  58.794 -59.393  1.00  0.00    -0.353 N 
HETATM   16  H   UNL     1     -43.118  59.401 -58.585  1.00  0.00     0.163 HD
HETATM   17  O   UNL     1     -42.431  56.742 -60.149  1.00  0.00    -0.268 OA
BRANCH  15  18
HETATM   18  C   UNL     1     -42.970  59.448 -60.674  1.00  0.00     0.163 C 
BRANCH  18  19
HETATM   19  C   UNL     1     -42.046  60.635 -60.584  1.00  0.00    -0.019 A 
HETATM   20  C   UNL     1     -41.723  61.439 -61.690  1.00  0.00     0.042 A 
HETATM   21 CL   UNL     1     -42.355  61.112 -63.266  1.00  0.00    -0.084 Cl
HETATM   22  C   UNL     1     -40.863  62.533 -61.551  1.00  0.00     0.024 A 
HETATM   23  C   UNL     1     -40.314  62.839 -60.306  1.00  0.00     0.002 A 
HETATM   24  C   UNL     1     -40.622  62.052 -59.201  1.00  0.00     0.001 A 
HETATM   25  C   UNL     1     -41.477  60.958 -59.338  1.00  0.00     0.010 A 
ENDBRANCH  18  19
ENDBRANCH  15  18
ENDBRANCH  10  14
BRANCH   1  26
HETATM   26  C   UNL     1     -42.049  55.707 -51.506  1.00  0.00     0.103 C 
BRANCH  26  27
HETATM   27  S   UNL     1     -41.952  53.901 -51.190  1.00  0.00    -0.162 SA
BRANCH  27  28
HETATM   28  C   UNL     1     -40.222  53.597 -51.671  1.00  0.00     0.112 C 
BRANCH  28  29
HETATM   29  C   UNL     1     -40.010  52.183 -52.164  1.00  0.00    -0.043 A 
HETATM   30  C   UNL     1     -39.998  51.858 -53.538  1.00  0.00    -0.055 A 
HETATM   31  C   UNL     1     -40.184  52.898 -54.611  1.00  0.00     0.049 C 
HETATM   32  C   UNL     1     -39.755  50.529 -53.926  1.00  0.00     0.007 A 
HETATM   33  C   UNL     1     -39.556  49.529 -52.975  1.00  0.00     0.001 A 
HETATM   34  C   UNL     1     -39.596  49.842 -51.620  1.00  0.00     0.001 A 
HETATM   35  C   UNL     1     -39.822  51.158 -51.218  1.00  0.00     0.008 A 
ENDBRANCH  28  29
ENDBRANCH  27  28
ENDBRANCH  26  27
ENDBRANCH   1  26
TORSDOF 7
ENDMDL
MODEL 4
REMARK VINA RESULT:      -8.5      4.505      9.657
REMARK  7 active torsions:
REMARK  status: ('A' for Active; 'I' for Inactive)
REMARK    1  A    between atoms: C_3  and  C_4 
REMARK    2  A    between atoms: C_4  and  S_5 
REMARK    3  A    between atoms: S_5  and  C_6 
REMARK    4  A    between atoms: C_6  and  C_7 
REMARK    5  A    between atoms: C_16  and  C_17 
REMARK       I    between atoms: C_17  and  N_18 
REMARK    6  A    between atoms: N_18  and  C_19 
REMARK    7  A    between atoms: C_19  and  C_20 
ROOT
HETATM    1  C   UNL     1     -43.688  58.037 -58.688  1.00  0.00     0.162 C 
HETATM    2  N   UNL     1     -44.510  57.906 -57.460  1.00  0.00    -0.277 NA
HETATM    3  C   UNL     1     -43.942  57.062 -56.485  1.00  0.00     0.036 A 
HETATM    4  C   UNL     1     -43.043  56.033 -56.821  1.00  0.00     0.057 A 
HETATM    5  N   UNL     1     -42.685  55.842 -58.161  1.00  0.00    -0.324 N 
HETATM    6  C   UNL     1     -43.079  56.701 -59.158  1.00  0.00     0.240 C 
HETATM    7  O   UNL     1     -42.841  56.437 -60.335  1.00  0.00    -0.271 OA
HETATM    8  C   UNL     1     -44.392  57.159 -55.167  1.00  0.00     0.027 A 
HETATM    9  C   UNL     1     -43.885  56.307 -54.183  1.00  0.00     0.019 A 
HETATM   10  C   UNL     1     -42.936  55.330 -54.514  1.00  0.00     0.034 A 
HETATM   11  C   UNL     1     -42.539  55.170 -55.846  1.00  0.00     0.048 A 
HETATM   12  H   UNL     1     -45.454  57.585 -57.677  1.00  0.00     0.128 HD
HETATM   13  H   UNL     1     -42.173  55.019 -58.449  1.00  0.00     0.169 HD
ENDROOT
BRANCH  10  14
HETATM   14  C   UNL     1     -42.389  54.481 -53.418  1.00  0.00     0.252 C 
HETATM   15  N   UNL     1     -41.040  54.207 -53.479  1.00  0.00    -0.353 N 
HETATM   16  H   UNL     1     -40.464  54.764 -54.095  1.00  0.00     0.163 HD
HETATM   17  O   UNL     1     -43.116  54.108 -52.506  1.00  0.00    -0.268 OA
BRANCH  15  18
HETATM   18  C   UNL     1     -40.358  53.596 -52.359  1.00  0.00     0.163 C 
BRANCH  18  19
HETATM   19  C   UNL     1     -40.048  52.145 -52.621  1.00  0.00    -0.019 A 
HETATM   20  C   UNL     1     -40.008  51.176 -51.604  1.00  0.00     0.042 A 
HETATM   21 CL   UNL     1     -40.296  51.583 -49.949  1.00  0.00    -0.084 Cl
HETATM   22  C   UNL     1     -39.719  49.840 -51.901  1.00  0.00     0.024 A 
HETATM   23  C   UNL     1     -39.468  49.453 -53.217  1.00  0.00     0.002 A 
HETATM   24  C   UNL     1     -39.501  50.401 -54.236  1.00  0.00     0.001 A 
HETATM   25  C   UNL     1     -39.786  51.735 -53.941  1.00  0.00     0.010 A 
ENDBRANCH  18  19
ENDBRANCH  15  18
ENDBRANCH  10  14
BRANCH   1  26
HETATM   26  C   UNL     1     -44.483  58.681 -59.838  1.00  0.00     0.103 C 
BRANCH  26  27
HETATM   27  S   UNL     1     -43.976  60.383 -60.301  1.00  0.00    -0.162 SA
BRANCH  27  28
HETATM   28  C   UNL     1     -42.217  60.090 -60.670  1.00  0.00     0.112 C 
BRANCH  28  29
HETATM   29  C   UNL     1     -41.364  61.302 -60.369  1.00  0.00    -0.043 A 
HETATM   30  C   UNL     1     -41.028  61.679 -59.049  1.00  0.00    -0.055 A 
HETATM   31  C   UNL     1     -41.487  60.894 -57.849  1.00  0.00     0.049 C 
HETATM   32  C   UNL     1     -40.198  62.794 -58.846  1.00  0.00     0.007 A 
HETATM   33  C   UNL     1     -39.729  63.546 -59.922  1.00  0.00     0.001 A 
HETATM   34  C   UNL     1     -40.082  63.194 -61.221  1.00  0.00     0.001 A 
HETATM   35  C   UNL     1     -40.894  62.081 -61.442  1.00  0.00     0.008 A 
ENDBRANCH  28  29
ENDBRANCH  27  28
ENDBRANCH  26  27
ENDBRANCH   1  26
TORSDOF 7
ENDMDL
MODEL 5
REMARK VINA RESULT:      -8.3      1.383      2.127
REMARK  7 active torsions:
REMARK  status: ('A' for Active; 'I' for Inactive)
REMARK    1  A    between atoms: C_3  and  C_4 
REMARK    2  A    between atoms: C_4  and  S_5 
REMARK    3  A    between atoms: S_5  and  C_6 
REMARK    4  A    between atoms: C_6  and  C_7 
REMARK    5  A    between atoms: C_16  and  C_17 
REMARK       I    between atoms: C_17  and  N_18 
REMARK    6  A    between atoms: N_18  and  C_19 
REMARK    7  A    between atoms: C_19  and  C_20 
ROOT
HETATM    1  C   UNL     1     -41.248  55.791 -51.272  1.00  0.00     0.162 C 
HETATM    2  N   UNL     1     -42.348  55.225 -52.092  1.00  0.00    -0.277 NA
HETATM    3  C   UNL     1     -42.689  56.016 -53.207  1.00  0.00     0.036 A 
HETATM    4  C   UNL     1     -42.456  57.402 -53.238  1.00  0.00     0.057 A 
HETATM    5  N   UNL     1     -41.854  58.025 -52.137  1.00  0.00    -0.324 N 
HETATM    6  C   UNL     1     -41.365  57.315 -51.068  1.00  0.00     0.240 C 
HETATM    7  O   UNL     1     -40.949  57.902 -50.070  1.00  0.00    -0.271 OA
HETATM    8  C   UNL     1     -43.406  55.430 -54.252  1.00  0.00     0.027 A 
HETATM    9  C   UNL     1     -43.801  56.195 -55.353  1.00  0.00     0.019 A 
HETATM   10  C   UNL     1     -43.503  57.562 -55.408  1.00  0.00     0.034 A 
HETATM   11  C   UNL     1     -42.857  58.177 -54.329  1.00  0.00     0.048 A 
HETATM   12  H   UNL     1     -43.182  55.056 -51.528  1.00  0.00     0.128 HD
HETATM   13  H   UNL     1     -41.822  59.033 -52.064  1.00  0.00     0.169 HD
ENDROOT
BRANCH  10  14
HETATM   14  C   UNL     1     -43.901  58.321 -56.626  1.00  0.00     0.252 C 
HETATM   15  N   UNL     1     -43.148  58.092 -57.757  1.00  0.00    -0.353 N 
HETATM   16  H   UNL     1     -42.546  57.281 -57.777  1.00  0.00     0.163 HD
HETATM   17  O   UNL     1     -44.878  59.061 -56.600  1.00  0.00    -0.268 OA
BRANCH  15  18
HETATM   18  C   UNL     1     -43.581  58.588 -59.046  1.00  0.00     0.163 C 
BRANCH  18  19
HETATM   19  C   UNL     1     -44.548  57.641 -59.709  1.00  0.00    -0.019 A 
HETATM   20  C   UNL     1     -45.892  57.970 -59.957  1.00  0.00     0.042 A 
HETATM   21 CL   UNL     1     -46.553  59.500 -59.495  1.00  0.00    -0.084 Cl
HETATM   22  C   UNL     1     -46.748  57.056 -60.580  1.00  0.00     0.024 A 
HETATM   23  C   UNL     1     -46.274  55.803 -60.966  1.00  0.00     0.002 A 
HETATM   24  C   UNL     1     -44.947  55.461 -60.726  1.00  0.00     0.001 A 
HETATM   25  C   UNL     1     -44.092  56.369 -60.101  1.00  0.00     0.010 A 
ENDBRANCH  18  19
ENDBRANCH  15  18
ENDBRANCH  10  14
BRANCH   1  26
HETATM   26  C   UNL     1     -41.136  55.089 -49.908  1.00  0.00     0.103 C 
BRANCH  26  27
HETATM   27  S   UNL     1     -40.787  53.287 -49.966  1.00  0.00    -0.162 SA
BRANCH  27  28
HETATM   28  C   UNL     1     -39.581  53.252 -51.331  1.00  0.00     0.112 C 
BRANCH  28  29
HETATM   29  C   UNL     1     -39.714  52.004 -52.173  1.00  0.00    -0.043 A 
HETATM   30  C   UNL     1     -40.021  52.053 -53.551  1.00  0.00    -0.055 A 
HETATM   31  C   UNL     1     -40.226  53.354 -54.282  1.00  0.00     0.049 C 
HETATM   32  C   UNL     1     -40.089  50.855 -54.282  1.00  0.00     0.007 A 
HETATM   33  C   UNL     1     -39.889  49.623 -53.660  1.00  0.00     0.001 A 
HETATM   34  C   UNL     1     -39.615  49.570 -52.297  1.00  0.00     0.001 A 
HETATM   35  C   UNL     1     -39.530  50.751 -51.560  1.00  0.00     0.008 A 
ENDBRANCH  28  29
ENDBRANCH  27  28
ENDBRANCH  26  27
ENDBRANCH   1  26
TORSDOF 7
ENDMDL
MODEL 6
REMARK VINA RESULT:      -8.3      1.650      2.310
REMARK  7 active torsions:
REMARK  status: ('A' for Active; 'I' for Inactive)
REMARK    1  A    between atoms: C_3  and  C_4 
REMARK    2  A    between atoms: C_4  and  S_5 
REMARK    3  A    between atoms: S_5  and  C_6 
REMARK    4  A    between atoms: C_6  and  C_7 
REMARK    5  A    between atoms: C_16  and  C_17 
REMARK       I    between atoms: C_17  and  N_18 
REMARK    6  A    between atoms: N_18  and  C_19 
REMARK    7  A    between atoms: C_19  and  C_20 
ROOT
HETATM    1  C   UNL     1     -42.195  56.379 -51.322  1.00  0.00     0.162 C 
HETATM    2  N   UNL     1     -41.629  56.124 -52.669  1.00  0.00    -0.277 NA
HETATM    3  C   UNL     1     -42.357  56.726 -53.714  1.00  0.00     0.036 A 
HETATM    4  C   UNL     1     -43.725  57.029 -53.592  1.00  0.00     0.057 A 
HETATM    5  N   UNL     1     -44.391  56.738 -52.394  1.00  0.00    -0.324 N 
HETATM    6  C   UNL     1     -43.733  56.279 -51.279  1.00  0.00     0.240 C 
HETATM    7  O   UNL     1     -44.365  55.926 -50.285  1.00  0.00    -0.271 OA
HETATM    8  C   UNL     1     -41.738  56.900 -54.953  1.00  0.00     0.027 A 
HETATM    9  C   UNL     1     -42.444  57.452 -56.025  1.00  0.00     0.019 A 
HETATM   10  C   UNL     1     -43.788  57.815 -55.873  1.00  0.00     0.034 A 
HETATM   11  C   UNL     1     -44.442  57.571 -54.660  1.00  0.00     0.048 A 
HETATM   12  H   UNL     1     -41.540  55.123 -52.851  1.00  0.00     0.128 HD
HETATM   13  H   UNL     1     -45.399  56.794 -52.334  1.00  0.00     0.169 HD
ENDROOT
BRANCH  10  14
HETATM   14  C   UNL     1     -44.481  58.448 -57.031  1.00  0.00     0.252 C 
HETATM   15  N   UNL     1     -45.856  58.353 -57.041  1.00  0.00    -0.353 N 
HETATM   16  H   UNL     1     -46.326  58.088 -56.187  1.00  0.00     0.163 HD
HETATM   17  O   UNL     1     -43.836  59.051 -57.881  1.00  0.00    -0.268 OA
BRANCH  15  18
HETATM   18  C   UNL     1     -46.643  59.123 -57.980  1.00  0.00     0.163 C 
BRANCH  18  19
HETATM   19  C   UNL     1     -46.985  58.319 -59.209  1.00  0.00    -0.019 A 
HETATM   20  C   UNL     1     -47.586  58.881 -60.348  1.00  0.00     0.042 A 
HETATM   21 CL   UNL     1     -48.003  60.557 -60.421  1.00  0.00    -0.084 Cl
HETATM   22  C   UNL     1     -47.879  58.091 -61.464  1.00  0.00     0.024 A 
HETATM   23  C   UNL     1     -47.575  56.730 -61.459  1.00  0.00     0.002 A 
HETATM   24  C   UNL     1     -46.982  56.157 -60.338  1.00  0.00     0.001 A 
HETATM   25  C   UNL     1     -46.691  56.943 -59.222  1.00  0.00     0.010 A 
ENDBRANCH  18  19
ENDBRANCH  15  18
ENDBRANCH  10  14
BRANCH   1  26
HETATM   26  C   UNL     1     -41.582  55.446 -50.262  1.00  0.00     0.103 C 
BRANCH  26  27
HETATM   27  S   UNL     1     -41.658  53.651 -50.640  1.00  0.00    -0.162 SA
BRANCH  27  28
HETATM   28  C   UNL     1     -39.989  53.411 -51.328  1.00  0.00     0.112 C 
BRANCH  28  29
HETATM   29  C   UNL     1     -39.868  52.106 -52.081  1.00  0.00    -0.043 A 
HETATM   30  C   UNL     1     -39.988  52.032 -53.487  1.00  0.00    -0.055 A 
HETATM   31  C   UNL     1     -40.235  53.251 -54.336  1.00  0.00     0.049 C 
HETATM   32  C   UNL     1     -39.824  50.791 -54.124  1.00  0.00     0.007 A 
HETATM   33  C   UNL     1     -39.575  49.633 -53.388  1.00  0.00     0.001 A 
HETATM   34  C   UNL     1     -39.484  49.699 -52.002  1.00  0.00     0.001 A 
HETATM   35  C   UNL     1     -39.630  50.925 -51.353  1.00  0.00     0.008 A 
ENDBRANCH  28  29
ENDBRANCH  27  28
ENDBRANCH  26  27
ENDBRANCH   1  26
TORSDOF 7
ENDMDL
MODEL 7
REMARK VINA RESULT:      -8.2      5.667      9.560
REMARK  7 active torsions:
REMARK  status: ('A' for Active; 'I' for Inactive)
REMARK    1  A    between atoms: C_3  and  C_4 
REMARK    2  A    between atoms: C_4  and  S_5 
REMARK    3  A    between atoms: S_5  and  C_6 
REMARK    4  A    between atoms: C_6  and  C_7 
REMARK    5  A    between atoms: C_16  and  C_17 
REMARK       I    between atoms: C_17  and  N_18 
REMARK    6  A    between atoms: N_18  and  C_19 
REMARK    7  A    between atoms: C_19  and  C_20 
ROOT
HETATM    1  C   UNL     1     -44.034  60.237 -51.243  1.00  0.00     0.162 C 
HETATM    2  N   UNL     1     -44.039  59.032 -52.109  1.00  0.00    -0.277 NA
HETATM    3  C   UNL     1     -43.203  57.997 -51.645  1.00  0.00     0.036 A 
HETATM    4  C   UNL     1     -42.086  58.249 -50.828  1.00  0.00     0.057 A 
HETATM    5  N   UNL     1     -41.794  59.565 -50.447  1.00  0.00    -0.324 N 
HETATM    6  C   UNL     1     -42.628  60.617 -50.737  1.00  0.00     0.240 C 
HETATM    7  O   UNL     1     -42.283  61.771 -50.488  1.00  0.00    -0.271 OA
HETATM    8  C   UNL     1     -43.408  56.702 -52.124  1.00  0.00     0.027 A 
HETATM    9  C   UNL     1     -42.570  55.659 -51.721  1.00  0.00     0.019 A 
HETATM   10  C   UNL     1     -41.501  55.907 -50.851  1.00  0.00     0.034 A 
HETATM   11  C   UNL     1     -41.237  57.215 -50.429  1.00  0.00     0.048 A 
HETATM   12  H   UNL     1     -43.787  59.266 -53.070  1.00  0.00     0.128 HD
HETATM   13  H   UNL     1     -40.916  59.793 -50.000  1.00  0.00     0.169 HD
ENDROOT
BRANCH  10  14
HETATM   14  C   UNL     1     -40.669  54.752 -50.411  1.00  0.00     0.252 C 
HETATM   15  N   UNL     1     -41.063  53.512 -50.863  1.00  0.00    -0.353 N 
HETATM   16  H   UNL     1     -41.720  53.467 -51.631  1.00  0.00     0.163 HD
HETATM   17  O   UNL     1     -39.669  54.938 -49.727  1.00  0.00    -0.268 OA
BRANCH  15  18
HETATM   18  C   UNL     1     -40.208  52.357 -50.697  1.00  0.00     0.163 C 
BRANCH  18  19
HETATM   19  C   UNL     1     -40.038  51.601 -51.990  1.00  0.00    -0.019 A 
HETATM   20  C   UNL     1     -39.630  50.257 -52.042  1.00  0.00     0.042 A 
HETATM   21 CL   UNL     1     -39.266  49.362 -50.608  1.00  0.00    -0.084 Cl
HETATM   22  C   UNL     1     -39.492  49.599 -53.268  1.00  0.00     0.024 A 
HETATM   23  C   UNL     1     -39.762  50.273 -54.459  1.00  0.00     0.002 A 
HETATM   24  C   UNL     1     -40.165  51.604 -54.426  1.00  0.00     0.001 A 
HETATM   25  C   UNL     1     -40.299  52.264 -53.203  1.00  0.00     0.010 A 
ENDBRANCH  18  19
ENDBRANCH  15  18
ENDBRANCH  10  14
BRANCH   1  26
HETATM   26  C   UNL     1     -44.680  61.444 -51.945  1.00  0.00     0.103 C 
BRANCH  26  27
HETATM   27  S   UNL     1     -46.274  62.018 -51.238  1.00  0.00    -0.162 SA
BRANCH  27  28
HETATM   28  C   UNL     1     -45.651  63.107 -49.917  1.00  0.00     0.112 C 
BRANCH  28  29
HETATM   29  C   UNL     1     -45.839  62.501 -48.545  1.00  0.00    -0.043 A 
HETATM   30  C   UNL     1     -46.988  62.749 -47.762  1.00  0.00    -0.055 A 
HETATM   31  C   UNL     1     -48.113  63.627 -48.244  1.00  0.00     0.049 C 
HETATM   32  C   UNL     1     -47.114  62.120 -46.512  1.00  0.00     0.007 A 
HETATM   33  C   UNL     1     -46.112  61.282 -46.026  1.00  0.00     0.001 A 
HETATM   34  C   UNL     1     -44.966  61.059 -46.782  1.00  0.00     0.001 A 
HETATM   35  C   UNL     1     -44.830  61.664 -48.032  1.00  0.00     0.008 A 
ENDBRANCH  28  29
ENDBRANCH  27  28
ENDBRANCH  26  27
ENDBRANCH   1  26
TORSDOF 7
ENDMDL
MODEL 8
REMARK VINA RESULT:      -8.1      1.939      2.472
REMARK  7 active torsions:
REMARK  status: ('A' for Active; 'I' for Inactive)
REMARK    1  A    between atoms: C_3  and  C_4 
REMARK    2  A    between atoms: C_4  and  S_5 
REMARK    3  A    between atoms: S_5  and  C_6 
REMARK    4  A    between atoms: C_6  and  C_7 
REMARK    5  A    between atoms: C_16  and  C_17 
REMARK       I    between atoms: C_17  and  N_18 
REMARK    6  A    between atoms: N_18  and  C_19 
REMARK    7  A    between atoms: C_19  and  C_20 
ROOT
HETATM    1  C   UNL     1     -41.166  56.185 -52.214  1.00  0.00     0.162 C 
HETATM    2  N   UNL     1     -41.872  55.392 -53.250  1.00  0.00    -0.277 NA
HETATM    3  C   UNL     1     -42.294  56.154 -54.357  1.00  0.00     0.036 A 
HETATM    4  C   UNL     1     -42.547  57.534 -54.261  1.00  0.00     0.057 A 
HETATM    5  N   UNL     1     -42.364  58.184 -53.034  1.00  0.00    -0.324 N 
HETATM    6  C   UNL     1     -41.825  57.552 -51.940  1.00  0.00     0.240 C 
HETATM    7  O   UNL     1     -41.787  58.120 -50.850  1.00  0.00    -0.271 OA
HETATM    8  C   UNL     1     -42.605  55.494 -55.548  1.00  0.00     0.027 A 
HETATM    9  C   UNL     1     -43.070  56.211 -56.653  1.00  0.00     0.019 A 
HETATM   10  C   UNL     1     -43.253  57.598 -56.569  1.00  0.00     0.034 A 
HETATM   11  C   UNL     1     -43.022  58.258 -55.357  1.00  0.00     0.048 A 
HETATM   12  H   UNL     1     -42.672  54.895 -52.856  1.00  0.00     0.128 HD
HETATM   13  H   UNL     1     -42.690  59.131 -52.895  1.00  0.00     0.169 HD
ENDROOT
BRANCH  10  14
HETATM   14  C   UNL     1     -43.702  58.324 -57.791  1.00  0.00     0.252 C 
HETATM   15  N   UNL     1     -45.053  58.282 -58.059  1.00  0.00    -0.353 N 
HETATM   16  H   UNL     1     -45.680  57.984 -57.325  1.00  0.00     0.163 HD
HETATM   17  O   UNL     1     -42.895  58.952 -58.466  1.00  0.00    -0.268 OA
BRANCH  15  18
HETATM   18  C   UNL     1     -45.631  59.136 -59.075  1.00  0.00     0.163 C 
BRANCH  18  19
HETATM   19  C   UNL     1     -46.500  58.355 -60.028  1.00  0.00    -0.019 A 
HETATM   20  C   UNL     1     -47.378  58.967 -60.938  1.00  0.00     0.042 A 
HETATM   21 CL   UNL     1     -47.546  60.686 -61.022  1.00  0.00    -0.084 Cl
HETATM   22  C   UNL     1     -48.160  58.197 -61.804  1.00  0.00     0.024 A 
HETATM   23  C   UNL     1     -48.074  56.805 -61.775  1.00  0.00     0.002 A 
HETATM   24  C   UNL     1     -47.211  56.183 -60.878  1.00  0.00     0.001 A 
HETATM   25  C   UNL     1     -46.433  56.950 -60.010  1.00  0.00     0.010 A 
ENDBRANCH  18  19
ENDBRANCH  15  18
ENDBRANCH  10  14
BRANCH   1  26
HETATM   26  C   UNL     1     -41.023  55.402 -50.897  1.00  0.00     0.103 C 
BRANCH  26  27
HETATM   27  S   UNL     1     -41.637  53.672 -50.929  1.00  0.00    -0.162 SA
BRANCH  27  28
HETATM   28  C   UNL     1     -40.048  52.782 -50.957  1.00  0.00     0.112 C 
BRANCH  28  29
HETATM   29  C   UNL     1     -39.946  51.837 -52.132  1.00  0.00    -0.043 A 
HETATM   30  C   UNL     1     -39.702  50.455 -51.970  1.00  0.00    -0.055 A 
HETATM   31  C   UNL     1     -39.536  49.824 -50.613  1.00  0.00     0.049 C 
HETATM   32  C   UNL     1     -39.660  49.629 -53.106  1.00  0.00     0.007 A 
HETATM   33  C   UNL     1     -39.827  50.158 -54.385  1.00  0.00     0.001 A 
HETATM   34  C   UNL     1     -40.039  51.522 -54.549  1.00  0.00     0.001 A 
HETATM   35  C   UNL     1     -40.097  52.356 -53.432  1.00  0.00     0.008 A 
ENDBRANCH  28  29
ENDBRANCH  27  28
ENDBRANCH  26  27
ENDBRANCH   1  26
TORSDOF 7
ENDMDL
MODEL 9
REMARK VINA RESULT:      -8.1      2.359      3.454
REMARK  7 active torsions:
REMARK  status: ('A' for Active; 'I' for Inactive)
REMARK    1  A    between atoms: C_3  and  C_4 
REMARK    2  A    between atoms: C_4  and  S_5 
REMARK    3  A    between atoms: S_5  and  C_6 
REMARK    4  A    between atoms: C_6  and  C_7 
REMARK    5  A    between atoms: C_16  and  C_17 
REMARK       I    between atoms: C_17  and  N_18 
REMARK    6  A    between atoms: N_18  and  C_19 
REMARK    7  A    between atoms: C_19  and  C_20 
ROOT
HETATM    1  C   UNL     1     -42.450  56.531 -51.795  1.00  0.00     0.162 C 
HETATM    2  N   UNL     1     -42.004  56.030 -53.118  1.00  0.00    -0.277 NA
HETATM    3  C   UNL     1     -42.682  56.617 -54.205  1.00  0.00     0.036 A 
HETATM    4  C   UNL     1     -43.976  57.151 -54.077  1.00  0.00     0.057 A 
HETATM    5  N   UNL     1     -44.615  57.116 -52.831  1.00  0.00    -0.324 N 
HETATM    6  C   UNL     1     -43.980  56.691 -51.690  1.00  0.00     0.240 C 
HETATM    7  O   UNL     1     -44.607  56.566 -50.639  1.00  0.00    -0.271 OA
HETATM    8  C   UNL     1     -42.109  56.539 -55.476  1.00  0.00     0.027 A 
HETATM    9  C   UNL     1     -42.774  57.069 -56.584  1.00  0.00     0.019 A 
HETATM   10  C   UNL     1     -44.034  57.663 -56.435  1.00  0.00     0.034 A 
HETATM   11  C   UNL     1     -44.653  57.674 -55.180  1.00  0.00     0.048 A 
HETATM   12  H   UNL     1     -42.084  55.014 -53.177  1.00  0.00     0.128 HD
HETATM   13  H   UNL     1     -45.597  57.343 -52.745  1.00  0.00     0.169 HD
ENDROOT
BRANCH  10  14
HETATM   14  C   UNL     1     -44.678  58.259 -57.639  1.00  0.00     0.252 C 
HETATM   15  N   UNL     1     -44.584  59.629 -57.763  1.00  0.00    -0.353 N 
HETATM   16  H   UNL     1     -43.910  60.118 -57.191  1.00  0.00     0.163 HD
HETATM   17  O   UNL     1     -45.208  57.538 -58.475  1.00  0.00    -0.268 OA
BRANCH  15  18
HETATM   18  C   UNL     1     -44.962  60.287 -58.994  1.00  0.00     0.163 C 
BRANCH  18  19
HETATM   19  C   UNL     1     -43.755  60.731 -59.781  1.00  0.00    -0.019 A 
HETATM   20  C   UNL     1     -43.140  61.981 -59.598  1.00  0.00     0.042 A 
HETATM   21 CL   UNL     1     -43.742  63.131 -58.456  1.00  0.00    -0.084 Cl
HETATM   22  C   UNL     1     -42.019  62.342 -60.351  1.00  0.00     0.024 A 
HETATM   23  C   UNL     1     -41.494  61.459 -61.295  1.00  0.00     0.002 A 
HETATM   24  C   UNL     1     -42.092  60.218 -61.489  1.00  0.00     0.001 A 
HETATM   25  C   UNL     1     -43.214  59.857 -60.742  1.00  0.00     0.010 A 
ENDBRANCH  18  19
ENDBRANCH  15  18
ENDBRANCH  10  14
BRANCH   1  26
HETATM   26  C   UNL     1     -41.938  55.642 -50.648  1.00  0.00     0.103 C 
BRANCH  26  27
HETATM   27  S   UNL     1     -41.990  53.834 -50.957  1.00  0.00    -0.162 SA
BRANCH  27  28
HETATM   28  C   UNL     1     -40.238  53.540 -51.358  1.00  0.00     0.112 C 
BRANCH  28  29
HETATM   29  C   UNL     1     -40.023  52.196 -52.017  1.00  0.00    -0.043 A 
HETATM   30  C   UNL     1     -40.078  52.025 -53.418  1.00  0.00    -0.055 A 
HETATM   31  C   UNL     1     -40.343  53.173 -54.356  1.00  0.00     0.049 C 
HETATM   32  C   UNL     1     -39.829  50.754 -53.964  1.00  0.00     0.007 A 
HETATM   33  C   UNL     1     -39.559  49.661 -53.142  1.00  0.00     0.001 A 
HETATM   34  C   UNL     1     -39.534  49.821 -51.761  1.00  0.00     0.001 A 
HETATM   35  C   UNL     1     -39.764  51.078 -51.202  1.00  0.00     0.008 A 
ENDBRANCH  28  29
ENDBRANCH  27  28
ENDBRANCH  26  27
ENDBRANCH   1  26
TORSDOF 7
ENDMDL
MODEL 10
REMARK VINA RESULT:      -8.1      4.736      9.871
REMARK  7 active torsions:
REMARK  status: ('A' for Active; 'I' for Inactive)
REMARK    1  A    between atoms: C_3  and  C_4 
REMARK    2  A    between atoms: C_4  and  S_5 
REMARK    3  A    between atoms: S_5  and  C_6 
REMARK    4  A    between atoms: C_6  and  C_7 
REMARK    5  A    between atoms: C_16  and  C_17 
REMARK       I    between atoms: C_17  and  N_18 
REMARK    6  A    between atoms: N_18  and  C_19 
REMARK    7  A    between atoms: C_19  and  C_20 
ROOT
HETATM    1  C   UNL     1     -42.074  58.727 -59.490  1.00  0.00     0.162 C 
HETATM    2  N   UNL     1     -42.432  59.462 -58.252  1.00  0.00    -0.277 NA
HETATM    3  C   UNL     1     -42.263  58.707 -57.075  1.00  0.00     0.036 A 
HETATM    4  C   UNL     1     -42.315  57.301 -57.077  1.00  0.00     0.057 A 
HETATM    5  N   UNL     1     -42.528  56.621 -58.283  1.00  0.00    -0.324 N 
HETATM    6  C   UNL     1     -42.566  57.266 -59.495  1.00  0.00     0.240 C 
HETATM    7  O   UNL     1     -42.869  56.653 -60.516  1.00  0.00    -0.271 OA
HETATM    8  C   UNL     1     -42.181  59.376 -55.853  1.00  0.00     0.027 A 
HETATM    9  C   UNL     1     -42.059  58.657 -54.661  1.00  0.00     0.019 A 
HETATM   10  C   UNL     1     -42.041  57.256 -54.679  1.00  0.00     0.034 A 
HETATM   11  C   UNL     1     -42.204  56.574 -55.890  1.00  0.00     0.048 A 
HETATM   12  H   UNL     1     -43.389  59.815 -58.294  1.00  0.00     0.128 HD
HETATM   13  H   UNL     1     -42.730  55.630 -58.291  1.00  0.00     0.169 HD
ENDROOT
BRANCH  10  14
HETATM   14  C   UNL     1     -41.857  56.538 -53.386  1.00  0.00     0.252 C 
HETATM   15  N   UNL     1     -42.430  55.288 -53.299  1.00  0.00    -0.353 N 
HETATM   16  H   UNL     1     -42.726  54.834 -54.152  1.00  0.00     0.163 HD
HETATM   17  O   UNL     1     -41.187  57.040 -52.492  1.00  0.00    -0.268 OA
BRANCH  15  18
HETATM   18  C   UNL     1     -42.123  54.409 -52.192  1.00  0.00     0.163 C 
BRANCH  18  19
HETATM   19  C   UNL     1     -41.172  53.313 -52.600  1.00  0.00    -0.019 A 
HETATM   20  C   UNL     1     -40.270  52.711 -51.707  1.00  0.00     0.042 A 
HETATM   21 CL   UNL     1     -40.165  53.202 -50.052  1.00  0.00    -0.084 Cl
HETATM   22  C   UNL     1     -39.411  51.694 -52.136  1.00  0.00     0.024 A 
HETATM   23  C   UNL     1     -39.443  51.263 -53.462  1.00  0.00     0.002 A 
HETATM   24  C   UNL     1     -40.329  51.850 -54.360  1.00  0.00     0.001 A 
HETATM   25  C   UNL     1     -41.184  52.867 -53.935  1.00  0.00     0.010 A 
ENDBRANCH  18  19
ENDBRANCH  15  18
ENDBRANCH  10  14
BRANCH   1  26
HETATM   26  C   UNL     1     -42.582  59.453 -60.749  1.00  0.00     0.103 C 
BRANCH  26  27
HETATM   27  S   UNL     1     -43.871  60.729 -60.467  1.00  0.00    -0.162 SA
BRANCH  27  28
HETATM   28  C   UNL     1     -43.102  62.137 -61.330  1.00  0.00     0.112 C 
BRANCH  28  29
HETATM   29  C   UNL     1     -41.769  62.515 -60.725  1.00  0.00    -0.043 A 
HETATM   30  C   UNL     1     -40.631  62.785 -61.517  1.00  0.00    -0.055 A 
HETATM   31  C   UNL     1     -40.668  62.727 -63.021  1.00  0.00     0.049 C 
HETATM   32  C   UNL     1     -39.435  63.170 -60.889  1.00  0.00     0.007 A 
HETATM   33  C   UNL     1     -39.350  63.259 -59.500  1.00  0.00     0.001 A 
HETATM   34  C   UNL     1     -40.461  62.965 -58.717  1.00  0.00     0.001 A 
HETATM   35  C   UNL     1     -41.661  62.595 -59.324  1.00  0.00     0.008 A 
ENDBRANCH  28  29
ENDBRANCH  27  28
ENDBRANCH  26  27
ENDBRANCH   1  26
TORSDOF 7
ENDMDL
