MODEL 1
REMARK VINA RESULT:      -8.4      0.000      0.000
REMARK  7 active torsions:
REMARK  status: ('A' for Active; 'I' for Inactive)
REMARK    1  A    between atoms: C_2  and  C_3 
REMARK    2  A    between atoms: N_10  and  C_11 
REMARK    3  A    between atoms: C_11  and  C_12 
REMARK       I    between atoms: C_12  and  N_13 
REMARK    4  A    between atoms: N_13  and  C_14 
REMARK    5  A    between atoms: C_17  and  C_18 
REMARK       I    between atoms: C_18  and  N_19 
REMARK    6  A    between atoms: N_19  and  C_20 
REMARK    7  A    between atoms: C_21  and  O_22 
ROOT
HETATM    1  C   UNL     1     -42.939  59.527 -53.933  1.00  0.00     0.240 C 
HETATM    2  N   UNL     1     -43.173  59.340 -52.585  1.00  0.00    -0.326 N 
HETATM    3  O   UNL     1     -43.015  60.602 -54.529  1.00  0.00    -0.271 OA
HETATM    4  H   UNL     1     -43.100  58.393 -52.235  1.00  0.00     0.169 HD
ENDROOT
BRANCH   2   5
HETATM    5  C   UNL     1     -43.481  60.344 -51.635  1.00  0.00     0.034 A 
HETATM    6  C   UNL     1     -42.522  61.123 -50.979  1.00  0.00     0.030 A 
HETATM    7  C   UNL     1     -42.890  62.071 -50.015  1.00  0.00     0.019 A 
HETATM    8  C   UNL     1     -44.235  62.262 -49.695  1.00  0.00     0.032 A 
HETATM    9  C   UNL     1     -45.205  61.493 -50.353  1.00  0.00     0.019 A 
HETATM   10  C   UNL     1     -44.830  60.548 -51.320  1.00  0.00     0.030 A 
BRANCH   8  11
HETATM   11  C   UNL     1     -44.663  63.194 -48.611  1.00  0.00     0.256 C 
HETATM   12  N   UNL     1     -45.021  62.597 -47.416  1.00  0.00    -0.321 N 
HETATM   13  H   UNL     1     -44.796  61.619 -47.273  1.00  0.00     0.169 HD
HETATM   14  O   UNL     1     -44.650  64.397 -48.848  1.00  0.00    -0.267 OA
BRANCH  12  15
HETATM   15  C   UNL     1     -45.621  63.208 -46.289  1.00  0.00     0.068 A 
HETATM   16  C   UNL     1     -47.024  63.372 -46.310  1.00  0.00     0.095 A 
HETATM   17  C   UNL     1     -47.665  64.003 -45.238  1.00  0.00     0.039 A 
HETATM   18  C   UNL     1     -46.923  64.466 -44.150  1.00  0.00     0.003 A 
HETATM   19  C   UNL     1     -45.541  64.303 -44.128  1.00  0.00     0.002 A 
HETATM   20  C   UNL     1     -44.892  63.677 -45.193  1.00  0.00     0.032 A 
BRANCH  16  21
HETATM   21  O   UNL     1     -47.664  62.889 -47.430  1.00  0.00    -0.354 OA
HETATM   22  C   UNL     1     -48.377  63.838 -48.217  1.00  0.00     0.210 C 
ENDBRANCH  16  21
ENDBRANCH  12  15
ENDBRANCH   8  11
ENDBRANCH   2   5
BRANCH   1  23
HETATM   23  C   UNL     1     -42.630  58.273 -54.750  1.00  0.00     0.240 C 
BRANCH  23  24
HETATM   24  N   UNL     1     -42.822  56.967 -54.156  1.00  0.00    -0.259 N 
HETATM   25  C   UNL     1     -43.993  56.280 -54.197  1.00  0.00     0.326 C 
HETATM   26  N   UNL     1     -43.750  54.980 -53.815  1.00  0.00    -0.324 N 
HETATM   27  O   UNL     1     -45.086  56.704 -54.526  1.00  0.00    -0.247 OA
HETATM   28  C   UNL     1     -42.329  54.677 -53.813  1.00  0.00     0.116 C 
HETATM   29  H   UNL     1     -44.481  54.290 -53.939  1.00  0.00     0.165 HD
HETATM   30  C   UNL     1     -41.934  54.020 -55.148  1.00  0.00     0.041 C 
HETATM   31  C   UNL     1     -41.796  56.129 -53.805  1.00  0.00     0.256 C 
HETATM   32  C   UNL     1     -41.931  53.838 -52.602  1.00  0.00     0.041 C 
HETATM   33  C   UNL     1     -40.475  53.566 -55.167  1.00  0.00     0.007 C 
HETATM   34  C   UNL     1     -40.119  52.644 -53.993  1.00  0.00    -0.015 C 
HETATM   35  C   UNL     1     -40.491  53.321 -52.661  1.00  0.00     0.007 C 
HETATM   36  O   UNL     1     -40.630  56.463 -53.650  1.00  0.00    -0.270 OA
BRANCH  34  37
HETATM   37  C   UNL     1     -40.754  51.252 -54.183  1.00  0.00     0.000 C 
HETATM   38  C   UNL     1     -39.733  50.153 -54.444  1.00  0.00     0.005 C 
ENDBRANCH  34  37
ENDBRANCH  23  24
ENDBRANCH   1  23
TORSDOF 7
ENDMDL
MODEL 2
REMARK VINA RESULT:      -8.3      5.295      9.627
REMARK  7 active torsions:
REMARK  status: ('A' for Active; 'I' for Inactive)
REMARK    1  A    between atoms: C_2  and  C_3 
REMARK    2  A    between atoms: N_10  and  C_11 
REMARK    3  A    between atoms: C_11  and  C_12 
REMARK       I    between atoms: C_12  and  N_13 
REMARK    4  A    between atoms: N_13  and  C_14 
REMARK    5  A    between atoms: C_17  and  C_18 
REMARK       I    between atoms: C_18  and  N_19 
REMARK    6  A    between atoms: N_19  and  C_20 
REMARK    7  A    between atoms: C_21  and  O_22 
ROOT
HETATM    1  C   UNL     1     -43.328  58.255 -53.004  1.00  0.00     0.240 C 
HETATM    2  N   UNL     1     -43.821  57.314 -53.885  1.00  0.00    -0.326 N 
HETATM    3  O   UNL     1     -43.121  59.440 -53.266  1.00  0.00    -0.271 OA
HETATM    4  H   UNL     1     -43.916  56.368 -53.538  1.00  0.00     0.169 HD
ENDROOT
BRANCH   2   5
HETATM    5  C   UNL     1     -44.230  57.542 -55.222  1.00  0.00     0.034 A 
HETATM    6  C   UNL     1     -45.410  58.206 -55.577  1.00  0.00     0.030 A 
HETATM    7  C   UNL     1     -45.781  58.362 -56.920  1.00  0.00     0.019 A 
HETATM    8  C   UNL     1     -44.967  57.858 -57.936  1.00  0.00     0.032 A 
HETATM    9  C   UNL     1     -43.780  57.199 -57.591  1.00  0.00     0.019 A 
HETATM   10  C   UNL     1     -43.412  57.051 -56.245  1.00  0.00     0.030 A 
BRANCH   8  11
HETATM   11  C   UNL     1     -45.370  57.920 -59.372  1.00  0.00     0.256 C 
HETATM   12  N   UNL     1     -46.729  58.015 -59.608  1.00  0.00    -0.321 N 
HETATM   13  H   UNL     1     -47.345  58.229 -58.832  1.00  0.00     0.169 HD
HETATM   14  O   UNL     1     -44.484  57.901 -60.220  1.00  0.00    -0.267 OA
BRANCH  12  15
HETATM   15  C   UNL     1     -47.401  57.919 -60.851  1.00  0.00     0.068 A 
HETATM   16  C   UNL     1     -47.704  59.127 -61.518  1.00  0.00     0.095 A 
HETATM   17  C   UNL     1     -48.399  59.093 -62.732  1.00  0.00     0.039 A 
HETATM   18  C   UNL     1     -48.789  57.872 -63.285  1.00  0.00     0.003 A 
HETATM   19  C   UNL     1     -48.490  56.682 -62.628  1.00  0.00     0.002 A 
HETATM   20  C   UNL     1     -47.798  56.705 -61.415  1.00  0.00     0.032 A 
BRANCH  16  21
HETATM   21  O   UNL     1     -47.284  60.278 -60.888  1.00  0.00    -0.354 OA
HETATM   22  C   UNL     1     -46.288  61.044 -61.557  1.00  0.00     0.210 C 
ENDBRANCH  16  21
ENDBRANCH  12  15
ENDBRANCH   8  11
ENDBRANCH   2   5
BRANCH   1  23
HETATM   23  C   UNL     1     -42.951  57.751 -51.612  1.00  0.00     0.240 C 
BRANCH  23  24
HETATM   24  N   UNL     1     -42.688  56.342 -51.409  1.00  0.00    -0.259 N 
HETATM   25  C   UNL     1     -43.604  55.460 -50.933  1.00  0.00     0.326 C 
HETATM   26  N   UNL     1     -43.135  54.184 -51.148  1.00  0.00    -0.324 N 
HETATM   27  O   UNL     1     -44.676  55.717 -50.415  1.00  0.00    -0.247 OA
HETATM   28  C   UNL     1     -42.016  54.171 -52.075  1.00  0.00     0.116 C 
HETATM   29  H   UNL     1     -43.761  53.402 -50.997  1.00  0.00     0.165 HD
HETATM   30  C   UNL     1     -42.523  53.879 -53.499  1.00  0.00     0.041 C 
HETATM   31  C   UNL     1     -41.642  55.670 -51.985  1.00  0.00     0.256 C 
HETATM   32  C   UNL     1     -40.922  53.207 -51.628  1.00  0.00     0.041 C 
HETATM   33  C   UNL     1     -41.383  53.734 -54.507  1.00  0.00     0.007 C 
HETATM   34  C   UNL     1     -40.342  52.688 -54.085  1.00  0.00    -0.015 C 
HETATM   35  C   UNL     1     -39.820  53.004 -52.672  1.00  0.00     0.007 C 
HETATM   36  O   UNL     1     -40.646  56.189 -52.470  1.00  0.00    -0.270 OA
BRANCH  34  37
HETATM   37  C   UNL     1     -40.911  51.263 -54.236  1.00  0.00     0.000 C 
HETATM   38  C   UNL     1     -39.836  50.191 -54.345  1.00  0.00     0.005 C 
ENDBRANCH  34  37
ENDBRANCH  23  24
ENDBRANCH   1  23
TORSDOF 7
ENDMDL
MODEL 3
REMARK VINA RESULT:      -8.2      2.406     10.522
REMARK  7 active torsions:
REMARK  status: ('A' for Active; 'I' for Inactive)
REMARK    1  A    between atoms: C_2  and  C_3 
REMARK    2  A    between atoms: N_10  and  C_11 
REMARK    3  A    between atoms: C_11  and  C_12 
REMARK       I    between atoms: C_12  and  N_13 
REMARK    4  A    between atoms: N_13  and  C_14 
REMARK    5  A    between atoms: C_17  and  C_18 
REMARK       I    between atoms: C_18  and  N_19 
REMARK    6  A    between atoms: N_19  and  C_20 
REMARK    7  A    between atoms: C_21  and  O_22 
ROOT
HETATM    1  C   UNL     1     -43.112  61.593 -53.238  1.00  0.00     0.240 C 
HETATM    2  N   UNL     1     -43.012  60.776 -52.130  1.00  0.00    -0.326 N 
HETATM    3  O   UNL     1     -42.923  61.243 -54.403  1.00  0.00    -0.271 OA
HETATM    4  H   UNL     1     -43.169  61.207 -51.227  1.00  0.00     0.169 HD
ENDROOT
BRANCH   2   5
HETATM    5  C   UNL     1     -42.736  59.386 -52.128  1.00  0.00     0.034 A 
HETATM    6  C   UNL     1     -41.499  58.834 -52.475  1.00  0.00     0.030 A 
HETATM    7  C   UNL     1     -41.302  57.446 -52.496  1.00  0.00     0.019 A 
HETATM    8  C   UNL     1     -42.347  56.584 -52.159  1.00  0.00     0.032 A 
HETATM    9  C   UNL     1     -43.587  57.128 -51.800  1.00  0.00     0.019 A 
HETATM   10  C   UNL     1     -43.776  58.518 -51.777  1.00  0.00     0.030 A 
BRANCH   8  11
HETATM   11  C   UNL     1     -42.207  55.101 -52.256  1.00  0.00     0.256 C 
HETATM   12  N   UNL     1     -40.939  54.638 -52.553  1.00  0.00    -0.321 N 
HETATM   13  H   UNL     1     -40.159  55.282 -52.495  1.00  0.00     0.169 HD
HETATM   14  O   UNL     1     -43.204  54.414 -52.053  1.00  0.00    -0.267 OA
BRANCH  12  15
HETATM   15  C   UNL     1     -40.553  53.313 -52.871  1.00  0.00     0.068 A 
HETATM   16  C   UNL     1     -39.871  52.579 -51.875  1.00  0.00     0.095 A 
HETATM   17  C   UNL     1     -39.435  51.279 -52.148  1.00  0.00     0.039 A 
HETATM   18  C   UNL     1     -39.673  50.705 -53.398  1.00  0.00     0.003 A 
HETATM   19  C   UNL     1     -40.345  51.428 -54.380  1.00  0.00     0.002 A 
HETATM   20  C   UNL     1     -40.784  52.727 -54.118  1.00  0.00     0.032 A 
BRANCH  16  21
HETATM   21  O   UNL     1     -39.679  53.235 -50.679  1.00  0.00    -0.354 OA
HETATM   22  C   UNL     1     -40.478  52.808 -49.580  1.00  0.00     0.210 C 
ENDBRANCH  16  21
ENDBRANCH  12  15
ENDBRANCH   8  11
ENDBRANCH   2   5
BRANCH   1  23
HETATM   23  C   UNL     1     -43.414  63.067 -52.971  1.00  0.00     0.240 C 
BRANCH  23  24
HETATM   24  N   UNL     1     -44.377  63.425 -51.951  1.00  0.00    -0.259 N 
HETATM   25  C   UNL     1     -45.716  63.507 -52.167  1.00  0.00     0.326 C 
HETATM   26  N   UNL     1     -46.352  63.569 -50.948  1.00  0.00    -0.324 N 
HETATM   27  O   UNL     1     -46.291  63.510 -53.240  1.00  0.00    -0.247 OA
HETATM   28  C   UNL     1     -45.462  63.204 -49.858  1.00  0.00     0.116 C 
HETATM   29  H   UNL     1     -47.360  63.475 -50.918  1.00  0.00     0.165 HD
HETATM   30  C   UNL     1     -45.642  61.715 -49.514  1.00  0.00     0.041 C 
HETATM   31  C   UNL     1     -44.119  63.377 -50.606  1.00  0.00     0.256 C 
HETATM   32  C   UNL     1     -45.647  64.116 -48.648  1.00  0.00     0.041 C 
HETATM   33  C   UNL     1     -44.821  61.293 -48.296  1.00  0.00     0.007 C 
HETATM   34  C   UNL     1     -45.093  62.162 -47.061  1.00  0.00    -0.015 C 
HETATM   35  C   UNL     1     -44.884  63.647 -47.406  1.00  0.00     0.007 C 
HETATM   36  O   UNL     1     -43.008  63.337 -50.099  1.00  0.00    -0.270 OA
BRANCH  34  37
HETATM   37  C   UNL     1     -46.483  61.849 -46.471  1.00  0.00     0.000 C 
HETATM   38  C   UNL     1     -46.664  60.384 -46.096  1.00  0.00     0.005 C 
ENDBRANCH  34  37
ENDBRANCH  23  24
ENDBRANCH   1  23
TORSDOF 7
ENDMDL
MODEL 4
REMARK VINA RESULT:      -8.1     20.216     22.832
REMARK  7 active torsions:
REMARK  status: ('A' for Active; 'I' for Inactive)
REMARK    1  A    between atoms: C_2  and  C_3 
REMARK    2  A    between atoms: N_10  and  C_11 
REMARK    3  A    between atoms: C_11  and  C_12 
REMARK       I    between atoms: C_12  and  N_13 
REMARK    4  A    between atoms: N_13  and  C_14 
REMARK    5  A    between atoms: C_17  and  C_18 
REMARK       I    between atoms: C_18  and  N_19 
REMARK    6  A    between atoms: N_19  and  C_20 
REMARK    7  A    between atoms: C_21  and  O_22 
ROOT
HETATM    1  C   UNL     1     -35.009  41.757 -53.360  1.00  0.00     0.240 C 
HETATM    2  N   UNL     1     -34.102  40.741 -53.135  1.00  0.00    -0.326 N 
HETATM    3  O   UNL     1     -35.459  42.517 -52.501  1.00  0.00    -0.271 OA
HETATM    4  H   UNL     1     -33.840  40.177 -53.934  1.00  0.00     0.169 HD
ENDROOT
BRANCH   2   5
HETATM    5  C   UNL     1     -33.482  40.421 -51.902  1.00  0.00     0.034 A 
HETATM    6  C   UNL     1     -32.098  40.431 -51.697  1.00  0.00     0.030 A 
HETATM    7  C   UNL     1     -31.543  40.061 -50.464  1.00  0.00     0.019 A 
HETATM    8  C   UNL     1     -32.372  39.680 -49.407  1.00  0.00     0.032 A 
HETATM    9  C   UNL     1     -33.759  39.677 -49.600  1.00  0.00     0.019 A 
HETATM   10  C   UNL     1     -34.308  40.053 -50.835  1.00  0.00     0.030 A 
BRANCH   8  11
HETATM   11  C   UNL     1     -31.819  39.192 -48.109  1.00  0.00     0.256 C 
HETATM   12  N   UNL     1     -30.942  40.050 -47.472  1.00  0.00    -0.321 N 
HETATM   13  H   UNL     1     -30.874  41.007 -47.798  1.00  0.00     0.169 HD
HETATM   14  O   UNL     1     -32.189  38.095 -47.702  1.00  0.00    -0.267 OA
BRANCH  12  15
HETATM   15  C   UNL     1     -30.145  39.783 -46.333  1.00  0.00     0.068 A 
HETATM   16  C   UNL     1     -28.760  39.597 -46.539  1.00  0.00     0.095 A 
HETATM   17  C   UNL     1     -27.931  39.296 -45.454  1.00  0.00     0.039 A 
HETATM   18  C   UNL     1     -28.468  39.182 -44.170  1.00  0.00     0.003 A 
HETATM   19  C   UNL     1     -29.832  39.366 -43.966  1.00  0.00     0.002 A 
HETATM   20  C   UNL     1     -30.668  39.665 -45.043  1.00  0.00     0.032 A 
BRANCH  16  21
HETATM   21  O   UNL     1     -28.330  39.723 -47.842  1.00  0.00    -0.354 OA
HETATM   22  C   UNL     1     -26.971  40.102 -48.032  1.00  0.00     0.210 C 
ENDBRANCH  16  21
ENDBRANCH  12  15
ENDBRANCH   8  11
ENDBRANCH   2   5
BRANCH   1  23
HETATM   23  C   UNL     1     -35.539  41.893 -54.787  1.00  0.00     0.240 C 
BRANCH  23  24
HETATM   24  N   UNL     1     -35.847  40.702 -55.550  1.00  0.00    -0.259 N 
HETATM   25  C   UNL     1     -36.567  39.656 -55.067  1.00  0.00     0.326 C 
HETATM   26  N   UNL     1     -36.926  38.849 -56.122  1.00  0.00    -0.324 N 
HETATM   27  O   UNL     1     -36.874  39.445 -53.908  1.00  0.00    -0.247 OA
HETATM   28  C   UNL     1     -36.725  39.512 -57.400  1.00  0.00     0.116 C 
HETATM   29  H   UNL     1     -37.598  38.107 -55.963  1.00  0.00     0.165 HD
HETATM   30  C   UNL     1     -38.041  40.160 -57.864  1.00  0.00     0.041 C 
HETATM   31  C   UNL     1     -35.771  40.630 -56.916  1.00  0.00     0.256 C 
HETATM   32  C   UNL     1     -36.132  38.566 -58.440  1.00  0.00     0.041 C 
HETATM   33  C   UNL     1     -37.930  40.774 -59.259  1.00  0.00     0.007 C 
HETATM   34  C   UNL     1     -37.424  39.778 -60.312  1.00  0.00    -0.015 C 
HETATM   35  C   UNL     1     -36.094  39.156 -59.853  1.00  0.00     0.007 C 
HETATM   36  O   UNL     1     -35.160  41.409 -57.634  1.00  0.00    -0.270 OA
BRANCH  34  37
HETATM   37  C   UNL     1     -38.515  38.740 -60.648  1.00  0.00     0.000 C 
HETATM   38  C   UNL     1     -38.401  38.179 -62.058  1.00  0.00     0.005 C 
ENDBRANCH  34  37
ENDBRANCH  23  24
ENDBRANCH   1  23
TORSDOF 7
ENDMDL
MODEL 5
REMARK VINA RESULT:      -8.0     20.208     23.125
REMARK  7 active torsions:
REMARK  status: ('A' for Active; 'I' for Inactive)
REMARK    1  A    between atoms: C_2  and  C_3 
REMARK    2  A    between atoms: N_10  and  C_11 
REMARK    3  A    between atoms: C_11  and  C_12 
REMARK       I    between atoms: C_12  and  N_13 
REMARK    4  A    between atoms: N_13  and  C_14 
REMARK    5  A    between atoms: C_17  and  C_18 
REMARK       I    between atoms: C_18  and  N_19 
REMARK    6  A    between atoms: N_19  and  C_20 
REMARK    7  A    between atoms: C_21  and  O_22 
ROOT
HETATM    1  C   UNL     1     -36.039  39.920 -50.470  1.00  0.00     0.240 C 
HETATM    2  N   UNL     1     -34.773  39.388 -50.605  1.00  0.00    -0.326 N 
HETATM    3  O   UNL     1     -36.535  40.327 -49.419  1.00  0.00    -0.271 OA
HETATM    4  H   UNL     1     -34.506  39.069 -51.528  1.00  0.00     0.169 HD
ENDROOT
BRANCH   2   5
HETATM    5  C   UNL     1     -33.796  39.264 -49.586  1.00  0.00     0.034 A 
HETATM    6  C   UNL     1     -32.630  40.035 -49.522  1.00  0.00     0.030 A 
HETATM    7  C   UNL     1     -31.681  39.833 -48.511  1.00  0.00     0.019 A 
HETATM    8  C   UNL     1     -31.888  38.855 -47.537  1.00  0.00     0.032 A 
HETATM    9  C   UNL     1     -33.057  38.084 -47.588  1.00  0.00     0.019 A 
HETATM   10  C   UNL     1     -34.006  38.294 -48.600  1.00  0.00     0.030 A 
BRANCH   8  11
HETATM   11  C   UNL     1     -30.861  38.545 -46.499  1.00  0.00     0.256 C 
HETATM   12  N   UNL     1     -31.090  39.092 -45.250  1.00  0.00    -0.321 N 
HETATM   13  H   UNL     1     -32.000  39.491 -45.052  1.00  0.00     0.169 HD
HETATM   14  O   UNL     1     -29.918  37.828 -46.818  1.00  0.00    -0.267 OA
BRANCH  12  15
HETATM   15  C   UNL     1     -30.213  39.109 -44.139  1.00  0.00     0.068 A 
HETATM   16  C   UNL     1     -30.356  38.077 -43.185  1.00  0.00     0.095 A 
HETATM   17  C   UNL     1     -29.540  38.065 -42.048  1.00  0.00     0.039 A 
HETATM   18  C   UNL     1     -28.586  39.067 -41.857  1.00  0.00     0.003 A 
HETATM   19  C   UNL     1     -28.445  40.083 -42.797  1.00  0.00     0.002 A 
HETATM   20  C   UNL     1     -29.255  40.105 -43.934  1.00  0.00     0.032 A 
BRANCH  16  21
HETATM   21  O   UNL     1     -31.329  37.142 -43.460  1.00  0.00    -0.354 OA
HETATM   22  C   UNL     1     -32.473  37.143 -42.612  1.00  0.00     0.210 C 
ENDBRANCH  16  21
ENDBRANCH  12  15
ENDBRANCH   8  11
ENDBRANCH   2   5
BRANCH   1  23
HETATM   23  C   UNL     1     -36.908  39.936 -51.727  1.00  0.00     0.240 C 
BRANCH  23  24
HETATM   24  N   UNL     1     -36.284  39.826 -53.029  1.00  0.00    -0.259 N 
HETATM   25  C   UNL     1     -36.003  38.646 -53.639  1.00  0.00     0.326 C 
HETATM   26  N   UNL     1     -35.703  38.897 -54.959  1.00  0.00    -0.324 N 
HETATM   27  O   UNL     1     -36.022  37.535 -53.141  1.00  0.00    -0.247 OA
HETATM   28  C   UNL     1     -36.089  40.242 -55.352  1.00  0.00     0.116 C 
HETATM   29  H   UNL     1     -35.622  38.116 -55.599  1.00  0.00     0.165 HD
HETATM   30  C   UNL     1     -37.481  40.213 -56.009  1.00  0.00     0.041 C 
HETATM   31  C   UNL     1     -36.227  40.852 -53.936  1.00  0.00     0.256 C 
HETATM   32  C   UNL     1     -35.032  40.898 -56.236  1.00  0.00     0.041 C 
HETATM   33  C   UNL     1     -37.898  41.579 -56.553  1.00  0.00     0.007 C 
HETATM   34  C   UNL     1     -36.865  42.179 -57.517  1.00  0.00    -0.015 C 
HETATM   35  C   UNL     1     -35.483  42.230 -56.842  1.00  0.00     0.007 C 
HETATM   36  O   UNL     1     -36.396  42.035 -53.681  1.00  0.00    -0.270 OA
BRANCH  34  37
HETATM   37  C   UNL     1     -36.875  41.426 -58.863  1.00  0.00     0.000 C 
HETATM   38  C   UNL     1     -37.323  42.289 -60.034  1.00  0.00     0.005 C 
ENDBRANCH  34  37
ENDBRANCH  23  24
ENDBRANCH   1  23
TORSDOF 7
ENDMDL
MODEL 6
REMARK VINA RESULT:      -8.0      4.729      9.094
REMARK  7 active torsions:
REMARK  status: ('A' for Active; 'I' for Inactive)
REMARK    1  A    between atoms: C_2  and  C_3 
REMARK    2  A    between atoms: N_10  and  C_11 
REMARK    3  A    between atoms: C_11  and  C_12 
REMARK       I    between atoms: C_12  and  N_13 
REMARK    4  A    between atoms: N_13  and  C_14 
REMARK    5  A    between atoms: C_17  and  C_18 
REMARK       I    between atoms: C_18  and  N_19 
REMARK    6  A    between atoms: N_19  and  C_20 
REMARK    7  A    between atoms: C_21  and  O_22 
ROOT
HETATM    1  C   UNL     1     -42.328  59.529 -52.212  1.00  0.00     0.240 C 
HETATM    2  N   UNL     1     -43.114  59.466 -53.345  1.00  0.00    -0.326 N 
HETATM    3  O   UNL     1     -41.238  60.097 -52.129  1.00  0.00    -0.271 OA
HETATM    4  H   UNL     1     -43.977  58.941 -53.275  1.00  0.00     0.169 HD
ENDROOT
BRANCH   2   5
HETATM    5  C   UNL     1     -42.849  60.083 -54.592  1.00  0.00     0.034 A 
HETATM    6  C   UNL     1     -42.119  59.482 -55.623  1.00  0.00     0.030 A 
HETATM    7  C   UNL     1     -41.853  60.163 -56.819  1.00  0.00     0.019 A 
HETATM    8  C   UNL     1     -42.324  61.464 -57.006  1.00  0.00     0.032 A 
HETATM    9  C   UNL     1     -43.064  62.072 -55.983  1.00  0.00     0.019 A 
HETATM   10  C   UNL     1     -43.330  61.382 -54.790  1.00  0.00     0.030 A 
BRANCH   8  11
HETATM   11  C   UNL     1     -41.985  62.257 -58.224  1.00  0.00     0.256 C 
HETATM   12  N   UNL     1     -40.782  61.942 -58.827  1.00  0.00    -0.321 N 
HETATM   13  H   UNL     1     -40.304  61.094 -58.547  1.00  0.00     0.169 HD
HETATM   14  O   UNL     1     -42.791  63.101 -58.604  1.00  0.00    -0.267 OA
BRANCH  12  15
HETATM   15  C   UNL     1     -40.133  62.634 -59.878  1.00  0.00     0.068 A 
HETATM   16  C   UNL     1     -40.467  62.265 -61.201  1.00  0.00     0.095 A 
HETATM   17  C   UNL     1     -39.830  62.890 -62.278  1.00  0.00     0.039 A 
HETATM   18  C   UNL     1     -38.869  63.878 -62.049  1.00  0.00     0.003 A 
HETATM   19  C   UNL     1     -38.541  64.242 -60.747  1.00  0.00     0.002 A 
HETATM   20  C   UNL     1     -39.170  63.623 -59.665  1.00  0.00     0.032 A 
BRANCH  16  21
HETATM   21  O   UNL     1     -41.419  61.277 -61.321  1.00  0.00    -0.354 OA
HETATM   22  C   UNL     1     -42.513  61.547 -62.191  1.00  0.00     0.210 C 
ENDBRANCH  16  21
ENDBRANCH  12  15
ENDBRANCH   8  11
ENDBRANCH   2   5
BRANCH   1  23
HETATM   23  C   UNL     1     -42.836  58.768 -50.989  1.00  0.00     0.240 C 
BRANCH  23  24
HETATM   24  N   UNL     1     -42.977  57.329 -51.050  1.00  0.00    -0.259 N 
HETATM   25  C   UNL     1     -44.165  56.689 -51.205  1.00  0.00     0.326 C 
HETATM   26  N   UNL     1     -43.914  55.373 -51.523  1.00  0.00    -0.324 N 
HETATM   27  O   UNL     1     -45.280  57.168 -51.104  1.00  0.00    -0.247 OA
HETATM   28  C   UNL     1     -42.528  55.168 -51.909  1.00  0.00     0.116 C 
HETATM   29  H   UNL     1     -44.684  54.789 -51.827  1.00  0.00     0.165 HD
HETATM   30  C   UNL     1     -42.399  55.228 -53.441  1.00  0.00     0.041 C 
HETATM   31  C   UNL     1     -41.941  56.471 -51.315  1.00  0.00     0.256 C 
HETATM   32  C   UNL     1     -41.962  53.880 -51.319  1.00  0.00     0.041 C 
HETATM   33  C   UNL     1     -40.985  54.902 -53.922  1.00  0.00     0.007 C 
HETATM   34  C   UNL     1     -40.470  53.556 -53.396  1.00  0.00    -0.015 C 
HETATM   35  C   UNL     1     -40.577  53.515 -51.861  1.00  0.00     0.007 C 
HETATM   36  O   UNL     1     -40.753  56.745 -51.226  1.00  0.00    -0.270 OA
BRANCH  34  37
HETATM   37  C   UNL     1     -41.186  52.386 -54.102  1.00  0.00     0.000 C 
HETATM   38  C   UNL     1     -40.315  51.147 -54.253  1.00  0.00     0.005 C 
ENDBRANCH  34  37
ENDBRANCH  23  24
ENDBRANCH   1  23
TORSDOF 7
ENDMDL
MODEL 7
REMARK VINA RESULT:      -8.0      1.464      2.432
REMARK  7 active torsions:
REMARK  status: ('A' for Active; 'I' for Inactive)
REMARK    1  A    between atoms: C_2  and  C_3 
REMARK    2  A    between atoms: N_10  and  C_11 
REMARK    3  A    between atoms: C_11  and  C_12 
REMARK       I    between atoms: C_12  and  N_13 
REMARK    4  A    between atoms: N_13  and  C_14 
REMARK    5  A    between atoms: C_17  and  C_18 
REMARK       I    between atoms: C_18  and  N_19 
REMARK    6  A    between atoms: N_19  and  C_20 
REMARK    7  A    between atoms: C_21  and  O_22 
ROOT
HETATM    1  C   UNL     1     -44.570  58.999 -53.503  1.00  0.00     0.240 C 
HETATM    2  N   UNL     1     -43.965  58.921 -52.265  1.00  0.00    -0.326 N 
HETATM    3  O   UNL     1     -45.435  59.814 -53.826  1.00  0.00    -0.271 OA
HETATM    4  H   UNL     1     -43.287  58.181 -52.133  1.00  0.00     0.169 HD
ENDROOT
BRANCH   2   5
HETATM    5  C   UNL     1     -44.178  59.788 -51.166  1.00  0.00     0.034 A 
HETATM    6  C   UNL     1     -45.301  59.734 -50.332  1.00  0.00     0.030 A 
HETATM    7  C   UNL     1     -45.474  60.651 -49.286  1.00  0.00     0.019 A 
HETATM    8  C   UNL     1     -44.515  61.638 -49.050  1.00  0.00     0.032 A 
HETATM    9  C   UNL     1     -43.383  61.694 -49.874  1.00  0.00     0.019 A 
HETATM   10  C   UNL     1     -43.213  60.771 -50.916  1.00  0.00     0.030 A 
BRANCH   8  11
HETATM   11  C   UNL     1     -44.705  62.688 -48.007  1.00  0.00     0.256 C 
HETATM   12  N   UNL     1     -45.177  62.241 -46.787  1.00  0.00    -0.321 N 
HETATM   13  H   UNL     1     -45.181  61.244 -46.602  1.00  0.00     0.169 HD
HETATM   14  O   UNL     1     -44.418  63.845 -48.296  1.00  0.00    -0.267 OA
BRANCH  12  15
HETATM   15  C   UNL     1     -45.607  63.020 -45.687  1.00  0.00     0.068 A 
HETATM   16  C   UNL     1     -46.937  63.499 -45.711  1.00  0.00     0.095 A 
HETATM   17  C   UNL     1     -47.404  64.304 -44.667  1.00  0.00     0.039 A 
HETATM   18  C   UNL     1     -46.562  64.633 -43.603  1.00  0.00     0.003 A 
HETATM   19  C   UNL     1     -45.253  64.162 -43.578  1.00  0.00     0.002 A 
HETATM   20  C   UNL     1     -44.776  63.359 -44.616  1.00  0.00     0.032 A 
BRANCH  16  21
HETATM   21  O   UNL     1     -47.684  63.126 -46.807  1.00  0.00    -0.354 OA
HETATM   22  C   UNL     1     -48.154  64.175 -47.646  1.00  0.00     0.210 C 
ENDBRANCH  16  21
ENDBRANCH  12  15
ENDBRANCH   8  11
ENDBRANCH   2   5
BRANCH   1  23
HETATM   23  C   UNL     1     -44.171  57.934 -54.524  1.00  0.00     0.240 C 
BRANCH  23  24
HETATM   24  N   UNL     1     -42.904  57.248 -54.382  1.00  0.00    -0.259 N 
HETATM   25  C   UNL     1     -41.700  57.875 -54.353  1.00  0.00     0.326 C 
HETATM   26  N   UNL     1     -40.752  56.980 -53.911  1.00  0.00    -0.324 N 
HETATM   27  O   UNL     1     -41.465  59.034 -54.644  1.00  0.00    -0.247 OA
HETATM   28  C   UNL     1     -41.360  55.801 -53.320  1.00  0.00     0.116 C 
HETATM   29  H   UNL     1     -39.827  57.324 -53.679  1.00  0.00     0.165 HD
HETATM   30  C   UNL     1     -41.448  55.969 -51.792  1.00  0.00     0.041 C 
HETATM   31  C   UNL     1     -42.779  55.966 -53.914  1.00  0.00     0.256 C 
HETATM   32  C   UNL     1     -40.634  54.523 -53.732  1.00  0.00     0.041 C 
HETATM   33  C   UNL     1     -41.970  54.714 -51.094  1.00  0.00     0.007 C 
HETATM   34  C   UNL     1     -41.165  53.455 -51.447  1.00  0.00    -0.015 C 
HETATM   35  C   UNL     1     -41.107  53.279 -52.975  1.00  0.00     0.007 C 
HETATM   36  O   UNL     1     -43.680  55.142 -53.853  1.00  0.00    -0.270 OA
BRANCH  34  37
HETATM   37  C   UNL     1     -39.780  53.488 -50.769  1.00  0.00     0.000 C 
HETATM   38  C   UNL     1     -39.800  54.126 -49.388  1.00  0.00     0.005 C 
ENDBRANCH  34  37
ENDBRANCH  23  24
ENDBRANCH   1  23
TORSDOF 7
ENDMDL
MODEL 8
REMARK VINA RESULT:      -7.8      5.420      9.812
REMARK  7 active torsions:
REMARK  status: ('A' for Active; 'I' for Inactive)
REMARK    1  A    between atoms: C_2  and  C_3 
REMARK    2  A    between atoms: N_10  and  C_11 
REMARK    3  A    between atoms: C_11  and  C_12 
REMARK       I    between atoms: C_12  and  N_13 
REMARK    4  A    between atoms: N_13  and  C_14 
REMARK    5  A    between atoms: C_17  and  C_18 
REMARK       I    between atoms: C_18  and  N_19 
REMARK    6  A    between atoms: N_19  and  C_20 
REMARK    7  A    between atoms: C_21  and  O_22 
ROOT
HETATM    1  C   UNL     1     -43.252  58.108 -53.337  1.00  0.00     0.240 C 
HETATM    2  N   UNL     1     -42.282  57.821 -54.275  1.00  0.00    -0.326 N 
HETATM    3  O   UNL     1     -44.302  58.714 -53.556  1.00  0.00    -0.271 OA
HETATM    4  H   UNL     1     -41.456  57.337 -53.946  1.00  0.00     0.169 HD
ENDROOT
BRANCH   2   5
HETATM    5  C   UNL     1     -42.335  58.112 -55.661  1.00  0.00     0.034 A 
HETATM    6  C   UNL     1     -42.600  57.160 -56.651  1.00  0.00     0.030 A 
HETATM    7  C   UNL     1     -42.595  57.505 -58.010  1.00  0.00     0.019 A 
HETATM    8  C   UNL     1     -42.330  58.819 -58.401  1.00  0.00     0.032 A 
HETATM    9  C   UNL     1     -42.073  59.781 -57.416  1.00  0.00     0.019 A 
HETATM   10  C   UNL     1     -42.084  59.431 -56.057  1.00  0.00     0.030 A 
BRANCH   8  11
HETATM   11  C   UNL     1     -42.224  59.207 -59.839  1.00  0.00     0.256 C 
HETATM   12  N   UNL     1     -42.667  60.479 -60.148  1.00  0.00    -0.321 N 
HETATM   13  H   UNL     1     -42.847  61.130 -59.392  1.00  0.00     0.169 HD
HETATM   14  O   UNL     1     -41.746  58.393 -60.621  1.00  0.00    -0.267 OA
BRANCH  12  15
HETATM   15  C   UNL     1     -42.844  61.046 -61.433  1.00  0.00     0.068 A 
HETATM   16  C   UNL     1     -41.887  61.994 -61.861  1.00  0.00     0.095 A 
HETATM   17  C   UNL     1     -42.033  62.612 -63.107  1.00  0.00     0.039 A 
HETATM   18  C   UNL     1     -43.117  62.293 -63.928  1.00  0.00     0.003 A 
HETATM   19  C   UNL     1     -44.058  61.359 -63.507  1.00  0.00     0.002 A 
HETATM   20  C   UNL     1     -43.924  60.738 -62.265  1.00  0.00     0.032 A 
BRANCH  16  21
HETATM   21  O   UNL     1     -40.861  62.245 -60.977  1.00  0.00    -0.354 OA
HETATM   22  C   UNL     1     -39.721  62.920 -61.498  1.00  0.00     0.210 C 
ENDBRANCH  16  21
ENDBRANCH  12  15
ENDBRANCH   8  11
ENDBRANCH   2   5
BRANCH   1  23
HETATM   23  C   UNL     1     -42.951  57.692 -51.898  1.00  0.00     0.240 C 
BRANCH  23  24
HETATM   24  N   UNL     1     -42.669  56.304 -51.599  1.00  0.00    -0.259 N 
HETATM   25  C   UNL     1     -43.575  55.444 -51.065  1.00  0.00     0.326 C 
HETATM   26  N   UNL     1     -43.088  54.163 -51.192  1.00  0.00    -0.324 N 
HETATM   27  O   UNL     1     -44.651  55.722 -50.566  1.00  0.00    -0.247 OA
HETATM   28  C   UNL     1     -41.969  54.102 -52.116  1.00  0.00     0.116 C 
HETATM   29  H   UNL     1     -43.704  53.384 -50.989  1.00  0.00     0.165 HD
HETATM   30  C   UNL     1     -42.469  53.707 -53.517  1.00  0.00     0.041 C 
HETATM   31  C   UNL     1     -41.614  55.608 -52.128  1.00  0.00     0.256 C 
HETATM   32  C   UNL     1     -40.862  53.184 -51.604  1.00  0.00     0.041 C 
HETATM   33  C   UNL     1     -41.327  53.508 -54.512  1.00  0.00     0.007 C 
HETATM   34  C   UNL     1     -40.272  52.507 -54.020  1.00  0.00    -0.015 C 
HETATM   35  C   UNL     1     -39.757  52.925 -52.632  1.00  0.00     0.007 C 
HETATM   36  O   UNL     1     -40.625  56.105 -52.647  1.00  0.00    -0.270 OA
BRANCH  34  37
HETATM   37  C   UNL     1     -40.823  51.067 -54.073  1.00  0.00     0.000 C 
HETATM   38  C   UNL     1     -39.762  50.027 -54.402  1.00  0.00     0.005 C 
ENDBRANCH  34  37
ENDBRANCH  23  24
ENDBRANCH   1  23
TORSDOF 7
ENDMDL
MODEL 9
REMARK VINA RESULT:      -7.8      5.658     10.172
REMARK  7 active torsions:
REMARK  status: ('A' for Active; 'I' for Inactive)
REMARK    1  A    between atoms: C_2  and  C_3 
REMARK    2  A    between atoms: N_10  and  C_11 
REMARK    3  A    between atoms: C_11  and  C_12 
REMARK       I    between atoms: C_12  and  N_13 
REMARK    4  A    between atoms: N_13  and  C_14 
REMARK    5  A    between atoms: C_17  and  C_18 
REMARK       I    between atoms: C_18  and  N_19 
REMARK    6  A    between atoms: N_19  and  C_20 
REMARK    7  A    between atoms: C_21  and  O_22 
ROOT
HETATM    1  C   UNL     1     -42.889  60.809 -54.465  1.00  0.00     0.240 C 
HETATM    2  N   UNL     1     -42.917  59.590 -55.112  1.00  0.00    -0.326 N 
HETATM    3  O   UNL     1     -42.659  60.977 -53.267  1.00  0.00    -0.271 OA
HETATM    4  H   UNL     1     -43.147  59.601 -56.098  1.00  0.00     0.169 HD
ENDROOT
BRANCH   2   5
HETATM    5  C   UNL     1     -42.633  58.325 -54.542  1.00  0.00     0.034 A 
HETATM    6  C   UNL     1     -41.368  57.937 -54.088  1.00  0.00     0.030 A 
HETATM    7  C   UNL     1     -41.143  56.653 -53.572  1.00  0.00     0.019 A 
HETATM    8  C   UNL     1     -42.190  55.733 -53.497  1.00  0.00     0.032 A 
HETATM    9  C   UNL     1     -43.463  56.115 -53.940  1.00  0.00     0.019 A 
HETATM   10  C   UNL     1     -43.683  57.404 -54.450  1.00  0.00     0.030 A 
BRANCH   8  11
HETATM   11  C   UNL     1     -41.973  54.328 -53.042  1.00  0.00     0.256 C 
HETATM   12  N   UNL     1     -40.792  53.741 -53.456  1.00  0.00    -0.321 N 
HETATM   13  H   UNL     1     -40.071  54.329 -53.860  1.00  0.00     0.169 HD
HETATM   14  O   UNL     1     -42.832  53.813 -52.334  1.00  0.00    -0.267 OA
BRANCH  12  15
HETATM   15  C   UNL     1     -40.405  52.386 -53.322  1.00  0.00     0.068 A 
HETATM   16  C   UNL     1     -39.813  51.998 -52.099  1.00  0.00     0.095 A 
HETATM   17  C   UNL     1     -39.379  50.680 -51.925  1.00  0.00     0.039 A 
HETATM   18  C   UNL     1     -39.531  49.749 -52.954  1.00  0.00     0.003 A 
HETATM   19  C   UNL     1     -40.114  50.130 -54.159  1.00  0.00     0.002 A 
HETATM   20  C   UNL     1     -40.549  51.444 -54.343  1.00  0.00     0.032 A 
BRANCH  16  21
HETATM   21  O   UNL     1     -39.701  52.991 -51.150  1.00  0.00    -0.354 OA
HETATM   22  C   UNL     1     -40.413  52.794 -49.933  1.00  0.00     0.210 C 
ENDBRANCH  16  21
ENDBRANCH  12  15
ENDBRANCH   8  11
ENDBRANCH   2   5
BRANCH   1  23
HETATM   23  C   UNL     1     -43.242  62.034 -55.307  1.00  0.00     0.240 C 
BRANCH  23  24
HETATM   24  N   UNL     1     -43.907  61.859 -56.581  1.00  0.00    -0.259 N 
HETATM   25  C   UNL     1     -43.308  62.059 -57.784  1.00  0.00     0.326 C 
HETATM   26  N   UNL     1     -44.110  61.522 -58.765  1.00  0.00    -0.324 N 
HETATM   27  O   UNL     1     -42.238  62.602 -57.994  1.00  0.00    -0.247 OA
HETATM   28  C   UNL     1     -45.132  60.652 -58.209  1.00  0.00     0.116 C 
HETATM   29  H   UNL     1     -43.743  61.443 -59.706  1.00  0.00     0.165 HD
HETATM   30  C   UNL     1     -44.651  59.190 -58.250  1.00  0.00     0.041 C 
HETATM   31  C   UNL     1     -45.067  61.148 -56.745  1.00  0.00     0.256 C 
HETATM   32  C   UNL     1     -46.479  60.850 -58.897  1.00  0.00     0.041 C 
HETATM   33  C   UNL     1     -45.727  58.207 -57.788  1.00  0.00     0.007 C 
HETATM   34  C   UNL     1     -47.045  58.358 -58.560  1.00  0.00    -0.015 C 
HETATM   35  C   UNL     1     -47.533  59.816 -58.489  1.00  0.00     0.007 C 
HETATM   36  O   UNL     1     -45.844  60.844 -55.851  1.00  0.00    -0.270 OA
BRANCH  34  37
HETATM   37  C   UNL     1     -46.898  57.818 -59.997  1.00  0.00     0.000 C 
HETATM   38  C   UNL     1     -46.789  56.301 -60.063  1.00  0.00     0.005 C 
ENDBRANCH  34  37
ENDBRANCH  23  24
ENDBRANCH   1  23
TORSDOF 7
ENDMDL
MODEL 10
REMARK VINA RESULT:      -7.8      2.567     10.492
REMARK  7 active torsions:
REMARK  status: ('A' for Active; 'I' for Inactive)
REMARK    1  A    between atoms: C_2  and  C_3 
REMARK    2  A    between atoms: N_10  and  C_11 
REMARK    3  A    between atoms: C_11  and  C_12 
REMARK       I    between atoms: C_12  and  N_13 
REMARK    4  A    between atoms: N_13  and  C_14 
REMARK    5  A    between atoms: C_17  and  C_18 
REMARK       I    between atoms: C_18  and  N_19 
REMARK    6  A    between atoms: N_19  and  C_20 
REMARK    7  A    between atoms: C_21  and  O_22 
ROOT
HETATM    1  C   UNL     1     -42.519  60.446 -53.142  1.00  0.00     0.240 C 
HETATM    2  N   UNL     1     -42.844  59.866 -51.933  1.00  0.00    -0.326 N 
HETATM    3  O   UNL     1     -41.812  59.936 -54.012  1.00  0.00    -0.271 OA
HETATM    4  H   UNL     1     -43.415  60.413 -51.302  1.00  0.00     0.169 HD
ENDROOT
BRANCH   2   5
HETATM    5  C   UNL     1     -42.480  58.569 -51.494  1.00  0.00     0.034 A 
HETATM    6  C   UNL     1     -41.238  58.253 -50.933  1.00  0.00     0.030 A 
HETATM    7  C   UNL     1     -40.923  56.939 -50.558  1.00  0.00     0.019 A 
HETATM    8  C   UNL     1     -41.856  55.916 -50.733  1.00  0.00     0.032 A 
HETATM    9  C   UNL     1     -43.107  56.224 -51.284  1.00  0.00     0.019 A 
HETATM   10  C   UNL     1     -43.418  57.542 -51.653  1.00  0.00     0.030 A 
BRANCH   8  11
HETATM   11  C   UNL     1     -41.529  54.490 -50.433  1.00  0.00     0.256 C 
HETATM   12  N   UNL     1     -40.639  53.886 -51.301  1.00  0.00    -0.321 N 
HETATM   13  H   UNL     1     -40.121  54.467 -51.951  1.00  0.00     0.169 HD
HETATM   14  O   UNL     1     -42.048  53.975 -49.448  1.00  0.00    -0.267 OA
BRANCH  12  15
HETATM   15  C   UNL     1     -40.284  52.517 -51.363  1.00  0.00     0.068 A 
HETATM   16  C   UNL     1     -39.987  51.981 -52.636  1.00  0.00     0.095 A 
HETATM   17  C   UNL     1     -39.665  50.625 -52.760  1.00  0.00     0.039 A 
HETATM   18  C   UNL     1     -39.635  49.804 -51.631  1.00  0.00     0.003 A 
HETATM   19  C   UNL     1     -39.926  50.332 -50.377  1.00  0.00     0.002 A 
HETATM   20  C   UNL     1     -40.250  51.684 -50.242  1.00  0.00     0.032 A 
BRANCH  16  21
HETATM   21  O   UNL     1     -40.052  52.869 -53.687  1.00  0.00    -0.354 OA
HETATM   22  C   UNL     1     -41.245  52.852 -54.464  1.00  0.00     0.210 C 
ENDBRANCH  16  21
ENDBRANCH  12  15
ENDBRANCH   8  11
ENDBRANCH   2   5
BRANCH   1  23
HETATM   23  C   UNL     1     -43.032  61.866 -53.375  1.00  0.00     0.240 C 
BRANCH  23  24
HETATM   24  N   UNL     1     -44.083  62.394 -52.532  1.00  0.00    -0.259 N 
HETATM   25  C   UNL     1     -45.408  62.288 -52.815  1.00  0.00     0.326 C 
HETATM   26  N   UNL     1     -46.123  62.616 -51.685  1.00  0.00    -0.324 N 
HETATM   27  O   UNL     1     -45.912  61.948 -53.870  1.00  0.00    -0.247 OA
HETATM   28  C   UNL     1     -45.279  62.644 -50.503  1.00  0.00     0.116 C 
HETATM   29  H   UNL     1     -47.120  62.440 -51.671  1.00  0.00     0.165 HD
HETATM   30  C   UNL     1     -45.361  61.291 -49.772  1.00  0.00     0.041 C 
HETATM   31  C   UNL     1     -43.908  62.734 -51.216  1.00  0.00     0.256 C 
HETATM   32  C   UNL     1     -45.612  63.826 -49.597  1.00  0.00     0.041 C 
HETATM   33  C   UNL     1     -44.588  61.291 -48.454  1.00  0.00     0.007 C 
HETATM   34  C   UNL     1     -45.007  62.432 -47.515  1.00  0.00    -0.015 C 
HETATM   35  C   UNL     1     -44.895  63.782 -48.245  1.00  0.00     0.007 C 
HETATM   36  O   UNL     1     -42.832  62.936 -50.673  1.00  0.00    -0.270 OA
BRANCH  34  37
HETATM   37  C   UNL     1     -46.403  62.159 -46.918  1.00  0.00     0.000 C 
HETATM   38  C   UNL     1     -46.745  63.068 -45.746  1.00  0.00     0.005 C 
ENDBRANCH  34  37
ENDBRANCH  23  24
ENDBRANCH   1  23
TORSDOF 7
ENDMDL
