MODEL 1
REMARK VINA RESULT:      -8.0      0.000      0.000
REMARK  7 active torsions:
REMARK  status: ('A' for Active; 'I' for Inactive)
REMARK    1  A    between atoms: C_3  and  N_4 
REMARK       I    between atoms: N_4  and  C_5 
REMARK    2  A    between atoms: C_5  and  C_6 
REMARK    3  A    between atoms: C_7  and  C_8 
REMARK    4  A    between atoms: C_20  and  C_21 
REMARK    5  A    between atoms: C_21  and  C_22 
REMARK    6  A    between atoms: C_22  and  C_23 
REMARK    7  A    between atoms: C_23  and  O_24 
ROOT
HETATM    1  C   UNL     1     -42.346  57.078 -52.417  1.00  0.00     0.062 A 
HETATM    2  C   UNL     1     -43.499  57.485 -53.330  1.00  0.00     0.202 A 
HETATM    3  N   UNL     1     -44.183  58.690 -52.849  1.00  0.00    -0.083 N 
HETATM    4  C   UNL     1     -43.862  59.341 -51.692  1.00  0.00     0.726 A 
HETATM    5  N   UNL     1     -42.845  58.883 -50.943  1.00  0.00    -0.192 N 
HETATM    6  N   UNL     1     -45.293  59.212 -53.415  1.00  0.00    -0.140 NA
HETATM    7  C   UNL     1     -45.535  60.240 -52.587  1.00  0.00     0.166 A 
HETATM    8  N   UNL     1     -44.680  60.345 -51.514  1.00  0.00    -0.046 NA
HETATM    9  C   UNL     1     -42.077  57.775 -51.281  1.00  0.00     0.037 A 
HETATM   10  C   UNL     1     -40.984  57.425 -50.298  1.00  0.00     0.070 C 
HETATM   11  H   UNL     1     -42.607  59.380 -50.088  1.00  0.00     0.184 HD
ENDROOT
BRANCH   1  12
HETATM   12  C   UNL     1     -41.434  55.969 -52.843  1.00  0.00     0.256 C 
HETATM   13  N   UNL     1     -41.743  54.722 -52.338  1.00  0.00    -0.323 N 
HETATM   14  H   UNL     1     -42.664  54.578 -51.956  1.00  0.00     0.169 HD
HETATM   15  O   UNL     1     -40.552  56.205 -53.663  1.00  0.00    -0.267 OA
BRANCH  13  16
HETATM   16  C   UNL     1     -41.059  53.531 -52.680  1.00  0.00     0.041 A 
HETATM   17  C   UNL     1     -40.149  52.858 -51.845  1.00  0.00    -0.035 A 
HETATM   18  C   UNL     1     -39.868  53.240 -50.418  1.00  0.00     0.050 C 
HETATM   19  C   UNL     1     -39.485  51.721 -52.344  1.00  0.00     0.009 A 
HETATM   20  C   UNL     1     -39.756  51.226 -53.619  1.00  0.00     0.001 A 
HETATM   21  C   UNL     1     -40.709  51.852 -54.412  1.00  0.00     0.002 A 
HETATM   22  C   UNL     1     -41.366  52.990 -53.940  1.00  0.00     0.030 A 
ENDBRANCH  13  16
ENDBRANCH   1  12
BRANCH   2  23
HETATM   23  C   UNL     1     -43.103  57.658 -54.795  1.00  0.00    -0.026 A 
HETATM   24  C   UNL     1     -43.365  56.624 -55.714  1.00  0.00     0.035 A 
HETATM   25  C   UNL     1     -42.989  56.743 -57.057  1.00  0.00     0.056 A 
HETATM   26 CL   UNL     1     -43.322  55.407 -58.101  1.00  0.00    -0.083 Cl
HETATM   27  C   UNL     1     -42.356  57.906 -57.502  1.00  0.00     0.055 A 
HETATM   28 CL   UNL     1     -41.858  58.120 -59.142  1.00  0.00    -0.083 Cl
HETATM   29  C   UNL     1     -42.109  58.947 -56.603  1.00  0.00     0.026 A 
HETATM   30  C   UNL     1     -42.481  58.827 -55.260  1.00  0.00     0.011 A 
ENDBRANCH   2  23
BRANCH   7  31
HETATM   31  C   UNL     1     -46.666  61.182 -52.777  1.00  0.00     0.085 C 
BRANCH  31  32
HETATM   32  C   UNL     1     -46.379  62.583 -52.242  1.00  0.00     0.034 C 
BRANCH  32  33
HETATM   33  C   UNL     1     -47.151  62.909 -50.968  1.00  0.00     0.164 C 
BRANCH  33  34
HETATM   34  O   UNL     1     -46.581  62.202 -49.872  1.00  0.00    -0.401 OA
HETATM   35  H   UNL     1     -46.147  62.855 -49.297  1.00  0.00     0.209 HD
ENDBRANCH  33  34
ENDBRANCH  32  33
ENDBRANCH  31  32
ENDBRANCH   7  31
TORSDOF 7
ENDMDL
MODEL 2
REMARK VINA RESULT:      -8.0      3.604      5.977
REMARK  7 active torsions:
REMARK  status: ('A' for Active; 'I' for Inactive)
REMARK    1  A    between atoms: C_3  and  N_4 
REMARK       I    between atoms: N_4  and  C_5 
REMARK    2  A    between atoms: C_5  and  C_6 
REMARK    3  A    between atoms: C_7  and  C_8 
REMARK    4  A    between atoms: C_20  and  C_21 
REMARK    5  A    between atoms: C_21  and  C_22 
REMARK    6  A    between atoms: C_22  and  C_23 
REMARK    7  A    between atoms: C_23  and  O_24 
ROOT
HETATM    1  C   UNL     1     -42.360  56.020 -54.528  1.00  0.00     0.062 A 
HETATM    2  C   UNL     1     -41.989  57.498 -54.614  1.00  0.00     0.202 A 
HETATM    3  N   UNL     1     -42.198  58.041 -55.961  1.00  0.00    -0.083 N 
HETATM    4  C   UNL     1     -42.622  57.299 -57.026  1.00  0.00     0.726 A 
HETATM    5  N   UNL     1     -42.896  55.996 -56.850  1.00  0.00    -0.192 N 
HETATM    6  N   UNL     1     -41.863  59.294 -56.336  1.00  0.00    -0.140 NA
HETATM    7  C   UNL     1     -42.200  59.263 -57.635  1.00  0.00     0.166 A 
HETATM    8  N   UNL     1     -42.664  58.052 -58.094  1.00  0.00    -0.046 NA
HETATM    9  C   UNL     1     -42.782  55.343 -55.628  1.00  0.00     0.037 A 
HETATM   10  C   UNL     1     -43.132  53.873 -55.648  1.00  0.00     0.070 C 
HETATM   11  H   UNL     1     -43.220  55.454 -57.647  1.00  0.00     0.184 HD
ENDROOT
BRANCH   1  12
HETATM   12  C   UNL     1     -42.367  55.347 -53.190  1.00  0.00     0.256 C 
HETATM   13  N   UNL     1     -41.127  55.174 -52.609  1.00  0.00    -0.323 N 
HETATM   14  H   UNL     1     -40.355  55.719 -52.960  1.00  0.00     0.169 HD
HETATM   15  O   UNL     1     -43.442  55.081 -52.663  1.00  0.00    -0.267 OA
BRANCH  13  16
HETATM   16  C   UNL     1     -40.920  54.635 -51.316  1.00  0.00     0.041 A 
HETATM   17  C   UNL     1     -40.474  53.327 -51.052  1.00  0.00    -0.035 A 
HETATM   18  C   UNL     1     -40.032  52.355 -52.110  1.00  0.00     0.050 C 
HETATM   19  C   UNL     1     -40.383  52.901 -49.713  1.00  0.00     0.009 A 
HETATM   20  C   UNL     1     -40.670  53.764 -48.657  1.00  0.00     0.001 A 
HETATM   21  C   UNL     1     -41.040  55.077 -48.922  1.00  0.00     0.002 A 
HETATM   22  C   UNL     1     -41.152  55.513 -50.243  1.00  0.00     0.030 A 
ENDBRANCH  13  16
ENDBRANCH   1  12
BRANCH   2  23
HETATM   23  C   UNL     1     -42.690  58.378 -53.581  1.00  0.00    -0.026 A 
HETATM   24  C   UNL     1     -41.947  58.941 -52.526  1.00  0.00     0.035 A 
HETATM   25  C   UNL     1     -42.567  59.728 -51.549  1.00  0.00     0.056 A 
HETATM   26 CL   UNL     1     -41.578  60.345 -50.274  1.00  0.00    -0.083 Cl
HETATM   27  C   UNL     1     -43.940  59.976 -51.624  1.00  0.00     0.055 A 
HETATM   28 CL   UNL     1     -44.774  60.932 -50.452  1.00  0.00    -0.083 Cl
HETATM   29  C   UNL     1     -44.683  59.440 -52.678  1.00  0.00     0.026 A 
HETATM   30  C   UNL     1     -44.065  58.649 -53.652  1.00  0.00     0.011 A 
ENDBRANCH   2  23
BRANCH   7  31
HETATM   31  C   UNL     1     -42.052  60.433 -58.537  1.00  0.00     0.085 C 
BRANCH  31  32
HETATM   32  C   UNL     1     -42.821  60.285 -59.848  1.00  0.00     0.034 C 
BRANCH  32  33
HETATM   33  C   UNL     1     -41.926  59.942 -61.034  1.00  0.00     0.164 C 
BRANCH  33  34
HETATM   34  O   UNL     1     -41.582  58.562 -60.987  1.00  0.00    -0.401 OA
HETATM   35  H   UNL     1     -41.266  58.309 -61.872  1.00  0.00     0.209 HD
ENDBRANCH  33  34
ENDBRANCH  32  33
ENDBRANCH  31  32
ENDBRANCH   7  31
TORSDOF 7
ENDMDL
MODEL 3
REMARK VINA RESULT:      -7.9      3.973      6.104
REMARK  7 active torsions:
REMARK  status: ('A' for Active; 'I' for Inactive)
REMARK    1  A    between atoms: C_3  and  N_4 
REMARK       I    between atoms: N_4  and  C_5 
REMARK    2  A    between atoms: C_5  and  C_6 
REMARK    3  A    between atoms: C_7  and  C_8 
REMARK    4  A    between atoms: C_20  and  C_21 
REMARK    5  A    between atoms: C_21  and  C_22 
REMARK    6  A    between atoms: C_22  and  C_23 
REMARK    7  A    between atoms: C_23  and  O_24 
ROOT
HETATM    1  C   UNL     1     -42.303  56.940 -56.685  1.00  0.00     0.062 A 
HETATM    2  C   UNL     1     -41.751  58.304 -56.280  1.00  0.00     0.202 A 
HETATM    3  N   UNL     1     -42.002  59.325 -57.303  1.00  0.00    -0.083 N 
HETATM    4  C   UNL     1     -42.609  59.074 -58.500  1.00  0.00     0.726 A 
HETATM    5  N   UNL     1     -43.035  57.829 -58.771  1.00  0.00    -0.192 N 
HETATM    6  N   UNL     1     -41.539  60.592 -57.242  1.00  0.00    -0.140 NA
HETATM    7  C   UNL     1     -41.988  61.077 -58.411  1.00  0.00     0.166 A 
HETATM    8  N   UNL     1     -42.643  60.171 -59.211  1.00  0.00    -0.046 NA
HETATM    9  C   UNL     1     -42.904  56.761 -57.891  1.00  0.00     0.037 A 
HETATM   10  C   UNL     1     -43.444  55.443 -58.393  1.00  0.00     0.070 C 
HETATM   11  H   UNL     1     -43.495  57.654 -59.661  1.00  0.00     0.184 HD
ENDROOT
BRANCH   1  12
HETATM   12  C   UNL     1     -42.284  55.821 -55.689  1.00  0.00     0.256 C 
HETATM   13  N   UNL     1     -41.029  55.375 -55.326  1.00  0.00    -0.323 N 
HETATM   14  H   UNL     1     -40.237  55.966 -55.523  1.00  0.00     0.169 HD
HETATM   15  O   UNL     1     -43.342  55.440 -55.200  1.00  0.00    -0.267 OA
BRANCH  13  16
HETATM   16  C   UNL     1     -40.788  54.385 -54.343  1.00  0.00     0.041 A 
HETATM   17  C   UNL     1     -40.906  54.583 -52.955  1.00  0.00    -0.035 A 
HETATM   18  C   UNL     1     -41.430  55.843 -52.323  1.00  0.00     0.050 C 
HETATM   19  C   UNL     1     -40.562  53.528 -52.089  1.00  0.00     0.009 A 
HETATM   20  C   UNL     1     -40.165  52.286 -52.582  1.00  0.00     0.001 A 
HETATM   21  C   UNL     1     -40.120  52.073 -53.954  1.00  0.00     0.002 A 
HETATM   22  C   UNL     1     -40.441  53.112 -54.829  1.00  0.00     0.030 A 
ENDBRANCH  13  16
ENDBRANCH   1  12
BRANCH   2  23
HETATM   23  C   UNL     1     -42.240  58.796 -54.919  1.00  0.00    -0.026 A 
HETATM   24  C   UNL     1     -41.317  58.978 -53.872  1.00  0.00     0.035 A 
HETATM   25  C   UNL     1     -41.740  59.401 -52.606  1.00  0.00     0.056 A 
HETATM   26 CL   UNL     1     -40.538  59.562 -51.375  1.00  0.00    -0.083 Cl
HETATM   27  C   UNL     1     -43.092  59.662 -52.375  1.00  0.00     0.055 A 
HETATM   28 CL   UNL     1     -43.687  60.181 -50.839  1.00  0.00    -0.083 Cl
HETATM   29  C   UNL     1     -44.014  59.505 -53.414  1.00  0.00     0.026 A 
HETATM   30  C   UNL     1     -43.593  59.078 -54.677  1.00  0.00     0.011 A 
ENDBRANCH   2  23
BRANCH   7  31
HETATM   31  C   UNL     1     -41.765  62.480 -58.843  1.00  0.00     0.085 C 
BRANCH  31  32
HETATM   32  C   UNL     1     -40.551  62.645 -59.754  1.00  0.00     0.034 C 
BRANCH  32  33
HETATM   33  C   UNL     1     -40.917  62.722 -61.232  1.00  0.00     0.164 C 
BRANCH  33  34
HETATM   34  O   UNL     1     -41.132  61.408 -61.738  1.00  0.00    -0.401 OA
HETATM   35  H   UNL     1     -40.626  60.793 -61.181  1.00  0.00     0.209 HD
ENDBRANCH  33  34
ENDBRANCH  32  33
ENDBRANCH  31  32
ENDBRANCH   7  31
TORSDOF 7
ENDMDL
MODEL 4
REMARK VINA RESULT:      -7.9      1.675      2.547
REMARK  7 active torsions:
REMARK  status: ('A' for Active; 'I' for Inactive)
REMARK    1  A    between atoms: C_3  and  N_4 
REMARK       I    between atoms: N_4  and  C_5 
REMARK    2  A    between atoms: C_5  and  C_6 
REMARK    3  A    between atoms: C_7  and  C_8 
REMARK    4  A    between atoms: C_20  and  C_21 
REMARK    5  A    between atoms: C_21  and  C_22 
REMARK    6  A    between atoms: C_22  and  C_23 
REMARK    7  A    between atoms: C_23  and  O_24 
ROOT
HETATM    1  C   UNL     1     -42.129  55.710 -51.394  1.00  0.00     0.062 A 
HETATM    2  C   UNL     1     -43.151  56.531 -52.175  1.00  0.00     0.202 A 
HETATM    3  N   UNL     1     -43.087  57.957 -51.837  1.00  0.00    -0.083 N 
HETATM    4  C   UNL     1     -42.250  58.482 -50.895  1.00  0.00     0.726 A 
HETATM    5  N   UNL     1     -41.405  57.667 -50.242  1.00  0.00    -0.192 N 
HETATM    6  N   UNL     1     -43.940  58.890 -52.312  1.00  0.00    -0.140 NA
HETATM    7  C   UNL     1     -43.494  59.983 -51.673  1.00  0.00     0.166 A 
HETATM    8  N   UNL     1     -42.461  59.768 -50.791  1.00  0.00    -0.046 NA
HETATM    9  C   UNL     1     -41.320  56.299 -50.473  1.00  0.00     0.037 A 
HETATM   10  C   UNL     1     -40.308  55.564 -49.626  1.00  0.00     0.070 C 
HETATM   11  H   UNL     1     -40.779  58.068 -49.549  1.00  0.00     0.184 HD
ENDROOT
BRANCH   1  12
HETATM   12  C   UNL     1     -41.941  54.264 -51.734  1.00  0.00     0.256 C 
HETATM   13  N   UNL     1     -40.695  53.929 -52.223  1.00  0.00    -0.323 N 
HETATM   14  H   UNL     1     -39.936  54.576 -52.077  1.00  0.00     0.169 HD
HETATM   15  O   UNL     1     -42.842  53.471 -51.480  1.00  0.00    -0.267 OA
BRANCH  13  16
HETATM   16  C   UNL     1     -40.285  52.609 -52.528  1.00  0.00     0.041 A 
HETATM   17  C   UNL     1     -40.208  52.070 -53.825  1.00  0.00    -0.035 A 
HETATM   18  C   UNL     1     -40.427  52.862 -55.084  1.00  0.00     0.050 C 
HETATM   19  C   UNL     1     -39.855  50.715 -53.975  1.00  0.00     0.009 A 
HETATM   20  C   UNL     1     -39.529  49.925 -52.874  1.00  0.00     0.001 A 
HETATM   21  C   UNL     1     -39.538  50.482 -51.601  1.00  0.00     0.002 A 
HETATM   22  C   UNL     1     -39.901  51.818 -51.431  1.00  0.00     0.030 A 
ENDBRANCH  13  16
ENDBRANCH   1  12
BRANCH   2  23
HETATM   23  C   UNL     1     -43.072  56.348 -53.690  1.00  0.00    -0.026 A 
HETATM   24  C   UNL     1     -42.625  57.411 -54.497  1.00  0.00     0.035 A 
HETATM   25  C   UNL     1     -42.568  57.281 -55.890  1.00  0.00     0.056 A 
HETATM   26 CL   UNL     1     -42.040  58.653 -56.798  1.00  0.00    -0.083 Cl
HETATM   27  C   UNL     1     -42.944  56.079 -56.493  1.00  0.00     0.055 A 
HETATM   28 CL   UNL     1     -42.906  55.849 -58.204  1.00  0.00    -0.083 Cl
HETATM   29  C   UNL     1     -43.370  55.011 -55.699  1.00  0.00     0.026 A 
HETATM   30  C   UNL     1     -43.431  55.141 -54.308  1.00  0.00     0.011 A 
ENDBRANCH   2  23
BRANCH   7  31
HETATM   31  C   UNL     1     -44.089  61.330 -51.863  1.00  0.00     0.085 C 
BRANCH  31  32
HETATM   32  C   UNL     1     -44.777  61.867 -50.610  1.00  0.00     0.034 C 
BRANCH  32  33
HETATM   33  C   UNL     1     -45.961  61.016 -50.164  1.00  0.00     0.164 C 
BRANCH  33  34
HETATM   34  O   UNL     1     -45.595  60.254 -49.018  1.00  0.00    -0.401 OA
HETATM   35  H   UNL     1     -45.876  60.754 -48.233  1.00  0.00     0.209 HD
ENDBRANCH  33  34
ENDBRANCH  32  33
ENDBRANCH  31  32
ENDBRANCH   7  31
TORSDOF 7
ENDMDL
MODEL 5
REMARK VINA RESULT:      -7.8      1.817      2.340
REMARK  7 active torsions:
REMARK  status: ('A' for Active; 'I' for Inactive)
REMARK    1  A    between atoms: C_3  and  N_4 
REMARK       I    between atoms: N_4  and  C_5 
REMARK    2  A    between atoms: C_5  and  C_6 
REMARK    3  A    between atoms: C_7  and  C_8 
REMARK    4  A    between atoms: C_20  and  C_21 
REMARK    5  A    between atoms: C_21  and  C_22 
REMARK    6  A    between atoms: C_22  and  C_23 
REMARK    7  A    between atoms: C_23  and  O_24 
ROOT
HETATM    1  C   UNL     1     -42.879  56.131 -51.982  1.00  0.00     0.062 A 
HETATM    2  C   UNL     1     -43.830  56.799 -52.971  1.00  0.00     0.202 A 
HETATM    3  N   UNL     1     -43.941  58.243 -52.737  1.00  0.00    -0.083 N 
HETATM    4  C   UNL     1     -43.312  58.904 -51.721  1.00  0.00     0.726 A 
HETATM    5  N   UNL     1     -42.516  58.215 -50.886  1.00  0.00    -0.192 N 
HETATM    6  N   UNL     1     -44.784  59.059 -53.407  1.00  0.00    -0.140 NA
HETATM    7  C   UNL     1     -44.540  60.227 -52.792  1.00  0.00     0.166 A 
HETATM    8  N   UNL     1     -43.646  60.167 -51.749  1.00  0.00    -0.046 NA
HETATM    9  C   UNL     1     -42.279  56.850 -50.996  1.00  0.00     0.037 A 
HETATM   10  C   UNL     1     -41.357  56.269 -49.950  1.00  0.00     0.070 C 
HETATM   11  H   UNL     1     -42.044  58.717 -50.138  1.00  0.00     0.184 HD
ENDROOT
BRANCH   1  12
HETATM   12  C   UNL     1     -42.517  54.691 -52.178  1.00  0.00     0.256 C 
HETATM   13  N   UNL     1     -41.249  54.461 -52.672  1.00  0.00    -0.323 N 
HETATM   14  H   UNL     1     -40.575  55.209 -52.620  1.00  0.00     0.169 HD
HETATM   15  O   UNL     1     -43.304  53.823 -51.813  1.00  0.00    -0.267 OA
BRANCH  13  16
HETATM   16  C   UNL     1     -40.683  53.177 -52.854  1.00  0.00     0.041 A 
HETATM   17  C   UNL     1     -40.067  52.419 -51.842  1.00  0.00    -0.035 A 
HETATM   18  C   UNL     1     -40.035  52.813 -50.391  1.00  0.00     0.050 C 
HETATM   19  C   UNL     1     -39.479  51.185 -52.182  1.00  0.00     0.009 A 
HETATM   20  C   UNL     1     -39.549  50.684 -53.481  1.00  0.00     0.001 A 
HETATM   21  C   UNL     1     -40.221  51.404 -54.461  1.00  0.00     0.002 A 
HETATM   22  C   UNL     1     -40.795  52.636 -54.147  1.00  0.00     0.030 A 
ENDBRANCH  13  16
ENDBRANCH   1  12
BRANCH   2  23
HETATM   23  C   UNL     1     -43.495  56.531 -54.437  1.00  0.00    -0.026 A 
HETATM   24  C   UNL     1     -43.000  57.575 -55.240  1.00  0.00     0.035 A 
HETATM   25  C   UNL     1     -42.711  57.365 -56.594  1.00  0.00     0.056 A 
HETATM   26 CL   UNL     1     -42.142  58.717 -57.508  1.00  0.00    -0.083 Cl
HETATM   27  C   UNL     1     -42.899  56.101 -57.159  1.00  0.00     0.055 A 
HETATM   28 CL   UNL     1     -42.570  55.771 -58.821  1.00  0.00    -0.083 Cl
HETATM   29  C   UNL     1     -43.370  55.053 -56.364  1.00  0.00     0.026 A 
HETATM   30  C   UNL     1     -43.663  55.263 -55.013  1.00  0.00     0.011 A 
ENDBRANCH   2  23
BRANCH   7  31
HETATM   31  C   UNL     1     -45.208  61.497 -53.173  1.00  0.00     0.085 C 
BRANCH  31  32
HETATM   32  C   UNL     1     -44.326  62.412 -54.019  1.00  0.00     0.034 C 
BRANCH  32  33
HETATM   33  C   UNL     1     -43.865  61.766 -55.321  1.00  0.00     0.164 C 
BRANCH  33  34
HETATM   34  O   UNL     1     -42.471  61.487 -55.246  1.00  0.00    -0.401 OA
HETATM   35  H   UNL     1     -42.059  62.190 -54.715  1.00  0.00     0.209 HD
ENDBRANCH  33  34
ENDBRANCH  32  33
ENDBRANCH  31  32
ENDBRANCH   7  31
TORSDOF 7
ENDMDL
MODEL 6
REMARK VINA RESULT:      -7.3      3.811      7.759
REMARK  7 active torsions:
REMARK  status: ('A' for Active; 'I' for Inactive)
REMARK    1  A    between atoms: C_3  and  N_4 
REMARK       I    between atoms: N_4  and  C_5 
REMARK    2  A    between atoms: C_5  and  C_6 
REMARK    3  A    between atoms: C_7  and  C_8 
REMARK    4  A    between atoms: C_20  and  C_21 
REMARK    5  A    between atoms: C_21  and  C_22 
REMARK    6  A    between atoms: C_22  and  C_23 
REMARK    7  A    between atoms: C_23  and  O_24 
ROOT
HETATM    1  C   UNL     1     -42.603  59.071 -56.401  1.00  0.00     0.062 A 
HETATM    2  C   UNL     1     -43.399  57.769 -56.440  1.00  0.00     0.202 A 
HETATM    3  N   UNL     1     -43.401  57.164 -57.777  1.00  0.00    -0.083 N 
HETATM    4  C   UNL     1     -42.806  57.726 -58.870  1.00  0.00     0.726 A 
HETATM    5  N   UNL     1     -42.152  58.891 -58.734  1.00  0.00    -0.192 N 
HETATM    6  N   UNL     1     -44.105  56.061 -58.111  1.00  0.00    -0.140 NA
HETATM    7  C   UNL     1     -43.811  55.966 -59.417  1.00  0.00     0.166 A 
HETATM    8  N   UNL     1     -43.022  56.975 -59.918  1.00  0.00    -0.046 NA
HETATM    9  C   UNL     1     -42.031  59.571 -57.528  1.00  0.00     0.037 A 
HETATM   10  C   UNL     1     -41.260  60.868 -57.594  1.00  0.00     0.070 C 
HETATM   11  H   UNL     1     -41.705  59.297 -59.552  1.00  0.00     0.184 HD
ENDROOT
BRANCH   1  12
HETATM   12  C   UNL     1     -42.357  59.736 -55.082  1.00  0.00     0.256 C 
HETATM   13  N   UNL     1     -43.471  60.285 -54.479  1.00  0.00    -0.323 N 
HETATM   14  H   UNL     1     -44.380  59.990 -54.800  1.00  0.00     0.169 HD
HETATM   15  O   UNL     1     -41.237  59.676 -54.584  1.00  0.00    -0.267 OA
BRANCH  13  16
HETATM   16  C   UNL     1     -43.471  60.885 -53.198  1.00  0.00     0.041 A 
HETATM   17  C   UNL     1     -43.323  62.263 -52.955  1.00  0.00    -0.035 A 
HETATM   18  C   UNL     1     -43.272  63.311 -54.032  1.00  0.00     0.050 C 
HETATM   19  C   UNL     1     -43.268  62.713 -51.622  1.00  0.00     0.009 A 
HETATM   20  C   UNL     1     -43.413  61.830 -50.553  1.00  0.00     0.001 A 
HETATM   21  C   UNL     1     -43.630  60.481 -50.800  1.00  0.00     0.002 A 
HETATM   22  C   UNL     1     -43.672  60.013 -52.113  1.00  0.00     0.030 A 
ENDBRANCH  13  16
ENDBRANCH   1  12
BRANCH   2  23
HETATM   23  C   UNL     1     -42.962  56.739 -55.400  1.00  0.00    -0.026 A 
HETATM   24  C   UNL     1     -41.779  56.004 -55.602  1.00  0.00     0.035 A 
HETATM   25  C   UNL     1     -41.368  55.035 -54.680  1.00  0.00     0.056 A 
HETATM   26 CL   UNL     1     -39.921  54.159 -55.033  1.00  0.00    -0.083 Cl
HETATM   27  C   UNL     1     -42.130  54.797 -53.533  1.00  0.00     0.055 A 
HETATM   28 CL   UNL     1     -41.689  53.613 -52.356  1.00  0.00    -0.083 Cl
HETATM   29  C   UNL     1     -43.296  55.536 -53.313  1.00  0.00     0.026 A 
HETATM   30  C   UNL     1     -43.709  56.501 -54.236  1.00  0.00     0.011 A 
ENDBRANCH   2  23
BRANCH   7  31
HETATM   31  C   UNL     1     -44.327  54.877 -60.285  1.00  0.00     0.085 C 
BRANCH  31  32
HETATM   32  C   UNL     1     -45.431  55.335 -61.235  1.00  0.00     0.034 C 
BRANCH  32  33
HETATM   33  C   UNL     1     -46.338  56.402 -60.630  1.00  0.00     0.164 C 
BRANCH  33  34
HETATM   34  O   UNL     1     -47.411  55.777 -59.934  1.00  0.00    -0.401 OA
HETATM   35  H   UNL     1     -48.192  55.808 -60.512  1.00  0.00     0.209 HD
ENDBRANCH  33  34
ENDBRANCH  32  33
ENDBRANCH  31  32
ENDBRANCH   7  31
TORSDOF 7
ENDMDL
MODEL 7
REMARK VINA RESULT:      -7.3      1.984      2.442
REMARK  7 active torsions:
REMARK  status: ('A' for Active; 'I' for Inactive)
REMARK    1  A    between atoms: C_3  and  N_4 
REMARK       I    between atoms: N_4  and  C_5 
REMARK    2  A    between atoms: C_5  and  C_6 
REMARK    3  A    between atoms: C_7  and  C_8 
REMARK    4  A    between atoms: C_20  and  C_21 
REMARK    5  A    between atoms: C_21  and  C_22 
REMARK    6  A    between atoms: C_22  and  C_23 
REMARK    7  A    between atoms: C_23  and  O_24 
ROOT
HETATM    1  C   UNL     1     -42.405  56.945 -51.644  1.00  0.00     0.062 A 
HETATM    2  C   UNL     1     -43.414  57.882 -52.301  1.00  0.00     0.202 A 
HETATM    3  N   UNL     1     -43.310  59.252 -51.788  1.00  0.00    -0.083 N 
HETATM    4  C   UNL     1     -42.448  59.634 -50.800  1.00  0.00     0.726 A 
HETATM    5  N   UNL     1     -41.617  58.723 -50.267  1.00  0.00    -0.192 N 
HETATM    6  N   UNL     1     -44.144  60.258 -52.130  1.00  0.00    -0.140 NA
HETATM    7  C   UNL     1     -43.662  61.251 -51.365  1.00  0.00     0.166 A 
HETATM    8  N   UNL     1     -42.625  60.901 -50.532  1.00  0.00    -0.046 NA
HETATM    9  C   UNL     1     -41.570  57.394 -50.669  1.00  0.00     0.037 A 
HETATM   10  C   UNL     1     -40.568  56.534 -49.935  1.00  0.00     0.070 C 
HETATM   11  H   UNL     1     -40.973  59.019 -49.538  1.00  0.00     0.184 HD
ENDROOT
BRANCH   1  12
HETATM   12  C   UNL     1     -42.258  55.549 -52.166  1.00  0.00     0.256 C 
HETATM   13  N   UNL     1     -40.975  55.181 -52.519  1.00  0.00    -0.323 N 
HETATM   14  H   UNL     1     -40.208  55.736 -52.172  1.00  0.00     0.169 HD
HETATM   15  O   UNL     1     -43.234  54.806 -52.163  1.00  0.00    -0.267 OA
BRANCH  13  16
HETATM   16  C   UNL     1     -40.607  53.886 -52.956  1.00  0.00     0.041 A 
HETATM   17  C   UNL     1     -40.638  53.450 -54.293  1.00  0.00    -0.035 A 
HETATM   18  C   UNL     1     -40.944  54.339 -55.466  1.00  0.00     0.050 C 
HETATM   19  C   UNL     1     -40.315  52.109 -54.575  1.00  0.00     0.009 A 
HETATM   20  C   UNL     1     -39.914  51.233 -53.566  1.00  0.00     0.001 A 
HETATM   21  C   UNL     1     -39.817  51.689 -52.258  1.00  0.00     0.002 A 
HETATM   22  C   UNL     1     -40.149  53.010 -51.956  1.00  0.00     0.030 A 
ENDBRANCH  13  16
ENDBRANCH   1  12
BRANCH   2  23
HETATM   23  C   UNL     1     -43.357  57.889 -53.828  1.00  0.00    -0.026 A 
HETATM   24  C   UNL     1     -44.552  57.950 -54.569  1.00  0.00     0.035 A 
HETATM   25  C   UNL     1     -44.531  57.930 -55.969  1.00  0.00     0.056 A 
HETATM   26 CL   UNL     1     -46.050  57.973 -56.791  1.00  0.00    -0.083 Cl
HETATM   27  C   UNL     1     -43.311  57.864 -56.647  1.00  0.00     0.055 A 
HETATM   28 CL   UNL     1     -43.209  57.829 -58.370  1.00  0.00    -0.083 Cl
HETATM   29  C   UNL     1     -42.118  57.824 -55.920  1.00  0.00     0.026 A 
HETATM   30  C   UNL     1     -42.138  57.839 -54.522  1.00  0.00     0.011 A 
ENDBRANCH   2  23
BRANCH   7  31
HETATM   31  C   UNL     1     -44.224  62.625 -51.375  1.00  0.00     0.085 C 
BRANCH  31  32
HETATM   32  C   UNL     1     -44.157  63.314 -50.014  1.00  0.00     0.034 C 
BRANCH  32  33
HETATM   33  C   UNL     1     -42.903  64.162 -49.832  1.00  0.00     0.164 C 
BRANCH  33  34
HETATM   34  O   UNL     1     -42.564  64.782 -51.068  1.00  0.00    -0.401 OA
HETATM   35  H   UNL     1     -41.845  65.412 -50.892  1.00  0.00     0.209 HD
ENDBRANCH  33  34
ENDBRANCH  32  33
ENDBRANCH  31  32
ENDBRANCH   7  31
TORSDOF 7
ENDMDL
MODEL 8
REMARK VINA RESULT:      -7.3      3.397      8.520
REMARK  7 active torsions:
REMARK  status: ('A' for Active; 'I' for Inactive)
REMARK    1  A    between atoms: C_3  and  N_4 
REMARK       I    between atoms: N_4  and  C_5 
REMARK    2  A    between atoms: C_5  and  C_6 
REMARK    3  A    between atoms: C_7  and  C_8 
REMARK    4  A    between atoms: C_20  and  C_21 
REMARK    5  A    between atoms: C_21  and  C_22 
REMARK    6  A    between atoms: C_22  and  C_23 
REMARK    7  A    between atoms: C_23  and  O_24 
ROOT
HETATM    1  C   UNL     1     -43.438  56.704 -55.625  1.00  0.00     0.062 A 
HETATM    2  C   UNL     1     -43.211  56.142 -54.224  1.00  0.00     0.202 A 
HETATM    3  N   UNL     1     -42.236  55.045 -54.222  1.00  0.00    -0.083 N 
HETATM    4  C   UNL     1     -41.641  54.550 -55.347  1.00  0.00     0.726 A 
HETATM    5  N   UNL     1     -41.931  55.100 -56.538  1.00  0.00    -0.192 N 
HETATM    6  N   UNL     1     -41.921  54.310 -53.133  1.00  0.00    -0.140 NA
HETATM    7  C   UNL     1     -41.053  53.436 -53.667  1.00  0.00     0.166 A 
HETATM    8  N   UNL     1     -40.862  53.551 -55.024  1.00  0.00    -0.046 NA
HETATM    9  C   UNL     1     -42.807  56.166 -56.702  1.00  0.00     0.037 A 
HETATM   10  C   UNL     1     -42.998  56.629 -58.127  1.00  0.00     0.070 C 
HETATM   11  H   UNL     1     -41.476  54.730 -57.369  1.00  0.00     0.184 HD
ENDROOT
BRANCH   1  12
HETATM   12  C   UNL     1     -44.274  57.935 -55.789  1.00  0.00     0.256 C 
HETATM   13  N   UNL     1     -43.573  59.099 -56.033  1.00  0.00    -0.323 N 
HETATM   14  H   UNL     1     -42.616  59.023 -56.342  1.00  0.00     0.169 HD
HETATM   15  O   UNL     1     -45.496  57.829 -55.793  1.00  0.00    -0.267 OA
BRANCH  13  16
HETATM   16  C   UNL     1     -44.173  60.353 -56.297  1.00  0.00     0.041 A 
HETATM   17  C   UNL     1     -44.478  61.321 -55.323  1.00  0.00    -0.035 A 
HETATM   18  C   UNL     1     -44.092  61.212 -53.874  1.00  0.00     0.050 C 
HETATM   19  C   UNL     1     -45.144  62.495 -55.721  1.00  0.00     0.009 A 
HETATM   20  C   UNL     1     -45.451  62.736 -57.060  1.00  0.00     0.001 A 
HETATM   21  C   UNL     1     -45.083  61.809 -58.027  1.00  0.00     0.002 A 
HETATM   22  C   UNL     1     -44.437  60.632 -57.650  1.00  0.00     0.030 A 
ENDBRANCH  13  16
ENDBRANCH   1  12
BRANCH   2  23
HETATM   23  C   UNL     1     -42.821  57.192 -53.186  1.00  0.00    -0.026 A 
HETATM   24  C   UNL     1     -41.504  57.687 -53.158  1.00  0.00     0.035 A 
HETATM   25  C   UNL     1     -41.110  58.630 -52.200  1.00  0.00     0.056 A 
HETATM   26 CL   UNL     1     -39.463  59.152 -52.224  1.00  0.00    -0.083 Cl
HETATM   27  C   UNL     1     -42.035  59.100 -51.265  1.00  0.00     0.055 A 
HETATM   28 CL   UNL     1     -41.619  60.256 -50.051  1.00  0.00    -0.083 Cl
HETATM   29  C   UNL     1     -43.350  58.629 -51.297  1.00  0.00     0.026 A 
HETATM   30  C   UNL     1     -43.743  57.685 -52.250  1.00  0.00     0.011 A 
ENDBRANCH   2  23
BRANCH   7  31
HETATM   31  C   UNL     1     -40.369  52.388 -52.870  1.00  0.00     0.085 C 
BRANCH  31  32
HETATM   32  C   UNL     1     -39.443  51.505 -53.704  1.00  0.00     0.034 C 
BRANCH  32  33
HETATM   33  C   UNL     1     -39.741  50.017 -53.558  1.00  0.00     0.164 C 
BRANCH  33  34
HETATM   34  O   UNL     1     -40.076  49.471 -54.829  1.00  0.00    -0.401 OA
HETATM   35  H   UNL     1     -41.016  49.660 -54.991  1.00  0.00     0.209 HD
ENDBRANCH  33  34
ENDBRANCH  32  33
ENDBRANCH  31  32
ENDBRANCH   7  31
TORSDOF 7
ENDMDL
MODEL 9
REMARK VINA RESULT:      -7.3      2.346      7.675
REMARK  7 active torsions:
REMARK  status: ('A' for Active; 'I' for Inactive)
REMARK    1  A    between atoms: C_3  and  N_4 
REMARK       I    between atoms: N_4  and  C_5 
REMARK    2  A    between atoms: C_5  and  C_6 
REMARK    3  A    between atoms: C_7  and  C_8 
REMARK    4  A    between atoms: C_20  and  C_21 
REMARK    5  A    between atoms: C_21  and  C_22 
REMARK    6  A    between atoms: C_22  and  C_23 
REMARK    7  A    between atoms: C_23  and  O_24 
ROOT
HETATM    1  C   UNL     1     -43.273  57.348 -53.072  1.00  0.00     0.062 A 
HETATM    2  C   UNL     1     -42.166  56.602 -53.812  1.00  0.00     0.202 A 
HETATM    3  N   UNL     1     -41.834  55.327 -53.166  1.00  0.00    -0.083 N 
HETATM    4  C   UNL     1     -42.410  54.884 -52.009  1.00  0.00     0.726 A 
HETATM    5  N   UNL     1     -43.358  55.632 -51.421  1.00  0.00    -0.192 N 
HETATM    6  N   UNL     1     -40.829  54.515 -53.559  1.00  0.00    -0.140 NA
HETATM    7  C   UNL     1     -40.917  53.546 -52.634  1.00  0.00     0.166 A 
HETATM    8  N   UNL     1     -41.872  53.744 -51.664  1.00  0.00    -0.046 NA
HETATM    9  C   UNL     1     -43.807  56.846 -51.927  1.00  0.00     0.037 A 
HETATM   10  C   UNL     1     -44.875  57.530 -51.107  1.00  0.00     0.070 C 
HETATM   11  H   UNL     1     -43.787  55.289 -50.565  1.00  0.00     0.184 HD
ENDROOT
BRANCH   1  12
HETATM   12  C   UNL     1     -43.852  58.587 -53.683  1.00  0.00     0.256 C 
HETATM   13  N   UNL     1     -43.032  59.697 -53.660  1.00  0.00    -0.323 N 
HETATM   14  H   UNL     1     -42.047  59.559 -53.494  1.00  0.00     0.169 HD
HETATM   15  O   UNL     1     -44.946  58.524 -54.235  1.00  0.00    -0.267 OA
BRANCH  13  16
HETATM   16  C   UNL     1     -43.354  60.941 -54.254  1.00  0.00     0.041 A 
HETATM   17  C   UNL     1     -43.999  62.003 -53.596  1.00  0.00    -0.035 A 
HETATM   18  C   UNL     1     -44.324  62.017 -52.128  1.00  0.00     0.050 C 
HETATM   19  C   UNL     1     -44.324  63.158 -54.333  1.00  0.00     0.009 A 
HETATM   20  C   UNL     1     -43.970  63.284 -55.675  1.00  0.00     0.001 A 
HETATM   21  C   UNL     1     -43.270  62.261 -56.301  1.00  0.00     0.002 A 
HETATM   22  C   UNL     1     -42.952  61.102 -55.591  1.00  0.00     0.030 A 
ENDBRANCH  13  16
ENDBRANCH   1  12
BRANCH   2  23
HETATM   23  C   UNL     1     -42.448  56.379 -55.296  1.00  0.00    -0.026 A 
HETATM   24  C   UNL     1     -42.143  57.394 -56.223  1.00  0.00     0.035 A 
HETATM   25  C   UNL     1     -42.416  57.229 -57.586  1.00  0.00     0.056 A 
HETATM   26 CL   UNL     1     -42.040  58.544 -58.641  1.00  0.00    -0.083 Cl
HETATM   27  C   UNL     1     -42.986  56.037 -58.043  1.00  0.00     0.055 A 
HETATM   28 CL   UNL     1     -43.356  55.766 -59.707  1.00  0.00    -0.083 Cl
HETATM   29  C   UNL     1     -43.273  55.016 -57.134  1.00  0.00     0.026 A 
HETATM   30  C   UNL     1     -43.005  55.182 -55.771  1.00  0.00     0.011 A 
ENDBRANCH   2  23
BRANCH   7  31
HETATM   31  C   UNL     1     -40.028  52.358 -52.620  1.00  0.00     0.085 C 
BRANCH  31  32
HETATM   32  C   UNL     1     -39.957  51.643 -53.968  1.00  0.00     0.034 C 
BRANCH  32  33
HETATM   33  C   UNL     1     -39.485  50.197 -53.855  1.00  0.00     0.164 C 
BRANCH  33  34
HETATM   34  O   UNL     1     -40.109  49.412 -54.866  1.00  0.00    -0.401 OA
HETATM   35  H   UNL     1     -40.754  49.980 -55.321  1.00  0.00     0.209 HD
ENDBRANCH  33  34
ENDBRANCH  32  33
ENDBRANCH  31  32
ENDBRANCH   7  31
TORSDOF 7
ENDMDL
MODEL 10
REMARK VINA RESULT:      -7.2      3.532      5.510
REMARK  7 active torsions:
REMARK  status: ('A' for Active; 'I' for Inactive)
REMARK    1  A    between atoms: C_3  and  N_4 
REMARK       I    between atoms: N_4  and  C_5 
REMARK    2  A    between atoms: C_5  and  C_6 
REMARK    3  A    between atoms: C_7  and  C_8 
REMARK    4  A    between atoms: C_20  and  C_21 
REMARK    5  A    between atoms: C_21  and  C_22 
REMARK    6  A    between atoms: C_22  and  C_23 
REMARK    7  A    between atoms: C_23  and  O_24 
ROOT
HETATM    1  C   UNL     1     -43.381  60.443 -53.515  1.00  0.00     0.062 A 
HETATM    2  C   UNL     1     -43.066  60.167 -52.047  1.00  0.00     0.202 A 
HETATM    3  N   UNL     1     -43.791  61.072 -51.149  1.00  0.00    -0.083 N 
HETATM    4  C   UNL     1     -44.609  62.079 -51.576  1.00  0.00     0.726 A 
HETATM    5  N   UNL     1     -44.798  62.255 -52.894  1.00  0.00    -0.192 N 
HETATM    6  N   UNL     1     -43.626  61.107 -49.809  1.00  0.00    -0.140 NA
HETATM    7  C   UNL     1     -44.453  62.112 -49.482  1.00  0.00     0.166 A 
HETATM    8  N   UNL     1     -45.068  62.736 -50.543  1.00  0.00    -0.046 NA
HETATM    9  C   UNL     1     -44.211  61.459 -53.870  1.00  0.00     0.037 A 
HETATM   10  C   UNL     1     -44.549  61.832 -55.295  1.00  0.00     0.070 C 
HETATM   11  H   UNL     1     -45.416  63.002 -53.202  1.00  0.00     0.184 HD
ENDROOT
BRANCH   1  12
HETATM   12  C   UNL     1     -42.859  59.507 -54.561  1.00  0.00     0.256 C 
HETATM   13  N   UNL     1     -43.771  58.588 -55.040  1.00  0.00    -0.323 N 
HETATM   14  H   UNL     1     -44.751  58.758 -54.876  1.00  0.00     0.169 HD
HETATM   15  O   UNL     1     -41.719  59.664 -54.986  1.00  0.00    -0.267 OA
BRANCH  13  16
HETATM   16  C   UNL     1     -43.505  57.670 -56.085  1.00  0.00     0.041 A 
HETATM   17  C   UNL     1     -43.106  56.334 -55.899  1.00  0.00    -0.035 A 
HETATM   18  C   UNL     1     -43.028  55.652 -54.561  1.00  0.00     0.050 C 
HETATM   19  C   UNL     1     -42.804  55.554 -57.032  1.00  0.00     0.009 A 
HETATM   20  C   UNL     1     -42.948  56.064 -58.322  1.00  0.00     0.001 A 
HETATM   21  C   UNL     1     -43.411  57.362 -58.500  1.00  0.00     0.002 A 
HETATM   22  C   UNL     1     -43.701  58.155 -57.390  1.00  0.00     0.030 A 
ENDBRANCH  13  16
ENDBRANCH   1  12
BRANCH   2  23
HETATM   23  C   UNL     1     -43.292  58.717 -51.623  1.00  0.00    -0.026 A 
HETATM   24  C   UNL     1     -42.187  57.896 -51.333  1.00  0.00     0.035 A 
HETATM   25  C   UNL     1     -42.362  56.555 -50.968  1.00  0.00     0.056 A 
HETATM   26 CL   UNL     1     -40.943  55.617 -50.666  1.00  0.00    -0.083 Cl
HETATM   27  C   UNL     1     -43.650  56.022 -50.875  1.00  0.00     0.055 A 
HETATM   28 CL   UNL     1     -43.942  54.377 -50.438  1.00  0.00    -0.083 Cl
HETATM   29  C   UNL     1     -44.755  56.834 -51.141  1.00  0.00     0.026 A 
HETATM   30  C   UNL     1     -44.581  58.172 -51.509  1.00  0.00     0.011 A 
ENDBRANCH   2  23
BRANCH   7  31
HETATM   31  C   UNL     1     -44.669  62.560 -48.084  1.00  0.00     0.085 C 
BRANCH  31  32
HETATM   32  C   UNL     1     -44.776  61.404 -47.091  1.00  0.00     0.034 C 
BRANCH  32  33
HETATM   33  C   UNL     1     -46.102  60.656 -47.181  1.00  0.00     0.164 C 
BRANCH  33  34
HETATM   34  O   UNL     1     -45.959  59.538 -48.051  1.00  0.00    -0.401 OA
HETATM   35  H   UNL     1     -45.060  59.567 -48.420  1.00  0.00     0.209 HD
ENDBRANCH  33  34
ENDBRANCH  32  33
ENDBRANCH  31  32
ENDBRANCH   7  31
TORSDOF 7
ENDMDL
