MODEL 1
REMARK VINA RESULT:      -8.7      0.000      0.000
REMARK  5 active torsions:
REMARK  status: ('A' for Active; 'I' for Inactive)
REMARK    1  A    between atoms: C_2  and  O_3 
REMARK    2  A    between atoms: O_3  and  C_4 
REMARK    3  A    between atoms: C_5  and  N_6 
REMARK       I    between atoms: N_6  and  C_7 
REMARK    4  A    between atoms: C_7  and  C_8 
REMARK    5  A    between atoms: C_9  and  C_10 
ROOT
HETATM    1  N   UNL     1     -42.090  56.637 -57.472  1.00  0.00    -0.321 N 
HETATM    2  C   UNL     1     -42.915  56.424 -56.392  1.00  0.00     0.245 C 
HETATM    3  O   UNL     1     -43.895  57.080 -56.066  1.00  0.00    -0.268 OA
HETATM    4  H   UNL     1     -41.398  55.932 -57.698  1.00  0.00     0.169 HD
ENDROOT
BRANCH   1   5
HETATM    5  C   UNL     1     -42.117  57.726 -58.371  1.00  0.00     0.071 A 
HETATM    6  C   UNL     1     -42.315  57.424 -59.742  1.00  0.00     0.096 A 
HETATM    7  C   UNL     1     -42.253  58.410 -60.730  1.00  0.00     0.049 A 
HETATM    8  C   UNL     1     -42.054  59.713 -60.321  1.00  0.00    -0.020 A 
HETATM    9  C   UNL     1     -41.899  60.020 -58.977  1.00  0.00     0.078 A 
HETATM   10  C   UNL     1     -41.887  60.942 -61.128  1.00  0.00     0.073 C 
HETATM   11  C   UNL     1     -41.920  59.053 -57.987  1.00  0.00     0.069 A 
HETATM   12  O   UNL     1     -41.686  61.354 -58.743  1.00  0.00    -0.345 OA
HETATM   13  C   UNL     1     -42.013  61.987 -60.009  1.00  0.00     0.129 C 
HETATM   14  C   UNL     1     -41.093  63.178 -60.219  1.00  0.00     0.040 C 
BRANCH   6  15
HETATM   15  O   UNL     1     -42.542  56.126 -60.139  1.00  0.00    -0.349 OA
BRANCH  15  16
HETATM   16  C   UNL     1     -43.947  55.889 -60.327  1.00  0.00     0.171 C 
HETATM   17  C   UNL     1     -44.359  54.611 -59.619  1.00  0.00     0.034 C 
ENDBRANCH  15  16
ENDBRANCH   6  15
ENDBRANCH   1   5
BRANCH   2  18
HETATM   18  C   UNL     1     -42.518  55.209 -55.637  1.00  0.00     0.077 C 
HETATM   19  C   UNL     1     -41.294  55.138 -55.097  1.00  0.00     0.043 C 
BRANCH  19  20
HETATM   20  C   UNL     1     -40.884  53.980 -54.384  1.00  0.00     0.077 A 
HETATM   21  O   UNL     1     -40.735  52.735 -54.958  1.00  0.00    -0.310 OA
HETATM   22  C   UNL     1     -40.313  51.868 -54.002  1.00  0.00     0.086 A 
HETATM   23  C   UNL     1     -40.198  52.514 -52.783  1.00  0.00     0.000 A 
HETATM   24  C   UNL     1     -40.031  50.518 -54.202  1.00  0.00     0.038 A 
HETATM   25  C   UNL     1     -40.559  53.863 -53.036  1.00  0.00     0.051 A 
HETATM   26  C   UNL     1     -39.783  51.773 -51.663  1.00  0.00     0.014 A 
HETATM   27  C   UNL     1     -39.493  50.411 -51.829  1.00  0.00     0.001 A 
HETATM   28  C   UNL     1     -39.612  49.797 -53.079  1.00  0.00     0.003 A 
ENDBRANCH  19  20
ENDBRANCH   2  18
TORSDOF 5
ENDMDL
MODEL 2
REMARK VINA RESULT:      -7.6     15.865     20.255
REMARK  5 active torsions:
REMARK  status: ('A' for Active; 'I' for Inactive)
REMARK    1  A    between atoms: C_2  and  O_3 
REMARK    2  A    between atoms: O_3  and  C_4 
REMARK    3  A    between atoms: C_5  and  N_6 
REMARK       I    between atoms: N_6  and  C_7 
REMARK    4  A    between atoms: C_7  and  C_8 
REMARK    5  A    between atoms: C_9  and  C_10 
ROOT
HETATM    1  N   UNL     1     -33.577  39.749 -51.418  1.00  0.00    -0.321 N 
HETATM    2  C   UNL     1     -34.264  40.885 -51.778  1.00  0.00     0.245 C 
HETATM    3  O   UNL     1     -34.489  41.867 -51.085  1.00  0.00    -0.268 OA
HETATM    4  H   UNL     1     -33.349  39.074 -52.138  1.00  0.00     0.169 HD
ENDROOT
BRANCH   1   5
HETATM    5  C   UNL     1     -33.084  39.413 -50.137  1.00  0.00     0.071 A 
HETATM    6  C   UNL     1     -33.873  38.535 -49.353  1.00  0.00     0.096 A 
HETATM    7  C   UNL     1     -33.536  38.219 -48.035  1.00  0.00     0.049 A 
HETATM    8  C   UNL     1     -32.363  38.745 -47.533  1.00  0.00    -0.020 A 
HETATM    9  C   UNL     1     -31.566  39.573 -48.308  1.00  0.00     0.078 A 
HETATM   10  C   UNL     1     -31.784  38.638 -46.174  1.00  0.00     0.073 C 
HETATM   11  C   UNL     1     -31.901  39.927 -49.604  1.00  0.00     0.069 A 
HETATM   12  O   UNL     1     -30.451  40.028 -47.652  1.00  0.00    -0.345 OA
HETATM   13  C   UNL     1     -30.384  39.200 -46.461  1.00  0.00     0.129 C 
HETATM   14  C   UNL     1     -29.843  40.031 -45.310  1.00  0.00     0.040 C 
BRANCH   6  15
HETATM   15  O   UNL     1     -35.027  37.992 -49.872  1.00  0.00    -0.349 OA
BRANCH  15  16
HETATM   16  C   UNL     1     -36.151  38.279 -49.023  1.00  0.00     0.171 C 
HETATM   17  C   UNL     1     -36.793  39.591 -49.436  1.00  0.00     0.034 C 
ENDBRANCH  15  16
ENDBRANCH   6  15
ENDBRANCH   1   5
BRANCH   2  18
HETATM   18  C   UNL     1     -34.690  40.833 -53.200  1.00  0.00     0.077 C 
HETATM   19  C   UNL     1     -35.851  41.394 -53.562  1.00  0.00     0.043 C 
BRANCH  19  20
HETATM   20  C   UNL     1     -36.288  41.345 -54.913  1.00  0.00     0.077 A 
HETATM   21  O   UNL     1     -37.068  40.333 -55.433  1.00  0.00    -0.310 OA
HETATM   22  C   UNL     1     -37.317  40.609 -56.739  1.00  0.00     0.086 A 
HETATM   23  C   UNL     1     -36.692  41.789 -57.108  1.00  0.00     0.000 A 
HETATM   24  C   UNL     1     -38.088  39.830 -57.598  1.00  0.00     0.038 A 
HETATM   25  C   UNL     1     -36.042  42.254 -55.936  1.00  0.00     0.051 A 
HETATM   26  C   UNL     1     -36.825  42.236 -58.434  1.00  0.00     0.014 A 
HETATM   27  C   UNL     1     -37.594  41.473 -59.326  1.00  0.00     0.001 A 
HETATM   28  C   UNL     1     -38.217  40.292 -58.911  1.00  0.00     0.003 A 
ENDBRANCH  19  20
ENDBRANCH   2  18
TORSDOF 5
ENDMDL
MODEL 3
REMARK VINA RESULT:      -7.5      5.002      9.660
REMARK  5 active torsions:
REMARK  status: ('A' for Active; 'I' for Inactive)
REMARK    1  A    between atoms: C_2  and  O_3 
REMARK    2  A    between atoms: O_3  and  C_4 
REMARK    3  A    between atoms: C_5  and  N_6 
REMARK       I    between atoms: N_6  and  C_7 
REMARK    4  A    between atoms: C_7  and  C_8 
REMARK    5  A    between atoms: C_9  and  C_10 
ROOT
HETATM    1  N   UNL     1     -41.844  56.256 -52.414  1.00  0.00    -0.321 N 
HETATM    2  C   UNL     1     -42.961  56.461 -51.639  1.00  0.00     0.245 C 
HETATM    3  O   UNL     1     -43.628  55.615 -51.060  1.00  0.00    -0.268 OA
HETATM    4  H   UNL     1     -41.311  57.063 -52.719  1.00  0.00     0.169 HD
ENDROOT
BRANCH   1   5
HETATM    5  C   UNL     1     -41.291  55.019 -52.814  1.00  0.00     0.071 A 
HETATM    6  C   UNL     1     -41.218  54.766 -54.207  1.00  0.00     0.096 A 
HETATM    7  C   UNL     1     -40.790  53.536 -54.712  1.00  0.00     0.049 A 
HETATM    8  C   UNL     1     -40.373  52.584 -53.804  1.00  0.00    -0.020 A 
HETATM    9  C   UNL     1     -40.403  52.840 -52.441  1.00  0.00     0.078 A 
HETATM   10  C   UNL     1     -39.928  51.191 -54.032  1.00  0.00     0.073 C 
HETATM   11  C   UNL     1     -40.860  54.038 -51.920  1.00  0.00     0.069 A 
HETATM   12  O   UNL     1     -39.979  51.782 -51.678  1.00  0.00    -0.345 OA
HETATM   13  C   UNL     1     -39.362  50.884 -52.637  1.00  0.00     0.129 C 
HETATM   14  C   UNL     1     -39.618  49.449 -52.208  1.00  0.00     0.040 C 
BRANCH   6  15
HETATM   15  O   UNL     1     -41.609  55.732 -55.107  1.00  0.00    -0.349 OA
BRANCH  15  16
HETATM   16  C   UNL     1     -42.898  55.418 -55.662  1.00  0.00     0.171 C 
HETATM   17  C   UNL     1     -42.873  55.599 -57.169  1.00  0.00     0.034 C 
ENDBRANCH  15  16
ENDBRANCH   6  15
ENDBRANCH   1   5
BRANCH   2  18
HETATM   18  C   UNL     1     -43.273  57.907 -51.509  1.00  0.00     0.077 C 
HETATM   19  C   UNL     1     -42.282  58.806 -51.584  1.00  0.00     0.043 C 
BRANCH  19  20
HETATM   20  C   UNL     1     -42.552  60.194 -51.448  1.00  0.00     0.077 A 
HETATM   21  O   UNL     1     -42.898  61.017 -52.499  1.00  0.00    -0.310 OA
HETATM   22  C   UNL     1     -43.105  62.269 -52.015  1.00  0.00     0.086 A 
HETATM   23  C   UNL     1     -42.880  62.299 -50.649  1.00  0.00     0.000 A 
HETATM   24  C   UNL     1     -43.491  63.374 -52.770  1.00  0.00     0.038 A 
HETATM   25  C   UNL     1     -42.532  60.971 -50.295  1.00  0.00     0.051 A 
HETATM   26  C   UNL     1     -43.033  63.519 -49.967  1.00  0.00     0.014 A 
HETATM   27  C   UNL     1     -43.418  64.653 -50.699  1.00  0.00     0.001 A 
HETATM   28  C   UNL     1     -43.646  64.578 -52.076  1.00  0.00     0.003 A 
ENDBRANCH  19  20
ENDBRANCH   2  18
TORSDOF 5
ENDMDL
MODEL 4
REMARK VINA RESULT:      -7.5     15.622     18.466
REMARK  5 active torsions:
REMARK  status: ('A' for Active; 'I' for Inactive)
REMARK    1  A    between atoms: C_2  and  O_3 
REMARK    2  A    between atoms: O_3  and  C_4 
REMARK    3  A    between atoms: C_5  and  N_6 
REMARK       I    between atoms: N_6  and  C_7 
REMARK    4  A    between atoms: C_7  and  C_8 
REMARK    5  A    between atoms: C_9  and  C_10 
ROOT
HETATM    1  N   UNL     1     -33.992  40.613 -53.382  1.00  0.00    -0.321 N 
HETATM    2  C   UNL     1     -32.636  40.386 -53.385  1.00  0.00     0.245 C 
HETATM    3  O   UNL     1     -31.854  40.574 -54.307  1.00  0.00    -0.268 OA
HETATM    4  H   UNL     1     -34.492  40.543 -52.503  1.00  0.00     0.169 HD
ENDROOT
BRANCH   1   5
HETATM    5  C   UNL     1     -34.801  40.997 -54.475  1.00  0.00     0.071 A 
HETATM    6  C   UNL     1     -35.895  41.854 -54.196  1.00  0.00     0.096 A 
HETATM    7  C   UNL     1     -36.821  42.211 -55.180  1.00  0.00     0.049 A 
HETATM    8  C   UNL     1     -36.600  41.749 -56.462  1.00  0.00    -0.020 A 
HETATM    9  C   UNL     1     -35.509  40.944 -56.749  1.00  0.00     0.078 A 
HETATM   10  C   UNL     1     -37.426  41.910 -57.680  1.00  0.00     0.073 C 
HETATM   11  C   UNL     1     -34.602  40.548 -55.781  1.00  0.00     0.069 A 
HETATM   12  O   UNL     1     -35.450  40.553 -58.063  1.00  0.00    -0.345 OA
HETATM   13  C   UNL     1     -36.419  41.407 -58.725  1.00  0.00     0.129 C 
HETATM   14  C   UNL     1     -37.084  40.625 -59.845  1.00  0.00     0.040 C 
BRANCH   6  15
HETATM   15  O   UNL     1     -36.092  42.333 -52.921  1.00  0.00    -0.349 OA
BRANCH  15  16
HETATM   16  C   UNL     1     -37.257  41.735 -52.327  1.00  0.00     0.171 C 
HETATM   17  C   UNL     1     -36.847  40.608 -51.398  1.00  0.00     0.034 C 
ENDBRANCH  15  16
ENDBRANCH   6  15
ENDBRANCH   1   5
BRANCH   2  18
HETATM   18  C   UNL     1     -32.162  39.914 -52.059  1.00  0.00     0.077 C 
HETATM   19  C   UNL     1     -32.942  40.079 -50.982  1.00  0.00     0.043 C 
BRANCH  19  20
HETATM   20  C   UNL     1     -32.506  39.650 -49.700  1.00  0.00     0.077 A 
HETATM   21  O   UNL     1     -31.475  40.241 -49.001  1.00  0.00    -0.310 OA
HETATM   22  C   UNL     1     -31.338  39.599 -47.812  1.00  0.00     0.086 A 
HETATM   23  C   UNL     1     -32.255  38.566 -47.715  1.00  0.00     0.000 A 
HETATM   24  C   UNL     1     -30.414  39.922 -46.821  1.00  0.00     0.038 A 
HETATM   25  C   UNL     1     -32.999  38.608 -48.922  1.00  0.00     0.051 A 
HETATM   26  C   UNL     1     -32.258  37.774 -46.554  1.00  0.00     0.014 A 
HETATM   27  C   UNL     1     -31.338  38.071 -45.536  1.00  0.00     0.001 A 
HETATM   28  C   UNL     1     -30.435  39.130 -45.668  1.00  0.00     0.003 A 
ENDBRANCH  19  20
ENDBRANCH   2  18
TORSDOF 5
ENDMDL
MODEL 5
REMARK VINA RESULT:      -7.5      1.912      2.430
REMARK  5 active torsions:
REMARK  status: ('A' for Active; 'I' for Inactive)
REMARK    1  A    between atoms: C_2  and  O_3 
REMARK    2  A    between atoms: O_3  and  C_4 
REMARK    3  A    between atoms: C_5  and  N_6 
REMARK       I    between atoms: N_6  and  C_7 
REMARK    4  A    between atoms: C_7  and  C_8 
REMARK    5  A    between atoms: C_9  and  C_10 
ROOT
HETATM    1  N   UNL     1     -42.207  57.269 -56.828  1.00  0.00    -0.321 N 
HETATM    2  C   UNL     1     -43.259  57.084 -55.962  1.00  0.00     0.245 C 
HETATM    3  O   UNL     1     -44.412  57.466 -56.103  1.00  0.00    -0.268 OA
HETATM    4  H   UNL     1     -41.339  56.778 -56.647  1.00  0.00     0.169 HD
ENDROOT
BRANCH   1   5
HETATM    5  C   UNL     1     -42.194  58.042 -58.011  1.00  0.00     0.071 A 
HETATM    6  C   UNL     1     -42.472  57.367 -59.225  1.00  0.00     0.096 A 
HETATM    7  C   UNL     1     -42.382  58.009 -60.463  1.00  0.00     0.049 A 
HETATM    8  C   UNL     1     -42.072  59.354 -60.464  1.00  0.00    -0.020 A 
HETATM    9  C   UNL     1     -41.838  60.030 -59.276  1.00  0.00     0.078 A 
HETATM   10  C   UNL     1     -41.852  60.273 -61.603  1.00  0.00     0.073 C 
HETATM   11  C   UNL     1     -41.885  59.403 -58.042  1.00  0.00     0.069 A 
HETATM   12  O   UNL     1     -41.520  61.352 -59.454  1.00  0.00    -0.345 OA
HETATM   13  C   UNL     1     -41.854  61.608 -60.843  1.00  0.00     0.129 C 
HETATM   14  C   UNL     1     -40.862  62.605 -61.417  1.00  0.00     0.040 C 
BRANCH   6  15
HETATM   15  O   UNL     1     -42.808  56.033 -59.214  1.00  0.00    -0.349 OA
BRANCH  15  16
HETATM   16  C   UNL     1     -44.210  55.858 -59.482  1.00  0.00     0.171 C 
HETATM   17  C   UNL     1     -44.516  54.391 -59.719  1.00  0.00     0.034 C 
ENDBRANCH  15  16
ENDBRANCH   6  15
ENDBRANCH   1   5
BRANCH   2  18
HETATM   18  C   UNL     1     -42.855  56.273 -54.785  1.00  0.00     0.077 C 
HETATM   19  C   UNL     1     -42.323  56.880 -53.716  1.00  0.00     0.043 C 
BRANCH  19  20
HETATM   20  C   UNL     1     -41.915  56.125 -52.584  1.00  0.00     0.077 A 
HETATM   21  O   UNL     1     -41.428  54.837 -52.654  1.00  0.00    -0.310 OA
HETATM   22  C   UNL     1     -41.116  54.426 -51.398  1.00  0.00     0.086 A 
HETATM   23  C   UNL     1     -41.410  55.421 -50.480  1.00  0.00     0.000 A 
HETATM   24  C   UNL     1     -40.576  53.187 -51.062  1.00  0.00     0.038 A 
HETATM   25  C   UNL     1     -41.915  56.503 -51.245  1.00  0.00     0.051 A 
HETATM   26  C   UNL     1     -41.165  55.175 -49.117  1.00  0.00     0.014 A 
HETATM   27  C   UNL     1     -40.623  53.935 -48.746  1.00  0.00     0.001 A 
HETATM   28  C   UNL     1     -40.331  52.961 -49.704  1.00  0.00     0.003 A 
ENDBRANCH  19  20
ENDBRANCH   2  18
TORSDOF 5
ENDMDL
MODEL 6
REMARK VINA RESULT:      -7.4     15.483     18.870
REMARK  5 active torsions:
REMARK  status: ('A' for Active; 'I' for Inactive)
REMARK    1  A    between atoms: C_2  and  O_3 
REMARK    2  A    between atoms: O_3  and  C_4 
REMARK    3  A    between atoms: C_5  and  N_6 
REMARK       I    between atoms: N_6  and  C_7 
REMARK    4  A    between atoms: C_7  and  C_8 
REMARK    5  A    between atoms: C_9  and  C_10 
ROOT
HETATM    1  N   UNL     1     -34.730  41.154 -51.557  1.00  0.00    -0.321 N 
HETATM    2  C   UNL     1     -33.617  40.351 -51.466  1.00  0.00     0.245 C 
HETATM    3  O   UNL     1     -33.113  39.678 -52.354  1.00  0.00    -0.268 OA
HETATM    4  H   UNL     1     -34.954  41.761 -50.777  1.00  0.00     0.169 HD
ENDROOT
BRANCH   1   5
HETATM    5  C   UNL     1     -35.606  41.286 -52.657  1.00  0.00     0.071 A 
HETATM    6  C   UNL     1     -36.937  40.832 -52.480  1.00  0.00     0.096 A 
HETATM    7  C   UNL     1     -37.857  40.816 -53.531  1.00  0.00     0.049 A 
HETATM    8  C   UNL     1     -37.446  41.322 -54.747  1.00  0.00    -0.020 A 
HETATM    9  C   UNL     1     -36.157  41.806 -54.916  1.00  0.00     0.078 A 
HETATM   10  C   UNL     1     -38.167  41.383 -56.039  1.00  0.00     0.073 C 
HETATM   11  C   UNL     1     -35.219  41.795 -53.898  1.00  0.00     0.069 A 
HETATM   12  O   UNL     1     -35.904  42.249 -56.189  1.00  0.00    -0.345 OA
HETATM   13  C   UNL     1     -37.217  42.317 -56.804  1.00  0.00     0.129 C 
HETATM   14  C   UNL     1     -37.097  41.948 -58.272  1.00  0.00     0.040 C 
BRANCH   6  15
HETATM   15  O   UNL     1     -37.348  40.355 -51.256  1.00  0.00    -0.349 OA
BRANCH  15  16
HETATM   16  C   UNL     1     -37.469  38.923 -51.282  1.00  0.00     0.171 C 
HETATM   17  C   UNL     1     -36.543  38.303 -50.251  1.00  0.00     0.034 C 
ENDBRANCH  15  16
ENDBRANCH   6  15
ENDBRANCH   1   5
BRANCH   2  18
HETATM   18  C   UNL     1     -33.006  40.423 -50.114  1.00  0.00     0.077 C 
HETATM   19  C   UNL     1     -32.421  39.335 -49.595  1.00  0.00     0.043 C 
BRANCH  19  20
HETATM   20  C   UNL     1     -31.843  39.374 -48.299  1.00  0.00     0.077 A 
HETATM   21  O   UNL     1     -30.987  40.365 -47.867  1.00  0.00    -0.310 OA
HETATM   22  C   UNL     1     -30.642  40.106 -46.580  1.00  0.00     0.086 A 
HETATM   23  C   UNL     1     -31.243  38.935 -46.147  1.00  0.00     0.000 A 
HETATM   24  C   UNL     1     -29.808  40.894 -45.791  1.00  0.00     0.038 A 
HETATM   25  C   UNL     1     -32.010  38.477 -47.249  1.00  0.00     0.051 A 
HETATM   26  C   UNL     1     -30.994  38.493 -44.836  1.00  0.00     0.014 A 
HETATM   27  C   UNL     1     -30.155  39.264 -44.016  1.00  0.00     0.001 A 
HETATM   28  C   UNL     1     -29.576  40.446 -44.487  1.00  0.00     0.003 A 
ENDBRANCH  19  20
ENDBRANCH   2  18
TORSDOF 5
ENDMDL
MODEL 7
REMARK VINA RESULT:      -7.3      2.643      3.215
REMARK  5 active torsions:
REMARK  status: ('A' for Active; 'I' for Inactive)
REMARK    1  A    between atoms: C_2  and  O_3 
REMARK    2  A    between atoms: O_3  and  C_4 
REMARK    3  A    between atoms: C_5  and  N_6 
REMARK       I    between atoms: N_6  and  C_7 
REMARK    4  A    between atoms: C_7  and  C_8 
REMARK    5  A    between atoms: C_9  and  C_10 
ROOT
HETATM    1  N   UNL     1     -42.421  57.565 -54.829  1.00  0.00    -0.321 N 
HETATM    2  C   UNL     1     -41.322  57.635 -54.006  1.00  0.00     0.245 C 
HETATM    3  O   UNL     1     -40.726  58.642 -53.648  1.00  0.00    -0.268 OA
HETATM    4  H   UNL     1     -42.894  56.675 -54.929  1.00  0.00     0.169 HD
ENDROOT
BRANCH   1   5
HETATM    5  C   UNL     1     -43.031  58.623 -55.539  1.00  0.00     0.071 A 
HETATM    6  C   UNL     1     -42.876  58.627 -56.948  1.00  0.00     0.096 A 
HETATM    7  C   UNL     1     -43.346  59.679 -57.738  1.00  0.00     0.049 A 
HETATM    8  C   UNL     1     -44.030  60.697 -57.105  1.00  0.00    -0.020 A 
HETATM    9  C   UNL     1     -44.221  60.679 -55.732  1.00  0.00     0.078 A 
HETATM   10  C   UNL     1     -44.585  61.952 -57.661  1.00  0.00     0.073 C 
HETATM   11  C   UNL     1     -43.730  59.665 -54.927  1.00  0.00     0.069 A 
HETATM   12  O   UNL     1     -44.898  61.774 -55.260  1.00  0.00    -0.345 OA
HETATM   13  C   UNL     1     -45.429  62.399 -56.458  1.00  0.00     0.129 C 
HETATM   14  C   UNL     1     -45.425  63.907 -56.274  1.00  0.00     0.040 C 
BRANCH   6  15
HETATM   15  O   UNL     1     -42.218  57.594 -57.574  1.00  0.00    -0.349 OA
BRANCH  15  16
HETATM   16  C   UNL     1     -43.145  56.755 -58.284  1.00  0.00     0.171 C 
HETATM   17  C   UNL     1     -42.613  56.449 -59.672  1.00  0.00     0.034 C 
ENDBRANCH  15  16
ENDBRANCH   6  15
ENDBRANCH   1   5
BRANCH   2  18
HETATM   18  C   UNL     1     -40.930  56.292 -53.509  1.00  0.00     0.077 C 
HETATM   19  C   UNL     1     -40.992  55.238 -54.335  1.00  0.00     0.043 C 
BRANCH  19  20
HETATM   20  C   UNL     1     -40.638  53.941 -53.880  1.00  0.00     0.077 A 
HETATM   21  O   UNL     1     -40.368  53.634 -52.563  1.00  0.00    -0.310 OA
HETATM   22  C   UNL     1     -40.087  52.308 -52.478  1.00  0.00     0.086 A 
HETATM   23  C   UNL     1     -40.144  51.724 -53.732  1.00  0.00     0.000 A 
HETATM   24  C   UNL     1     -39.784  51.619 -51.306  1.00  0.00     0.038 A 
HETATM   25  C   UNL     1     -40.500  52.771 -54.620  1.00  0.00     0.051 A 
HETATM   26  C   UNL     1     -39.868  50.350 -53.850  1.00  0.00     0.014 A 
HETATM   27  C   UNL     1     -39.558  49.627 -52.688  1.00  0.00     0.001 A 
HETATM   28  C   UNL     1     -39.521  50.252 -51.439  1.00  0.00     0.003 A 
ENDBRANCH  19  20
ENDBRANCH   2  18
TORSDOF 5
ENDMDL
MODEL 8
REMARK VINA RESULT:      -7.3      2.617      3.786
REMARK  5 active torsions:
REMARK  status: ('A' for Active; 'I' for Inactive)
REMARK    1  A    between atoms: C_2  and  O_3 
REMARK    2  A    between atoms: O_3  and  C_4 
REMARK    3  A    between atoms: C_5  and  N_6 
REMARK       I    between atoms: N_6  and  C_7 
REMARK    4  A    between atoms: C_7  and  C_8 
REMARK    5  A    between atoms: C_9  and  C_10 
ROOT
HETATM    1  N   UNL     1     -42.347  57.381 -54.764  1.00  0.00    -0.321 N 
HETATM    2  C   UNL     1     -41.478  57.430 -53.699  1.00  0.00     0.245 C 
HETATM    3  O   UNL     1     -41.077  58.426 -53.114  1.00  0.00    -0.268 OA
HETATM    4  H   UNL     1     -42.700  56.478 -55.060  1.00  0.00     0.169 HD
ENDROOT
BRANCH   1   5
HETATM    5  C   UNL     1     -42.873  58.470 -55.495  1.00  0.00     0.071 A 
HETATM    6  C   UNL     1     -44.199  58.868 -55.194  1.00  0.00     0.096 A 
HETATM    7  C   UNL     1     -44.855  59.861 -55.925  1.00  0.00     0.049 A 
HETATM    8  C   UNL     1     -44.142  60.496 -56.921  1.00  0.00    -0.020 A 
HETATM    9  C   UNL     1     -42.830  60.140 -57.194  1.00  0.00     0.078 A 
HETATM   10  C   UNL     1     -44.581  61.529 -57.887  1.00  0.00     0.073 C 
HETATM   11  C   UNL     1     -42.175  59.133 -56.506  1.00  0.00     0.069 A 
HETATM   12  O   UNL     1     -42.275  60.850 -58.228  1.00  0.00    -0.345 OA
HETATM   13  C   UNL     1     -43.210  61.940 -58.444  1.00  0.00     0.129 C 
HETATM   14  C   UNL     1     -43.258  62.264 -59.928  1.00  0.00     0.040 C 
BRANCH   6  15
HETATM   15  O   UNL     1     -44.894  58.249 -54.180  1.00  0.00    -0.349 OA
BRANCH  15  16
HETATM   16  C   UNL     1     -44.921  59.074 -53.003  1.00  0.00     0.171 C 
HETATM   17  C   UNL     1     -44.612  58.239 -51.774  1.00  0.00     0.034 C 
ENDBRANCH  15  16
ENDBRANCH   6  15
ENDBRANCH   1   5
BRANCH   2  18
HETATM   18  C   UNL     1     -41.089  56.067 -53.255  1.00  0.00     0.077 C 
HETATM   19  C   UNL     1     -40.951  55.091 -54.163  1.00  0.00     0.043 C 
BRANCH  19  20
HETATM   20  C   UNL     1     -40.594  53.776 -53.762  1.00  0.00     0.077 A 
HETATM   21  O   UNL     1     -40.316  53.418 -52.460  1.00  0.00    -0.310 OA
HETATM   22  C   UNL     1     -40.035  52.089 -52.430  1.00  0.00     0.086 A 
HETATM   23  C   UNL     1     -40.100  51.555 -53.706  1.00  0.00     0.000 A 
HETATM   24  C   UNL     1     -39.725  51.354 -51.288  1.00  0.00     0.038 A 
HETATM   25  C   UNL     1     -40.461  52.637 -54.549  1.00  0.00     0.051 A 
HETATM   26  C   UNL     1     -39.826  50.188 -53.879  1.00  0.00     0.014 A 
HETATM   27  C   UNL     1     -39.508  49.418 -52.749  1.00  0.00     0.001 A 
HETATM   28  C   UNL     1     -39.463  49.993 -51.476  1.00  0.00     0.003 A 
ENDBRANCH  19  20
ENDBRANCH   2  18
TORSDOF 5
ENDMDL
MODEL 9
REMARK VINA RESULT:      -7.2      5.254     10.265
REMARK  5 active torsions:
REMARK  status: ('A' for Active; 'I' for Inactive)
REMARK    1  A    between atoms: C_2  and  O_3 
REMARK    2  A    between atoms: O_3  and  C_4 
REMARK    3  A    between atoms: C_5  and  N_6 
REMARK       I    between atoms: N_6  and  C_7 
REMARK    4  A    between atoms: C_7  and  C_8 
REMARK    5  A    between atoms: C_9  and  C_10 
ROOT
HETATM    1  N   UNL     1     -41.959  56.155 -52.242  1.00  0.00    -0.321 N 
HETATM    2  C   UNL     1     -43.121  56.587 -52.837  1.00  0.00     0.245 C 
HETATM    3  O   UNL     1     -43.942  55.909 -53.441  1.00  0.00    -0.268 OA
HETATM    4  H   UNL     1     -41.445  56.805 -51.658  1.00  0.00     0.169 HD
ENDROOT
BRANCH   1   5
HETATM    5  C   UNL     1     -41.395  54.861 -52.297  1.00  0.00     0.071 A 
HETATM    6  C   UNL     1     -40.611  54.452 -51.189  1.00  0.00     0.096 A 
HETATM    7  C   UNL     1     -39.919  53.238 -51.183  1.00  0.00     0.049 A 
HETATM    8  C   UNL     1     -40.076  52.410 -52.276  1.00  0.00    -0.020 A 
HETATM    9  C   UNL     1     -40.874  52.786 -53.345  1.00  0.00     0.078 A 
HETATM   10  C   UNL     1     -39.434  51.109 -52.575  1.00  0.00     0.073 C 
HETATM   11  C   UNL     1     -41.537  54.000 -53.387  1.00  0.00     0.069 A 
HETATM   12  O   UNL     1     -40.902  51.861 -54.357  1.00  0.00    -0.345 OA
HETATM   13  C   UNL     1     -40.304  50.678 -53.766  1.00  0.00     0.129 C 
HETATM   14  C   UNL     1     -39.508  49.940 -54.830  1.00  0.00     0.040 C 
BRANCH   6  15
HETATM   15  O   UNL     1     -40.483  55.273 -50.092  1.00  0.00    -0.349 OA
BRANCH  15  16
HETATM   16  C   UNL     1     -41.259  54.773 -48.989  1.00  0.00     0.171 C 
HETATM   17  C   UNL     1     -40.350  54.108 -47.972  1.00  0.00     0.034 C 
ENDBRANCH  15  16
ENDBRANCH   6  15
ENDBRANCH   1   5
BRANCH   2  18
HETATM   18  C   UNL     1     -43.335  58.040 -52.619  1.00  0.00     0.077 C 
HETATM   19  C   UNL     1     -42.447  58.737 -51.897  1.00  0.00     0.043 C 
BRANCH  19  20
HETATM   20  C   UNL     1     -42.637  60.124 -51.660  1.00  0.00     0.077 A 
HETATM   21  O   UNL     1     -42.877  61.049 -52.655  1.00  0.00    -0.310 OA
HETATM   22  C   UNL     1     -43.030  62.269 -52.080  1.00  0.00     0.086 A 
HETATM   23  C   UNL     1     -42.874  62.178 -50.707  1.00  0.00     0.000 A 
HETATM   24  C   UNL     1     -43.307  63.454 -52.758  1.00  0.00     0.038 A 
HETATM   25  C   UNL     1     -42.628  60.805 -50.447  1.00  0.00     0.051 A 
HETATM   26  C   UNL     1     -42.985  63.347 -49.935  1.00  0.00     0.014 A 
HETATM   27  C   UNL     1     -43.261  64.558 -50.589  1.00  0.00     0.001 A 
HETATM   28  C   UNL     1     -43.422  64.607 -51.976  1.00  0.00     0.003 A 
ENDBRANCH  19  20
ENDBRANCH   2  18
TORSDOF 5
ENDMDL
MODEL 10
REMARK VINA RESULT:      -7.1      1.485      2.650
REMARK  5 active torsions:
REMARK  status: ('A' for Active; 'I' for Inactive)
REMARK    1  A    between atoms: C_2  and  O_3 
REMARK    2  A    between atoms: O_3  and  C_4 
REMARK    3  A    between atoms: C_5  and  N_6 
REMARK       I    between atoms: N_6  and  C_7 
REMARK    4  A    between atoms: C_7  and  C_8 
REMARK    5  A    between atoms: C_9  and  C_10 
ROOT
HETATM    1  N   UNL     1     -42.037  56.863 -57.242  1.00  0.00    -0.321 N 
HETATM    2  C   UNL     1     -43.043  56.231 -56.549  1.00  0.00     0.245 C 
HETATM    3  O   UNL     1     -44.223  56.549 -56.501  1.00  0.00    -0.268 OA
HETATM    4  H   UNL     1     -41.132  56.410 -57.302  1.00  0.00     0.169 HD
ENDROOT
BRANCH   1   5
HETATM    5  C   UNL     1     -42.116  58.083 -57.950  1.00  0.00     0.071 A 
HETATM    6  C   UNL     1     -42.539  59.224 -57.223  1.00  0.00     0.096 A 
HETATM    7  C   UNL     1     -42.756  60.456 -57.845  1.00  0.00     0.049 A 
HETATM    8  C   UNL     1     -42.480  60.547 -59.195  1.00  0.00    -0.020 A 
HETATM    9  C   UNL     1     -42.027  59.444 -59.904  1.00  0.00     0.078 A 
HETATM   10  C   UNL     1     -42.664  61.686 -60.123  1.00  0.00     0.073 C 
HETATM   11  C   UNL     1     -41.843  58.206 -59.314  1.00  0.00     0.069 A 
HETATM   12  O   UNL     1     -41.825  59.698 -61.236  1.00  0.00    -0.345 OA
HETATM   13  C   UNL     1     -41.881  61.146 -61.329  1.00  0.00     0.129 C 
HETATM   14  C   UNL     1     -42.514  61.533 -62.654  1.00  0.00     0.040 C 
BRANCH   6  15
HETATM   15  O   UNL     1     -42.785  59.132 -55.872  1.00  0.00    -0.349 OA
BRANCH  15  16
HETATM   16  C   UNL     1     -41.781  59.837 -55.123  1.00  0.00     0.171 C 
HETATM   17  C   UNL     1     -41.369  59.024 -53.910  1.00  0.00     0.034 C 
ENDBRANCH  15  16
ENDBRANCH   6  15
ENDBRANCH   1   5
BRANCH   2  18
HETATM   18  C   UNL     1     -42.546  55.011 -55.864  1.00  0.00     0.077 C 
HETATM   19  C   UNL     1     -41.606  55.124 -54.915  1.00  0.00     0.043 C 
BRANCH  19  20
HETATM   20  C   UNL     1     -41.103  53.971 -54.256  1.00  0.00     0.077 A 
HETATM   21  O   UNL     1     -40.963  52.739 -54.859  1.00  0.00    -0.310 OA
HETATM   22  C   UNL     1     -40.437  51.873 -53.954  1.00  0.00     0.086 A 
HETATM   23  C   UNL     1     -40.242  52.508 -52.739  1.00  0.00     0.000 A 
HETATM   24  C   UNL     1     -40.130  50.536 -54.197  1.00  0.00     0.038 A 
HETATM   25  C   UNL     1     -40.665  53.847 -52.941  1.00  0.00     0.051 A 
HETATM   26  C   UNL     1     -39.714  51.767 -51.668  1.00  0.00     0.014 A 
HETATM   27  C   UNL     1     -39.396  50.416 -51.879  1.00  0.00     0.001 A 
HETATM   28  C   UNL     1     -39.598  49.815 -53.124  1.00  0.00     0.003 A 
ENDBRANCH  19  20
ENDBRANCH   2  18
TORSDOF 5
ENDMDL
