MODEL 1
REMARK VINA RESULT:      -9.7      0.000      0.000
REMARK  4 active torsions:
REMARK  status: ('A' for Active; 'I' for Inactive)
REMARK    1  A    between atoms: C_4  and  C_5 
REMARK    2  A    between atoms: C_9  and  N_10 
REMARK       I    between atoms: N_10  and  C_11 
REMARK    3  A    between atoms: C_11  and  C_12 
REMARK    4  A    between atoms: C_13  and  C_14 
ROOT
HETATM    1  N   UNL     1     -41.377  56.015 -52.686  1.00  0.00    -0.308 N 
HETATM    2  C   UNL     1     -42.131  55.218 -51.842  1.00  0.00     0.261 C 
HETATM    3  O   UNL     1     -43.308  54.931 -52.062  1.00  0.00    -0.267 OA
HETATM    4  H   UNL     1     -40.399  56.186 -52.494  1.00  0.00     0.170 HD
ENDROOT
BRANCH   1   5
HETATM    5  C   UNL     1     -41.886  56.513 -53.871  1.00  0.00     0.126 A 
HETATM    6  N   UNL     1     -42.740  57.579 -53.965  1.00  0.00    -0.262 N 
HETATM    7  N   UNL     1     -43.170  57.818 -55.214  1.00  0.00    -0.173 NA
HETATM    8  H   UNL     1     -43.086  58.150 -53.198  1.00  0.00     0.191 HD
HETATM    9  C   UNL     1     -42.530  56.907 -55.965  1.00  0.00     0.090 A 
HETATM   10  C   UNL     1     -41.700  56.077 -55.160  1.00  0.00     0.084 A 
BRANCH   9  11
HETATM   11  C   UNL     1     -42.747  56.813 -57.404  1.00  0.00    -0.005 A 
HETATM   12  C   UNL     1     -42.219  57.777 -58.272  1.00  0.00     0.020 A 
HETATM   13  C   UNL     1     -42.414  57.671 -59.656  1.00  0.00    -0.061 A 
HETATM   14  C   UNL     1     -41.902  58.729 -60.589  1.00  0.00     0.048 C 
HETATM   15  C   UNL     1     -43.137  56.584 -60.165  1.00  0.00     0.013 A 
HETATM   16  C   UNL     1     -43.658  55.603 -59.312  1.00  0.00    -0.061 A 
HETATM   17  C   UNL     1     -43.476  55.738 -57.929  1.00  0.00     0.020 A 
HETATM   18  C   UNL     1     -44.447  54.456 -59.868  1.00  0.00     0.048 C 
ENDBRANCH   9  11
ENDBRANCH   1   5
BRANCH   2  19
HETATM   19  C   UNL     1     -41.430  54.677 -50.683  1.00  0.00     0.080 A 
HETATM   20  C   UNL     1     -40.660  53.489 -50.475  1.00  0.00     0.104 A 
HETATM   21  N   UNL     1     -40.267  53.382 -49.195  1.00  0.00    -0.174 NA
HETATM   22  N   UNL     1     -40.706  54.503 -48.612  1.00  0.00    -0.288 N 
HETATM   23  H   UNL     1     -40.498  54.648 -47.628  1.00  0.00     0.188 HD
HETATM   24  C   UNL     1     -41.399  55.311 -49.453  1.00  0.00     0.128 A 
BRANCH  20  25
HETATM   25  C   UNL     1     -40.274  52.453 -51.428  1.00  0.00    -0.004 A 
HETATM   26  C   UNL     1     -40.235  52.726 -52.803  1.00  0.00     0.017 A 
HETATM   27  C   UNL     1     -39.877  51.722 -53.706  1.00  0.00     0.043 A 
HETATM   28  C   UNL     1     -39.553  50.455 -53.232  1.00  0.00     0.116 A 
HETATM   29  F   UNL     1     -39.212  49.495 -54.102  1.00  0.00    -0.206 F 
HETATM   30  C   UNL     1     -39.576  50.171 -51.872  1.00  0.00     0.043 A 
HETATM   31  C   UNL     1     -39.932  51.172 -50.967  1.00  0.00     0.017 A 
ENDBRANCH  20  25
ENDBRANCH   2  19
TORSDOF 4
ENDMDL
MODEL 2
REMARK VINA RESULT:      -9.6      0.206      1.877
REMARK  4 active torsions:
REMARK  status: ('A' for Active; 'I' for Inactive)
REMARK    1  A    between atoms: C_4  and  C_5 
REMARK    2  A    between atoms: C_9  and  N_10 
REMARK       I    between atoms: N_10  and  C_11 
REMARK    3  A    between atoms: C_11  and  C_12 
REMARK    4  A    between atoms: C_13  and  C_14 
ROOT
HETATM    1  N   UNL     1     -41.320  56.017 -52.831  1.00  0.00    -0.308 N 
HETATM    2  C   UNL     1     -42.087  55.304 -51.925  1.00  0.00     0.261 C 
HETATM    3  O   UNL     1     -43.294  55.112 -52.070  1.00  0.00    -0.267 OA
HETATM    4  H   UNL     1     -40.322  56.109 -52.699  1.00  0.00     0.170 HD
ENDROOT
BRANCH   1   5
HETATM    5  C   UNL     1     -41.855  56.529 -53.999  1.00  0.00     0.126 A 
HETATM    6  N   UNL     1     -42.751  57.563 -54.056  1.00  0.00    -0.262 N 
HETATM    7  N   UNL     1     -43.196  57.821 -55.297  1.00  0.00    -0.173 NA
HETATM    8  H   UNL     1     -43.115  58.096 -53.271  1.00  0.00     0.191 HD
HETATM    9  C   UNL     1     -42.525  56.959 -56.076  1.00  0.00     0.090 A 
HETATM   10  C   UNL     1     -41.658  56.139 -55.300  1.00  0.00     0.084 A 
BRANCH   9  11
HETATM   11  C   UNL     1     -42.745  56.899 -57.517  1.00  0.00    -0.005 A 
HETATM   12  C   UNL     1     -43.467  55.844 -58.088  1.00  0.00     0.020 A 
HETATM   13  C   UNL     1     -43.693  55.802 -59.471  1.00  0.00    -0.061 A 
HETATM   14  C   UNL     1     -44.415  54.646 -60.098  1.00  0.00     0.048 C 
HETATM   15  C   UNL     1     -43.193  56.834 -60.278  1.00  0.00     0.013 A 
HETATM   16  C   UNL     1     -42.482  57.903 -59.721  1.00  0.00    -0.061 A 
HETATM   17  C   UNL     1     -42.244  57.917 -58.340  1.00  0.00     0.020 A 
HETATM   18  C   UNL     1     -41.937  58.990 -60.599  1.00  0.00     0.048 C 
ENDBRANCH   9  11
ENDBRANCH   1   5
BRANCH   2  19
HETATM   19  C   UNL     1     -41.367  54.732 -50.793  1.00  0.00     0.080 A 
HETATM   20  C   UNL     1     -40.614  53.527 -50.623  1.00  0.00     0.104 A 
HETATM   21  N   UNL     1     -40.191  53.393 -49.355  1.00  0.00    -0.174 NA
HETATM   22  N   UNL     1     -40.592  54.513 -48.744  1.00  0.00    -0.288 N 
HETATM   23  H   UNL     1     -40.356  54.639 -47.764  1.00  0.00     0.188 HD
HETATM   24  C   UNL     1     -41.292  55.347 -49.554  1.00  0.00     0.128 A 
BRANCH  20  25
HETATM   25  C   UNL     1     -40.273  52.499 -51.601  1.00  0.00    -0.004 A 
HETATM   26  C   UNL     1     -39.858  51.226 -51.183  1.00  0.00     0.017 A 
HETATM   27  C   UNL     1     -39.521  50.255 -52.128  1.00  0.00     0.043 A 
HETATM   28  C   UNL     1     -39.609  50.555 -53.483  1.00  0.00     0.116 A 
HETATM   29  F   UNL     1     -39.284  49.620 -54.387  1.00  0.00    -0.206 F 
HETATM   30  C   UNL     1     -40.029  51.807 -53.914  1.00  0.00     0.043 A 
HETATM   31  C   UNL     1     -40.367  52.780 -52.973  1.00  0.00     0.017 A 
ENDBRANCH  20  25
ENDBRANCH   2  19
TORSDOF 4
ENDMDL
MODEL 3
REMARK VINA RESULT:      -9.4      3.600      9.240
REMARK  4 active torsions:
REMARK  status: ('A' for Active; 'I' for Inactive)
REMARK    1  A    between atoms: C_4  and  C_5 
REMARK    2  A    between atoms: C_9  and  N_10 
REMARK       I    between atoms: N_10  and  C_11 
REMARK    3  A    between atoms: C_11  and  C_12 
REMARK    4  A    between atoms: C_13  and  C_14 
ROOT
HETATM    1  N   UNL     1     -42.473  56.525 -57.330  1.00  0.00    -0.308 N 
HETATM    2  C   UNL     1     -42.894  57.824 -57.102  1.00  0.00     0.261 C 
HETATM    3  O   UNL     1     -43.292  58.219 -56.006  1.00  0.00    -0.267 OA
HETATM    4  H   UNL     1     -42.106  56.255 -58.233  1.00  0.00     0.170 HD
ENDROOT
BRANCH   1   5
HETATM    5  C   UNL     1     -42.427  55.582 -56.320  1.00  0.00     0.126 A 
HETATM    6  N   UNL     1     -43.504  55.195 -55.567  1.00  0.00    -0.262 N 
HETATM    7  N   UNL     1     -43.193  54.334 -54.585  1.00  0.00    -0.173 NA
HETATM    8  H   UNL     1     -44.462  55.521 -55.664  1.00  0.00     0.191 HD
HETATM    9  C   UNL     1     -41.877  54.115 -54.740  1.00  0.00     0.090 A 
HETATM   10  C   UNL     1     -41.360  54.869 -55.830  1.00  0.00     0.084 A 
BRANCH   9  11
HETATM   11  C   UNL     1     -41.136  53.240 -53.838  1.00  0.00    -0.005 A 
HETATM   12  C   UNL     1     -40.601  52.029 -54.295  1.00  0.00     0.020 A 
HETATM   13  C   UNL     1     -39.873  51.202 -53.429  1.00  0.00    -0.061 A 
HETATM   14  C   UNL     1     -39.346  49.876 -53.892  1.00  0.00     0.048 C 
HETATM   15  C   UNL     1     -39.678  51.604 -52.100  1.00  0.00     0.013 A 
HETATM   16  C   UNL     1     -40.193  52.819 -51.632  1.00  0.00    -0.061 A 
HETATM   17  C   UNL     1     -40.940  53.621 -52.504  1.00  0.00     0.020 A 
HETATM   18  C   UNL     1     -39.994  53.227 -50.203  1.00  0.00     0.048 C 
ENDBRANCH   9  11
ENDBRANCH   1   5
BRANCH   2  19
HETATM   19  C   UNL     1     -42.787  58.736 -58.235  1.00  0.00     0.080 A 
HETATM   20  C   UNL     1     -43.537  58.882 -59.445  1.00  0.00     0.104 A 
HETATM   21  N   UNL     1     -43.007  59.833 -60.233  1.00  0.00    -0.174 NA
HETATM   22  N   UNL     1     -41.993  60.336 -59.522  1.00  0.00    -0.288 N 
HETATM   23  H   UNL     1     -41.454  61.098 -59.923  1.00  0.00     0.188 HD
HETATM   24  C   UNL     1     -41.820  59.724 -58.324  1.00  0.00     0.128 A 
BRANCH  20  25
HETATM   25  C   UNL     1     -44.731  58.171 -59.890  1.00  0.00    -0.004 A 
HETATM   26  C   UNL     1     -44.682  56.796 -60.165  1.00  0.00     0.017 A 
HETATM   27  C   UNL     1     -45.828  56.129 -60.603  1.00  0.00     0.043 A 
HETATM   28  C   UNL     1     -47.017  56.833 -60.755  1.00  0.00     0.116 A 
HETATM   29  F   UNL     1     -48.114  56.190 -61.177  1.00  0.00    -0.206 F 
HETATM   30  C   UNL     1     -47.086  58.193 -60.476  1.00  0.00     0.043 A 
HETATM   31  C   UNL     1     -45.943  58.863 -60.037  1.00  0.00     0.017 A 
ENDBRANCH  20  25
ENDBRANCH   2  19
TORSDOF 4
ENDMDL
MODEL 4
REMARK VINA RESULT:      -9.4      3.582      9.148
REMARK  4 active torsions:
REMARK  status: ('A' for Active; 'I' for Inactive)
REMARK    1  A    between atoms: C_4  and  C_5 
REMARK    2  A    between atoms: C_9  and  N_10 
REMARK       I    between atoms: N_10  and  C_11 
REMARK    3  A    between atoms: C_11  and  C_12 
REMARK    4  A    between atoms: C_13  and  C_14 
ROOT
HETATM    1  N   UNL     1     -42.456  56.493 -57.303  1.00  0.00    -0.308 N 
HETATM    2  C   UNL     1     -42.885  57.791 -57.082  1.00  0.00     0.261 C 
HETATM    3  O   UNL     1     -43.295  58.187 -55.991  1.00  0.00    -0.267 OA
HETATM    4  H   UNL     1     -42.080  56.223 -58.202  1.00  0.00     0.170 HD
ENDROOT
BRANCH   1   5
HETATM    5  C   UNL     1     -42.414  55.553 -56.291  1.00  0.00     0.126 A 
HETATM    6  N   UNL     1     -43.491  55.177 -55.533  1.00  0.00    -0.262 N 
HETATM    7  N   UNL     1     -43.184  54.316 -54.550  1.00  0.00    -0.173 NA
HETATM    8  H   UNL     1     -44.447  55.510 -55.628  1.00  0.00     0.191 HD
HETATM    9  C   UNL     1     -41.871  54.086 -54.709  1.00  0.00     0.090 A 
HETATM   10  C   UNL     1     -41.351  54.833 -55.803  1.00  0.00     0.084 A 
BRANCH   9  11
HETATM   11  C   UNL     1     -41.133  53.208 -53.807  1.00  0.00    -0.005 A 
HETATM   12  C   UNL     1     -41.002  53.524 -52.449  1.00  0.00     0.020 A 
HETATM   13  C   UNL     1     -40.308  52.667 -51.583  1.00  0.00    -0.061 A 
HETATM   14  C   UNL     1     -40.113  53.025 -50.139  1.00  0.00     0.048 C 
HETATM   15  C   UNL     1     -39.753  51.483 -52.090  1.00  0.00     0.013 A 
HETATM   16  C   UNL     1     -39.889  51.146 -53.442  1.00  0.00    -0.061 A 
HETATM   17  C   UNL     1     -40.563  52.026 -54.298  1.00  0.00     0.020 A 
HETATM   18  C   UNL     1     -39.273  49.886 -53.974  1.00  0.00     0.048 C 
ENDBRANCH   9  11
ENDBRANCH   1   5
BRANCH   2  19
HETATM   19  C   UNL     1     -42.773  58.701 -58.217  1.00  0.00     0.080 A 
HETATM   20  C   UNL     1     -43.524  58.852 -59.425  1.00  0.00     0.104 A 
HETATM   21  N   UNL     1     -42.988  59.797 -60.215  1.00  0.00    -0.174 NA
HETATM   22  N   UNL     1     -41.968  60.293 -59.507  1.00  0.00    -0.288 N 
HETATM   23  H   UNL     1     -41.424  61.051 -59.909  1.00  0.00     0.188 HD
HETATM   24  C   UNL     1     -41.798  59.681 -58.308  1.00  0.00     0.128 A 
BRANCH  20  25
HETATM   25  C   UNL     1     -44.724  58.149 -59.867  1.00  0.00    -0.004 A 
HETATM   26  C   UNL     1     -45.948  58.826 -59.978  1.00  0.00     0.017 A 
HETATM   27  C   UNL     1     -47.092  58.139 -60.390  1.00  0.00     0.043 A 
HETATM   28  C   UNL     1     -47.008  56.785 -60.696  1.00  0.00     0.116 A 
HETATM   29  F   UNL     1     -48.109  56.130 -61.089  1.00  0.00    -0.206 F 
HETATM   30  C   UNL     1     -45.802  56.103 -60.602  1.00  0.00     0.043 A 
HETATM   31  C   UNL     1     -44.656  56.785 -60.192  1.00  0.00     0.017 A 
ENDBRANCH  20  25
ENDBRANCH   2  19
TORSDOF 4
ENDMDL
MODEL 5
REMARK VINA RESULT:      -8.8      3.162      8.618
REMARK  4 active torsions:
REMARK  status: ('A' for Active; 'I' for Inactive)
REMARK    1  A    between atoms: C_4  and  C_5 
REMARK    2  A    between atoms: C_9  and  N_10 
REMARK       I    between atoms: N_10  and  C_11 
REMARK    3  A    between atoms: C_11  and  C_12 
REMARK    4  A    between atoms: C_13  and  C_14 
ROOT
HETATM    1  N   UNL     1     -44.019  56.956 -56.349  1.00  0.00    -0.308 N 
HETATM    2  C   UNL     1     -44.219  58.275 -55.978  1.00  0.00     0.261 C 
HETATM    3  O   UNL     1     -44.130  58.667 -54.815  1.00  0.00    -0.267 OA
HETATM    4  H   UNL     1     -44.052  56.686 -57.323  1.00  0.00     0.170 HD
ENDROOT
BRANCH   1   5
HETATM    5  C   UNL     1     -43.655  55.986 -55.434  1.00  0.00     0.126 A 
HETATM    6  N   UNL     1     -44.456  55.536 -54.418  1.00  0.00    -0.262 N 
HETATM    7  N   UNL     1     -43.850  54.657 -53.603  1.00  0.00    -0.173 NA
HETATM    8  H   UNL     1     -45.409  55.829 -54.220  1.00  0.00     0.191 HD
HETATM    9  C   UNL     1     -42.631  54.492 -54.142  1.00  0.00     0.090 A 
HETATM   10  C   UNL     1     -42.474  55.298 -55.304  1.00  0.00     0.084 A 
BRANCH   9  11
HETATM   11  C   UNL     1     -41.636  53.618 -53.530  1.00  0.00    -0.005 A 
HETATM   12  C   UNL     1     -41.137  52.507 -54.221  1.00  0.00     0.020 A 
HETATM   13  C   UNL     1     -40.167  51.682 -53.636  1.00  0.00    -0.061 A 
HETATM   14  C   UNL     1     -39.668  50.457 -54.344  1.00  0.00     0.048 C 
HETATM   15  C   UNL     1     -39.695  51.985 -52.351  1.00  0.00     0.013 A 
HETATM   16  C   UNL     1     -40.173  53.100 -51.653  1.00  0.00    -0.061 A 
HETATM   17  C   UNL     1     -41.161  53.900 -52.242  1.00  0.00     0.020 A 
HETATM   18  C   UNL     1     -39.673  53.401 -50.271  1.00  0.00     0.048 C 
ENDBRANCH   9  11
ENDBRANCH   1   5
BRANCH   2  19
HETATM   19  C   UNL     1     -44.491  59.208 -57.066  1.00  0.00     0.080 A 
HETATM   20  C   UNL     1     -44.706  59.034 -58.470  1.00  0.00     0.104 A 
HETATM   21  N   UNL     1     -44.848  60.217 -59.090  1.00  0.00    -0.174 NA
HETATM   22  N   UNL     1     -44.802  61.123 -58.107  1.00  0.00    -0.288 N 
HETATM   23  H   UNL     1     -44.915  62.103 -58.348  1.00  0.00     0.188 HD
HETATM   24  C   UNL     1     -44.597  60.576 -56.882  1.00  0.00     0.128 A 
BRANCH  20  25
HETATM   25  C   UNL     1     -44.786  57.805 -59.253  1.00  0.00    -0.004 A 
HETATM   26  C   UNL     1     -43.620  57.159 -59.690  1.00  0.00     0.017 A 
HETATM   27  C   UNL     1     -43.710  55.991 -60.449  1.00  0.00     0.043 A 
HETATM   28  C   UNL     1     -44.960  55.469 -60.762  1.00  0.00     0.116 A 
HETATM   29  F   UNL     1     -45.042  54.348 -61.492  1.00  0.00    -0.206 F 
HETATM   30  C   UNL     1     -46.125  56.090 -60.327  1.00  0.00     0.043 A 
HETATM   31  C   UNL     1     -46.039  57.257 -59.567  1.00  0.00     0.017 A 
ENDBRANCH  20  25
ENDBRANCH   2  19
TORSDOF 4
ENDMDL
MODEL 6
REMARK VINA RESULT:      -8.8      2.304      3.459
REMARK  4 active torsions:
REMARK  status: ('A' for Active; 'I' for Inactive)
REMARK    1  A    between atoms: C_4  and  C_5 
REMARK    2  A    between atoms: C_9  and  N_10 
REMARK       I    between atoms: N_10  and  C_11 
REMARK    3  A    between atoms: C_11  and  C_12 
REMARK    4  A    between atoms: C_13  and  C_14 
ROOT
HETATM    1  N   UNL     1     -42.454  56.974 -54.709  1.00  0.00    -0.308 N 
HETATM    2  C   UNL     1     -41.424  56.247 -54.137  1.00  0.00     0.261 C 
HETATM    3  O   UNL     1     -40.366  56.008 -54.718  1.00  0.00    -0.267 OA
HETATM    4  H   UNL     1     -43.287  57.191 -54.178  1.00  0.00     0.170 HD
ENDROOT
BRANCH   1   5
HETATM    5  C   UNL     1     -42.345  57.529 -55.971  1.00  0.00     0.126 A 
HETATM    6  N   UNL     1     -42.328  56.811 -57.137  1.00  0.00    -0.262 N 
HETATM    7  N   UNL     1     -42.121  57.564 -58.230  1.00  0.00    -0.173 NA
HETATM    8  H   UNL     1     -42.415  55.803 -57.232  1.00  0.00     0.191 HD
HETATM    9  C   UNL     1     -42.054  58.820 -57.760  1.00  0.00     0.090 A 
HETATM   10  C   UNL     1     -42.207  58.843 -56.345  1.00  0.00     0.084 A 
BRANCH   9  11
HETATM   11  C   UNL     1     -41.808  59.955 -58.642  1.00  0.00    -0.005 A 
HETATM   12  C   UNL     1     -41.176  61.110 -58.164  1.00  0.00     0.020 A 
HETATM   13  C   UNL     1     -40.925  62.190 -59.021  1.00  0.00    -0.061 A 
HETATM   14  C   UNL     1     -40.301  63.453 -58.506  1.00  0.00     0.048 C 
HETATM   15  C   UNL     1     -41.307  62.099 -60.367  1.00  0.00     0.013 A 
HETATM   16  C   UNL     1     -41.926  60.946 -60.864  1.00  0.00    -0.061 A 
HETATM   17  C   UNL     1     -42.192  59.886 -59.988  1.00  0.00     0.020 A 
HETATM   18  C   UNL     1     -42.346  60.871 -62.302  1.00  0.00     0.048 C 
ENDBRANCH   9  11
ENDBRANCH   1   5
BRANCH   2  19
HETATM   19  C   UNL     1     -41.639  55.816 -52.760  1.00  0.00     0.080 A 
HETATM   20  C   UNL     1     -41.422  54.575 -52.080  1.00  0.00     0.104 A 
HETATM   21  N   UNL     1     -41.847  54.638 -50.807  1.00  0.00    -0.174 NA
HETATM   22  N   UNL     1     -42.256  55.901 -50.649  1.00  0.00    -0.288 N 
HETATM   23  H   UNL     1     -42.603  56.185 -49.737  1.00  0.00     0.188 HD
HETATM   24  C   UNL     1     -42.149  56.647 -51.777  1.00  0.00     0.128 A 
BRANCH  20  25
HETATM   25  C   UNL     1     -40.830  53.336 -52.574  1.00  0.00    -0.004 A 
HETATM   26  C   UNL     1     -41.122  52.870 -53.864  1.00  0.00     0.017 A 
HETATM   27  C   UNL     1     -40.559  51.676 -54.320  1.00  0.00     0.043 A 
HETATM   28  C   UNL     1     -39.703  50.958 -53.492  1.00  0.00     0.116 A 
HETATM   29  F   UNL     1     -39.167  49.813 -53.933  1.00  0.00    -0.206 F 
HETATM   30  C   UNL     1     -39.394  51.412 -52.215  1.00  0.00     0.043 A 
HETATM   31  C   UNL     1     -39.954  52.606 -51.756  1.00  0.00     0.017 A 
ENDBRANCH  20  25
ENDBRANCH   2  19
TORSDOF 4
ENDMDL
MODEL 7
REMARK VINA RESULT:      -8.6      2.998      8.605
REMARK  4 active torsions:
REMARK  status: ('A' for Active; 'I' for Inactive)
REMARK    1  A    between atoms: C_4  and  C_5 
REMARK    2  A    between atoms: C_9  and  N_10 
REMARK       I    between atoms: N_10  and  C_11 
REMARK    3  A    between atoms: C_11  and  C_12 
REMARK    4  A    between atoms: C_13  and  C_14 
ROOT
HETATM    1  N   UNL     1     -42.568  57.775 -56.369  1.00  0.00    -0.308 N 
HETATM    2  C   UNL     1     -42.110  59.080 -56.435  1.00  0.00     0.261 C 
HETATM    3  O   UNL     1     -41.536  59.640 -55.501  1.00  0.00    -0.267 OA
HETATM    4  H   UNL     1     -42.990  57.337 -57.176  1.00  0.00     0.170 HD
ENDROOT
BRANCH   1   5
HETATM    5  C   UNL     1     -42.368  56.985 -55.252  1.00  0.00     0.126 A 
HETATM    6  N   UNL     1     -42.795  57.301 -53.989  1.00  0.00    -0.262 N 
HETATM    7  N   UNL     1     -42.401  56.422 -53.052  1.00  0.00    -0.173 NA
HETATM    8  H   UNL     1     -43.324  58.124 -53.714  1.00  0.00     0.191 HD
HETATM    9  C   UNL     1     -41.741  55.477 -53.740  1.00  0.00     0.090 A 
HETATM   10  C   UNL     1     -41.711  55.785 -55.129  1.00  0.00     0.084 A 
BRANCH   9  11
HETATM   11  C   UNL     1     -41.123  54.336 -53.073  1.00  0.00    -0.005 A 
HETATM   12  C   UNL     1     -40.638  53.250 -53.813  1.00  0.00     0.020 A 
HETATM   13  C   UNL     1     -40.027  52.166 -53.168  1.00  0.00    -0.061 A 
HETATM   14  C   UNL     1     -39.557  50.973 -53.946  1.00  0.00     0.048 C 
HETATM   15  C   UNL     1     -39.900  52.183 -51.772  1.00  0.00     0.013 A 
HETATM   16  C   UNL     1     -40.366  53.268 -51.019  1.00  0.00    -0.061 A 
HETATM   17  C   UNL     1     -40.996  54.332 -51.678  1.00  0.00     0.020 A 
HETATM   18  C   UNL     1     -40.240  53.264 -49.525  1.00  0.00     0.048 C 
ENDBRANCH   9  11
ENDBRANCH   1   5
BRANCH   2  19
HETATM   19  C   UNL     1     -42.298  59.755 -57.715  1.00  0.00     0.080 A 
HETATM   20  C   UNL     1     -42.890  59.353 -58.953  1.00  0.00     0.104 A 
HETATM   21  N   UNL     1     -42.760  60.309 -59.888  1.00  0.00    -0.174 NA
HETATM   22  N   UNL     1     -42.170  61.327 -59.251  1.00  0.00    -0.288 N 
HETATM   23  H   UNL     1     -41.992  62.182 -59.769  1.00  0.00     0.188 HD
HETATM   24  C   UNL     1     -41.878  61.053 -57.955  1.00  0.00     0.128 A 
BRANCH  20  25
HETATM   25  C   UNL     1     -43.575  58.110 -59.296  1.00  0.00    -0.004 A 
HETATM   26  C   UNL     1     -44.975  58.040 -59.282  1.00  0.00     0.017 A 
HETATM   27  C   UNL     1     -45.619  56.841 -59.599  1.00  0.00     0.043 A 
HETATM   28  C   UNL     1     -44.863  55.724 -59.935  1.00  0.00     0.116 A 
HETATM   29  F   UNL     1     -45.484  54.576 -60.237  1.00  0.00    -0.206 F 
HETATM   30  C   UNL     1     -43.475  55.780 -59.965  1.00  0.00     0.043 A 
HETATM   31  C   UNL     1     -42.828  56.976 -59.650  1.00  0.00     0.017 A 
ENDBRANCH  20  25
ENDBRANCH   2  19
TORSDOF 4
ENDMDL
MODEL 8
REMARK VINA RESULT:      -8.5      1.973      2.296
REMARK  4 active torsions:
REMARK  status: ('A' for Active; 'I' for Inactive)
REMARK    1  A    between atoms: C_4  and  C_5 
REMARK    2  A    between atoms: C_9  and  N_10 
REMARK       I    between atoms: N_10  and  C_11 
REMARK    3  A    between atoms: C_11  and  C_12 
REMARK    4  A    between atoms: C_13  and  C_14 
ROOT
HETATM    1  N   UNL     1     -42.604  55.668 -54.141  1.00  0.00    -0.308 N 
HETATM    2  C   UNL     1     -41.308  55.459 -53.702  1.00  0.00     0.261 C 
HETATM    3  O   UNL     1     -40.336  55.442 -54.458  1.00  0.00    -0.267 OA
HETATM    4  H   UNL     1     -43.367  55.725 -53.480  1.00  0.00     0.170 HD
ENDROOT
BRANCH   1   5
HETATM    5  C   UNL     1     -42.895  55.921 -55.468  1.00  0.00     0.126 A 
HETATM    6  N   UNL     1     -42.769  55.008 -56.481  1.00  0.00    -0.262 N 
HETATM    7  N   UNL     1     -43.023  55.514 -57.698  1.00  0.00    -0.173 NA
HETATM    8  H   UNL     1     -42.476  54.039 -56.392  1.00  0.00     0.191 HD
HETATM    9  C   UNL     1     -43.378  56.787 -57.461  1.00  0.00     0.090 A 
HETATM   10  C   UNL     1     -43.326  57.079 -56.069  1.00  0.00     0.084 A 
BRANCH   9  11
HETATM   11  C   UNL     1     -43.713  57.703 -58.545  1.00  0.00    -0.005 A 
HETATM   12  C   UNL     1     -42.706  58.309 -59.308  1.00  0.00     0.020 A 
HETATM   13  C   UNL     1     -43.035  59.173 -60.362  1.00  0.00    -0.061 A 
HETATM   14  C   UNL     1     -41.964  59.871 -61.147  1.00  0.00     0.048 C 
HETATM   15  C   UNL     1     -44.385  59.419 -60.650  1.00  0.00     0.013 A 
HETATM   16  C   UNL     1     -45.402  58.810 -59.907  1.00  0.00    -0.061 A 
HETATM   17  C   UNL     1     -45.057  57.969 -58.841  1.00  0.00     0.020 A 
HETATM   18  C   UNL     1     -46.842  59.097 -60.215  1.00  0.00     0.048 C 
ENDBRANCH   9  11
ENDBRANCH   1   5
BRANCH   2  19
HETATM   19  C   UNL     1     -41.140  55.312 -52.260  1.00  0.00     0.080 A 
HETATM   20  C   UNL     1     -40.769  54.209 -51.428  1.00  0.00     0.104 A 
HETATM   21  N   UNL     1     -40.823  54.541 -50.128  1.00  0.00    -0.174 NA
HETATM   22  N   UNL     1     -41.144  55.840 -50.123  1.00  0.00    -0.288 N 
HETATM   23  H   UNL     1     -41.218  56.315 -49.229  1.00  0.00     0.188 HD
HETATM   24  C   UNL     1     -41.339  56.350 -51.365  1.00  0.00     0.128 A 
BRANCH  20  25
HETATM   25  C   UNL     1     -40.364  52.857 -51.802  1.00  0.00    -0.004 A 
HETATM   26  C   UNL     1     -40.234  52.499 -53.152  1.00  0.00     0.017 A 
HETATM   27  C   UNL     1     -39.859  51.199 -53.497  1.00  0.00     0.043 A 
HETATM   28  C   UNL     1     -39.607  50.267 -52.496  1.00  0.00     0.116 A 
HETATM   29  F   UNL     1     -39.249  49.020 -52.832  1.00  0.00    -0.206 F 
HETATM   30  C   UNL     1     -39.721  50.609 -51.154  1.00  0.00     0.043 A 
HETATM   31  C   UNL     1     -40.095  51.907 -50.805  1.00  0.00     0.017 A 
ENDBRANCH  20  25
ENDBRANCH   2  19
TORSDOF 4
ENDMDL
MODEL 9
REMARK VINA RESULT:      -8.5      3.833      9.489
REMARK  4 active torsions:
REMARK  status: ('A' for Active; 'I' for Inactive)
REMARK    1  A    between atoms: C_4  and  C_5 
REMARK    2  A    between atoms: C_9  and  N_10 
REMARK       I    between atoms: N_10  and  C_11 
REMARK    3  A    between atoms: C_11  and  C_12 
REMARK    4  A    between atoms: C_13  and  C_14 
ROOT
HETATM    1  N   UNL     1     -43.979  56.526 -56.998  1.00  0.00    -0.308 N 
HETATM    2  C   UNL     1     -44.269  57.867 -57.184  1.00  0.00     0.261 C 
HETATM    3  O   UNL     1     -43.767  58.764 -56.507  1.00  0.00    -0.267 OA
HETATM    4  H   UNL     1     -44.375  55.825 -57.609  1.00  0.00     0.170 HD
ENDROOT
BRANCH   1   5
HETATM    5  C   UNL     1     -43.060  56.100 -56.057  1.00  0.00     0.126 A 
HETATM    6  N   UNL     1     -42.055  56.876 -55.544  1.00  0.00    -0.262 N 
HETATM    7  N   UNL     1     -41.233  56.213 -54.714  1.00  0.00    -0.173 NA
HETATM    8  H   UNL     1     -41.869  57.852 -55.760  1.00  0.00     0.191 HD
HETATM    9  C   UNL     1     -41.755  54.978 -54.647  1.00  0.00     0.090 A 
HETATM   10  C   UNL     1     -42.914  54.870 -55.465  1.00  0.00     0.084 A 
BRANCH   9  11
HETATM   11  C   UNL     1     -41.130  53.926 -53.853  1.00  0.00    -0.005 A 
HETATM   12  C   UNL     1     -40.909  54.099 -52.481  1.00  0.00     0.020 A 
HETATM   13  C   UNL     1     -40.325  53.077 -51.720  1.00  0.00    -0.061 A 
HETATM   14  C   UNL     1     -40.032  53.275 -50.262  1.00  0.00     0.048 C 
HETATM   15  C   UNL     1     -39.971  51.874 -52.346  1.00  0.00     0.013 A 
HETATM   16  C   UNL     1     -40.199  51.679 -53.713  1.00  0.00    -0.061 A 
HETATM   17  C   UNL     1     -40.760  52.720 -54.464  1.00  0.00     0.020 A 
HETATM   18  C   UNL     1     -39.797  50.394 -54.373  1.00  0.00     0.048 C 
ENDBRANCH   9  11
ENDBRANCH   1   5
BRANCH   2  19
HETATM   19  C   UNL     1     -45.176  58.175 -58.285  1.00  0.00     0.080 A 
HETATM   20  C   UNL     1     -45.059  59.007 -59.443  1.00  0.00     0.104 A 
HETATM   21  N   UNL     1     -46.206  59.031 -60.142  1.00  0.00    -0.174 NA
HETATM   22  N   UNL     1     -47.013  58.182 -59.497  1.00  0.00    -0.288 N 
HETATM   23  H   UNL     1     -47.944  58.023 -59.871  1.00  0.00     0.188 HD
HETATM   24  C   UNL     1     -46.450  57.640 -58.388  1.00  0.00     0.128 A 
BRANCH  20  25
HETATM   25  C   UNL     1     -43.916  59.777 -59.922  1.00  0.00    -0.004 A 
HETATM   26  C   UNL     1     -43.787  61.137 -59.604  1.00  0.00     0.017 A 
HETATM   27  C   UNL     1     -42.695  61.867 -60.080  1.00  0.00     0.043 A 
HETATM   28  C   UNL     1     -41.735  61.235 -60.862  1.00  0.00     0.116 A 
HETATM   29  F   UNL     1     -40.690  61.938 -61.317  1.00  0.00    -0.206 F 
HETATM   30  C   UNL     1     -41.841  59.885 -61.177  1.00  0.00     0.043 A 
HETATM   31  C   UNL     1     -42.930  59.153 -60.702  1.00  0.00     0.017 A 
ENDBRANCH  20  25
ENDBRANCH   2  19
TORSDOF 4
ENDMDL
MODEL 10
REMARK VINA RESULT:      -8.3      1.947      2.116
REMARK  4 active torsions:
REMARK  status: ('A' for Active; 'I' for Inactive)
REMARK    1  A    between atoms: C_4  and  C_5 
REMARK    2  A    between atoms: C_9  and  N_10 
REMARK       I    between atoms: N_10  and  C_11 
REMARK    3  A    between atoms: C_11  and  C_12 
REMARK    4  A    between atoms: C_13  and  C_14 
ROOT
HETATM    1  N   UNL     1     -42.674  56.202 -53.637  1.00  0.00    -0.308 N 
HETATM    2  C   UNL     1     -41.384  56.272 -53.140  1.00  0.00     0.261 C 
HETATM    3  O   UNL     1     -40.462  56.825 -53.739  1.00  0.00    -0.267 OA
HETATM    4  H   UNL     1     -43.414  55.782 -53.090  1.00  0.00     0.170 HD
ENDROOT
BRANCH   1   5
HETATM    5  C   UNL     1     -43.031  56.793 -54.835  1.00  0.00     0.126 A 
HETATM    6  N   UNL     1     -42.728  58.082 -55.186  1.00  0.00    -0.262 N 
HETATM    7  N   UNL     1     -43.261  58.460 -56.360  1.00  0.00    -0.173 NA
HETATM    8  H   UNL     1     -42.193  58.752 -54.639  1.00  0.00     0.191 HD
HETATM    9  C   UNL     1     -43.887  57.360 -56.809  1.00  0.00     0.090 A 
HETATM   10  C   UNL     1     -43.752  56.285 -55.887  1.00  0.00     0.084 A 
BRANCH   9  11
HETATM   11  C   UNL     1     -44.627  57.361 -58.066  1.00  0.00    -0.005 A 
HETATM   12  C   UNL     1     -45.476  58.425 -58.397  1.00  0.00     0.020 A 
HETATM   13  C   UNL     1     -46.169  58.429 -59.615  1.00  0.00    -0.061 A 
HETATM   14  C   UNL     1     -47.124  59.535 -59.953  1.00  0.00     0.048 C 
HETATM   15  C   UNL     1     -45.998  57.359 -60.505  1.00  0.00     0.013 A 
HETATM   16  C   UNL     1     -45.141  56.296 -60.195  1.00  0.00    -0.061 A 
HETATM   17  C   UNL     1     -44.476  56.295 -58.963  1.00  0.00     0.020 A 
HETATM   18  C   UNL     1     -44.983  55.149 -61.148  1.00  0.00     0.048 C 
ENDBRANCH   9  11
ENDBRANCH   1   5
BRANCH   2  19
HETATM   19  C   UNL     1     -41.180  55.696 -51.816  1.00  0.00     0.080 A 
HETATM   20  C   UNL     1     -40.801  54.391 -51.367  1.00  0.00     0.104 A 
HETATM   21  N   UNL     1     -40.816  54.316 -50.025  1.00  0.00    -0.174 NA
HETATM   22  N   UNL     1     -41.121  55.553 -49.620  1.00  0.00    -0.288 N 
HETATM   23  H   UNL     1     -41.166  55.736 -48.621  1.00  0.00     0.188 HD
HETATM   24  C   UNL     1     -41.343  56.415 -50.643  1.00  0.00     0.128 A 
BRANCH  20  25
HETATM   25  C   UNL     1     -40.422  53.215 -52.143  1.00  0.00    -0.004 A 
HETATM   26  C   UNL     1     -40.682  53.154 -53.520  1.00  0.00     0.017 A 
HETATM   27  C   UNL     1     -40.327  52.017 -54.249  1.00  0.00     0.043 A 
HETATM   28  C   UNL     1     -39.708  50.953 -53.604  1.00  0.00     0.116 A 
HETATM   29  F   UNL     1     -39.370  49.864 -54.307  1.00  0.00    -0.206 F 
HETATM   30  C   UNL     1     -39.433  51.001 -52.243  1.00  0.00     0.043 A 
HETATM   31  C   UNL     1     -39.785  52.136 -51.511  1.00  0.00     0.017 A 
ENDBRANCH  20  25
ENDBRANCH   2  19
TORSDOF 4
ENDMDL
