MODEL 1
REMARK VINA RESULT:      -7.8      0.000      0.000
REMARK  6 active torsions:
REMARK  status: ('A' for Active; 'I' for Inactive)
REMARK    1  A    between atoms: C_5  and  N_6 
REMARK    2  A    between atoms: N_6  and  C_7 
REMARK    3  A    between atoms: C_7  and  C_8 
REMARK    4  A    between atoms: N_10  and  C_12 
REMARK    5  A    between atoms: C_12  and  C_13 
REMARK    6  A    between atoms: C_14  and  O_15 
ROOT
HETATM    1  C   UNL     1     -42.396  56.753 -55.613  1.00  0.00     0.031 C 
HETATM    2  C   UNL     1     -41.767  55.370 -55.526  1.00  0.00     0.241 C 
HETATM    3  N   UNL     1     -42.155  54.894 -54.145  1.00  0.00    -0.067 N 
HETATM    4  H   UNL     1     -42.349  53.877 -54.194  1.00  0.00     0.280 HD
HETATM    5  C   UNL     1     -43.412  55.630 -53.741  1.00  0.00     0.235 C 
HETATM    6  C   UNL     1     -43.743  56.516 -54.938  1.00  0.00     0.035 C 
ENDROOT
BRANCH   1   7
HETATM    7  C   UNL     1     -42.514  57.304 -57.039  1.00  0.00     0.127 C 
BRANCH   7   8
HETATM    8  N   UNL     1     -42.694  56.209 -57.984  1.00  0.00    -0.376 N 
HETATM    9  H   UNL     1     -41.868  56.017 -58.560  1.00  0.00     0.161 HD
BRANCH   8  10
HETATM   10  C   UNL     1     -43.834  56.093 -58.787  1.00  0.00     0.101 A 
HETATM   11  N   UNL     1     -44.865  56.952 -58.727  1.00  0.00    -0.347 N 
HETATM   12  C   UNL     1     -45.968  56.851 -59.497  1.00  0.00     0.007 A 
HETATM   13  H   UNL     1     -44.808  57.734 -58.085  1.00  0.00     0.167 HD
HETATM   14  C   UNL     1     -47.032  57.895 -59.384  1.00  0.00     0.068 C 
HETATM   15  C   UNL     1     -46.083  55.786 -60.389  1.00  0.00     0.025 A 
HETATM   16  C   UNL     1     -45.058  54.854 -60.470  1.00  0.00     0.006 A 
HETATM   17  C   UNL     1     -43.932  55.009 -59.670  1.00  0.00     0.048 A 
ENDBRANCH   8  10
ENDBRANCH   7   8
ENDBRANCH   1   7
BRANCH   3  18
HETATM   18  C   UNL     1     -41.059  54.979 -53.105  1.00  0.00     0.276 C 
BRANCH  18  19
HETATM   19  C   UNL     1     -40.575  53.636 -52.634  1.00  0.00     0.002 A 
HETATM   20  C   UNL     1     -40.331  53.386 -51.278  1.00  0.00     0.073 A 
HETATM   21  C   UNL     1     -39.859  52.150 -50.840  1.00  0.00     0.038 A 
HETATM   22  C   UNL     1     -39.628  51.135 -51.769  1.00  0.00     0.022 A 
HETATM   23  C   UNL     1     -39.863  51.368 -53.122  1.00  0.00     0.011 A 
HETATM   24 BR   UNL     1     -39.569  49.990 -54.380  1.00  0.00    -0.051 Br
HETATM   25  C   UNL     1     -40.326  52.611 -53.560  1.00  0.00     0.030 A 
BRANCH  20  26
HETATM   26  O   UNL     1     -40.593  54.387 -50.380  1.00  0.00    -0.360 OA
HETATM   27  H   UNL     1     -41.539  54.626 -50.471  1.00  0.00     0.217 HD
ENDBRANCH  20  26
ENDBRANCH  18  19
ENDBRANCH   3  18
TORSDOF 6
ENDMDL
MODEL 2
REMARK VINA RESULT:      -7.6      1.363      2.105
REMARK  6 active torsions:
REMARK  status: ('A' for Active; 'I' for Inactive)
REMARK    1  A    between atoms: C_5  and  N_6 
REMARK    2  A    between atoms: N_6  and  C_7 
REMARK    3  A    between atoms: C_7  and  C_8 
REMARK    4  A    between atoms: N_10  and  C_12 
REMARK    5  A    between atoms: C_12  and  C_13 
REMARK    6  A    between atoms: C_14  and  O_15 
ROOT
HETATM    1  C   UNL     1     -43.691  57.085 -54.522  1.00  0.00     0.031 C 
HETATM    2  C   UNL     1     -43.408  55.592 -54.608  1.00  0.00     0.241 C 
HETATM    3  N   UNL     1     -42.678  55.299 -53.318  1.00  0.00    -0.067 N 
HETATM    4  H   UNL     1     -42.976  54.365 -52.980  1.00  0.00     0.280 HD
HETATM    5  C   UNL     1     -43.079  56.353 -52.312  1.00  0.00     0.235 C 
HETATM    6  C   UNL     1     -44.076  57.237 -53.054  1.00  0.00     0.035 C 
ENDROOT
BRANCH   1   7
HETATM    7  C   UNL     1     -44.770  57.580 -55.493  1.00  0.00     0.127 C 
BRANCH   7   8
HETATM    8  N   UNL     1     -44.151  58.262 -56.622  1.00  0.00    -0.376 N 
HETATM    9  H   UNL     1     -44.666  59.089 -56.942  1.00  0.00     0.161 HD
BRANCH   8  10
HETATM   10  C   UNL     1     -43.676  57.573 -57.743  1.00  0.00     0.101 A 
HETATM   11  N   UNL     1     -44.194  56.407 -58.164  1.00  0.00    -0.347 N 
HETATM   12  C   UNL     1     -43.745  55.736 -59.245  1.00  0.00     0.007 A 
HETATM   13  H   UNL     1     -44.981  56.017 -57.660  1.00  0.00     0.167 HD
HETATM   14  C   UNL     1     -44.433  54.473 -59.654  1.00  0.00     0.068 C 
HETATM   15  C   UNL     1     -42.662  56.242 -59.962  1.00  0.00     0.025 A 
HETATM   16  C   UNL     1     -42.071  57.428 -59.552  1.00  0.00     0.006 A 
HETATM   17  C   UNL     1     -42.580  58.096 -58.444  1.00  0.00     0.048 A 
ENDBRANCH   8  10
ENDBRANCH   7   8
ENDBRANCH   1   7
BRANCH   3  18
HETATM   18  C   UNL     1     -41.178  55.146 -53.450  1.00  0.00     0.276 C 
BRANCH  18  19
HETATM   19  C   UNL     1     -40.658  53.846 -52.903  1.00  0.00     0.002 A 
HETATM   20  C   UNL     1     -40.359  53.699 -51.543  1.00  0.00     0.073 A 
HETATM   21  C   UNL     1     -39.854  52.503 -51.035  1.00  0.00     0.038 A 
HETATM   22  C   UNL     1     -39.645  51.425 -51.897  1.00  0.00     0.022 A 
HETATM   23  C   UNL     1     -39.935  51.557 -53.253  1.00  0.00     0.011 A 
HETATM   24 BR   UNL     1     -39.670  50.094 -54.419  1.00  0.00    -0.051 Br
HETATM   25  C   UNL     1     -40.431  52.759 -53.761  1.00  0.00     0.030 A 
BRANCH  20  26
HETATM   26  O   UNL     1     -40.599  54.759 -50.710  1.00  0.00    -0.360 OA
HETATM   27  H   UNL     1     -41.239  55.350 -51.160  1.00  0.00     0.217 HD
ENDBRANCH  20  26
ENDBRANCH  18  19
ENDBRANCH   3  18
TORSDOF 6
ENDMDL
MODEL 3
REMARK VINA RESULT:      -7.6      3.682      7.957
REMARK  6 active torsions:
REMARK  status: ('A' for Active; 'I' for Inactive)
REMARK    1  A    between atoms: C_5  and  N_6 
REMARK    2  A    between atoms: N_6  and  C_7 
REMARK    3  A    between atoms: C_7  and  C_8 
REMARK    4  A    between atoms: N_10  and  C_12 
REMARK    5  A    between atoms: C_12  and  C_13 
REMARK    6  A    between atoms: C_14  and  O_15 
ROOT
HETATM    1  C   UNL     1     -41.711  55.836 -52.411  1.00  0.00     0.031 C 
HETATM    2  C   UNL     1     -41.196  56.456 -53.702  1.00  0.00     0.241 C 
HETATM    3  N   UNL     1     -41.773  57.852 -53.675  1.00  0.00    -0.067 N 
HETATM    4  H   UNL     1     -41.070  58.503 -54.075  1.00  0.00     0.280 HD
HETATM    5  C   UNL     1     -42.032  58.215 -52.231  1.00  0.00     0.235 C 
HETATM    6  C   UNL     1     -41.564  57.000 -51.436  1.00  0.00     0.035 C 
ENDROOT
BRANCH   1   7
HETATM    7  C   UNL     1     -40.960  54.573 -51.975  1.00  0.00     0.127 C 
BRANCH   7   8
HETATM    8  N   UNL     1     -40.418  53.886 -53.141  1.00  0.00    -0.376 N 
HETATM    9  H   UNL     1     -40.863  54.153 -54.025  1.00  0.00     0.161 HD
BRANCH   8  10
HETATM   10  C   UNL     1     -40.187  52.507 -53.157  1.00  0.00     0.101 A 
HETATM   11  N   UNL     1     -39.895  51.797 -52.054  1.00  0.00    -0.347 N 
HETATM   12  C   UNL     1     -39.672  50.466 -52.057  1.00  0.00     0.007 A 
HETATM   13  H   UNL     1     -39.860  52.279 -51.163  1.00  0.00     0.167 HD
HETATM   14  C   UNL     1     -39.408  49.770 -50.761  1.00  0.00     0.068 C 
HETATM   15  C   UNL     1     -39.708  49.771 -53.265  1.00  0.00     0.025 A 
HETATM   16  C   UNL     1     -39.977  50.462 -54.438  1.00  0.00     0.006 A 
HETATM   17  C   UNL     1     -40.219  51.829 -54.384  1.00  0.00     0.048 A 
ENDBRANCH   8  10
ENDBRANCH   7   8
ENDBRANCH   1   7
BRANCH   3  18
HETATM   18  C   UNL     1     -42.977  58.068 -54.566  1.00  0.00     0.276 C 
BRANCH  18  19
HETATM   19  C   UNL     1     -42.625  58.241 -56.017  1.00  0.00     0.002 A 
HETATM   20  C   UNL     1     -42.047  59.427 -56.487  1.00  0.00     0.073 A 
HETATM   21  C   UNL     1     -41.741  59.601 -57.836  1.00  0.00     0.038 A 
HETATM   22  C   UNL     1     -42.012  58.572 -58.739  1.00  0.00     0.022 A 
HETATM   23  C   UNL     1     -42.590  57.388 -58.288  1.00  0.00     0.011 A 
HETATM   24 BR   UNL     1     -42.941  55.987 -59.506  1.00  0.00    -0.051 Br
HETATM   25  C   UNL     1     -42.905  57.220 -56.938  1.00  0.00     0.030 A 
BRANCH  20  26
HETATM   26  O   UNL     1     -41.762  60.411 -55.579  1.00  0.00    -0.360 OA
HETATM   27  H   UNL     1     -42.306  60.244 -54.781  1.00  0.00     0.217 HD
ENDBRANCH  20  26
ENDBRANCH  18  19
ENDBRANCH   3  18
TORSDOF 6
ENDMDL
MODEL 4
REMARK VINA RESULT:      -7.4      1.801      2.302
REMARK  6 active torsions:
REMARK  status: ('A' for Active; 'I' for Inactive)
REMARK    1  A    between atoms: C_5  and  N_6 
REMARK    2  A    between atoms: N_6  and  C_7 
REMARK    3  A    between atoms: C_7  and  C_8 
REMARK    4  A    between atoms: N_10  and  C_12 
REMARK    5  A    between atoms: C_12  and  C_13 
REMARK    6  A    between atoms: C_14  and  O_15 
ROOT
HETATM    1  C   UNL     1     -43.699  57.152 -54.451  1.00  0.00     0.031 C 
HETATM    2  C   UNL     1     -43.318  55.680 -54.526  1.00  0.00     0.241 C 
HETATM    3  N   UNL     1     -42.721  55.403 -53.166  1.00  0.00    -0.067 N 
HETATM    4  H   UNL     1     -42.998  54.446 -52.877  1.00  0.00     0.280 HD
HETATM    5  C   UNL     1     -43.297  56.410 -52.196  1.00  0.00     0.235 C 
HETATM    6  C   UNL     1     -44.256  57.249 -53.034  1.00  0.00     0.035 C 
ENDROOT
BRANCH   1   7
HETATM    7  C   UNL     1     -44.689  57.602 -55.531  1.00  0.00     0.127 C 
BRANCH   7   8
HETATM    8  N   UNL     1     -43.974  57.939 -56.756  1.00  0.00    -0.376 N 
HETATM    9  H   UNL     1     -44.008  58.935 -56.997  1.00  0.00     0.161 HD
BRANCH   8  10
HETATM   10  C   UNL     1     -44.108  57.192 -57.931  1.00  0.00     0.101 A 
HETATM   11  N   UNL     1     -45.284  57.011 -58.556  1.00  0.00    -0.347 N 
HETATM   12  C   UNL     1     -45.425  56.295 -59.691  1.00  0.00     0.007 A 
HETATM   13  H   UNL     1     -46.110  57.453 -58.172  1.00  0.00     0.167 HD
HETATM   14  C   UNL     1     -46.773  56.204 -60.330  1.00  0.00     0.068 C 
HETATM   15  C   UNL     1     -44.310  55.669 -60.247  1.00  0.00     0.025 A 
HETATM   16  C   UNL     1     -43.077  55.801 -59.624  1.00  0.00     0.006 A 
HETATM   17  C   UNL     1     -42.976  56.564 -58.467  1.00  0.00     0.048 A 
ENDBRANCH   8  10
ENDBRANCH   7   8
ENDBRANCH   1   7
BRANCH   3  18
HETATM   18  C   UNL     1     -41.210  55.342 -53.127  1.00  0.00     0.276 C 
BRANCH  18  19
HETATM   19  C   UNL     1     -40.663  53.946 -53.237  1.00  0.00     0.002 A 
HETATM   20  C   UNL     1     -40.251  53.423 -54.469  1.00  0.00     0.073 A 
HETATM   21  C   UNL     1     -39.766  52.120 -54.579  1.00  0.00     0.038 A 
HETATM   22  C   UNL     1     -39.685  51.319 -53.439  1.00  0.00     0.022 A 
HETATM   23  C   UNL     1     -40.094  51.824 -52.207  1.00  0.00     0.011 A 
HETATM   24 BR   UNL     1     -39.969  50.747 -50.660  1.00  0.00    -0.051 Br
HETATM   25  C   UNL     1     -40.589  53.125 -52.101  1.00  0.00     0.030 A 
BRANCH  20  26
HETATM   26  O   UNL     1     -40.311  54.236 -55.569  1.00  0.00    -0.360 OA
HETATM   27  H   UNL     1     -40.494  55.146 -55.254  1.00  0.00     0.217 HD
ENDBRANCH  20  26
ENDBRANCH  18  19
ENDBRANCH   3  18
TORSDOF 6
ENDMDL
MODEL 5
REMARK VINA RESULT:      -7.4      3.855      8.423
REMARK  6 active torsions:
REMARK  status: ('A' for Active; 'I' for Inactive)
REMARK    1  A    between atoms: C_5  and  N_6 
REMARK    2  A    between atoms: N_6  and  C_7 
REMARK    3  A    between atoms: C_7  and  C_8 
REMARK    4  A    between atoms: N_10  and  C_12 
REMARK    5  A    between atoms: C_12  and  C_13 
REMARK    6  A    between atoms: C_14  and  O_15 
ROOT
HETATM    1  C   UNL     1     -42.590  55.001 -53.770  1.00  0.00     0.031 C 
HETATM    2  C   UNL     1     -41.662  55.759 -54.709  1.00  0.00     0.241 C 
HETATM    3  N   UNL     1     -42.608  56.604 -55.530  1.00  0.00    -0.067 N 
HETATM    4  H   UNL     1     -42.156  57.520 -55.708  1.00  0.00     0.280 HD
HETATM    5  C   UNL     1     -43.865  56.810 -54.716  1.00  0.00     0.235 C 
HETATM    6  C   UNL     1     -43.599  56.084 -53.401  1.00  0.00     0.035 C 
ENDROOT
BRANCH   1   7
HETATM    7  C   UNL     1     -41.888  54.379 -52.557  1.00  0.00     0.127 C 
BRANCH   7   8
HETATM    8  N   UNL     1     -40.569  53.890 -52.939  1.00  0.00    -0.376 N 
HETATM    9  H   UNL     1     -40.167  54.368 -53.752  1.00  0.00     0.161 HD
BRANCH   8  10
HETATM   10  C   UNL     1     -40.276  52.526 -53.036  1.00  0.00     0.101 A 
HETATM   11  N   UNL     1     -39.904  51.777 -51.984  1.00  0.00    -0.347 N 
HETATM   12  C   UNL     1     -39.621  50.460 -52.066  1.00  0.00     0.007 A 
HETATM   13  H   UNL     1     -39.854  52.214 -51.073  1.00  0.00     0.167 HD
HETATM   14  C   UNL     1     -39.270  49.714 -50.820  1.00  0.00     0.068 C 
HETATM   15  C   UNL     1     -39.677  49.825 -53.306  1.00  0.00     0.025 A 
HETATM   16  C   UNL     1     -40.028  50.560 -54.430  1.00  0.00     0.006 A 
HETATM   17  C   UNL     1     -40.330  51.910 -54.295  1.00  0.00     0.048 A 
ENDBRANCH   8  10
ENDBRANCH   7   8
ENDBRANCH   1   7
BRANCH   3  18
HETATM   18  C   UNL     1     -42.884  56.088 -56.925  1.00  0.00     0.276 C 
BRANCH  18  19
HETATM   19  C   UNL     1     -42.620  57.103 -58.002  1.00  0.00     0.002 A 
HETATM   20  C   UNL     1     -42.709  56.763 -59.358  1.00  0.00     0.073 A 
HETATM   21  C   UNL     1     -42.442  57.694 -60.360  1.00  0.00     0.038 A 
HETATM   22  C   UNL     1     -42.082  58.996 -60.008  1.00  0.00     0.022 A 
HETATM   23  C   UNL     1     -41.986  59.349 -58.664  1.00  0.00     0.011 A 
HETATM   24 BR   UNL     1     -41.516  61.115 -58.186  1.00  0.00    -0.051 Br
HETATM   25  C   UNL     1     -42.244  58.412 -57.663  1.00  0.00     0.030 A 
BRANCH  20  26
HETATM   26  O   UNL     1     -43.093  55.488 -59.680  1.00  0.00    -0.360 OA
HETATM   27  H   UNL     1     -42.623  55.237 -60.503  1.00  0.00     0.217 HD
ENDBRANCH  20  26
ENDBRANCH  18  19
ENDBRANCH   3  18
TORSDOF 6
ENDMDL
MODEL 6
REMARK VINA RESULT:      -7.3      4.131      8.826
REMARK  6 active torsions:
REMARK  status: ('A' for Active; 'I' for Inactive)
REMARK    1  A    between atoms: C_5  and  N_6 
REMARK    2  A    between atoms: N_6  and  C_7 
REMARK    3  A    between atoms: C_7  and  C_8 
REMARK    4  A    between atoms: N_10  and  C_12 
REMARK    5  A    between atoms: C_12  and  C_13 
REMARK    6  A    between atoms: C_14  and  O_15 
ROOT
HETATM    1  C   UNL     1     -43.187  55.500 -55.266  1.00  0.00     0.031 C 
HETATM    2  C   UNL     1     -42.522  55.139 -56.586  1.00  0.00     0.241 C 
HETATM    3  N   UNL     1     -42.443  56.461 -57.312  1.00  0.00    -0.067 N 
HETATM    4  H   UNL     1     -41.551  56.490 -57.841  1.00  0.00     0.280 HD
HETATM    5  C   UNL     1     -42.449  57.558 -56.272  1.00  0.00     0.235 C 
HETATM    6  C   UNL     1     -42.507  56.824 -54.936  1.00  0.00     0.035 C 
ENDROOT
BRANCH   1   7
HETATM    7  C   UNL     1     -43.029  54.440 -54.170  1.00  0.00     0.127 C 
BRANCH   7   8
HETATM    8  N   UNL     1     -41.741  54.596 -53.505  1.00  0.00    -0.376 N 
HETATM    9  H   UNL     1     -41.128  55.291 -53.945  1.00  0.00     0.161 HD
BRANCH   8  10
HETATM   10  C   UNL     1     -40.964  53.502 -53.112  1.00  0.00     0.101 A 
HETATM   11  N   UNL     1     -40.777  52.417 -53.883  1.00  0.00    -0.347 N 
HETATM   12  C   UNL     1     -40.028  51.358 -53.515  1.00  0.00     0.007 A 
HETATM   13  H   UNL     1     -41.201  52.399 -54.803  1.00  0.00     0.167 HD
HETATM   14  C   UNL     1     -39.845  50.227 -54.476  1.00  0.00     0.068 C 
HETATM   15  C   UNL     1     -39.432  51.347 -52.255  1.00  0.00     0.025 A 
HETATM   16  C   UNL     1     -39.617  52.430 -51.407  1.00  0.00     0.006 A 
HETATM   17  C   UNL     1     -40.381  53.509 -51.837  1.00  0.00     0.048 A 
ENDBRANCH   8  10
ENDBRANCH   7   8
ENDBRANCH   1   7
BRANCH   3  18
HETATM   18  C   UNL     1     -43.481  56.665 -58.393  1.00  0.00     0.276 C 
BRANCH  18  19
HETATM   19  C   UNL     1     -43.189  57.833 -59.293  1.00  0.00     0.002 A 
HETATM   20  C   UNL     1     -42.107  57.811 -60.183  1.00  0.00     0.073 A 
HETATM   21  C   UNL     1     -41.818  58.901 -61.002  1.00  0.00     0.038 A 
HETATM   22  C   UNL     1     -42.624  60.039 -60.940  1.00  0.00     0.022 A 
HETATM   23  C   UNL     1     -43.701  60.078 -60.058  1.00  0.00     0.011 A 
HETATM   24 BR   UNL     1     -44.804  61.610 -59.985  1.00  0.00    -0.051 Br
HETATM   25  C   UNL     1     -43.983  58.989 -59.231  1.00  0.00     0.030 A 
BRANCH  20  26
HETATM   26  O   UNL     1     -41.348  56.673 -60.249  1.00  0.00    -0.360 OA
HETATM   27  H   UNL     1     -41.882  55.987 -60.700  1.00  0.00     0.217 HD
ENDBRANCH  20  26
ENDBRANCH  18  19
ENDBRANCH   3  18
TORSDOF 6
ENDMDL
MODEL 7
REMARK VINA RESULT:      -7.3      3.782      8.664
REMARK  6 active torsions:
REMARK  status: ('A' for Active; 'I' for Inactive)
REMARK    1  A    between atoms: C_5  and  N_6 
REMARK    2  A    between atoms: N_6  and  C_7 
REMARK    3  A    between atoms: C_7  and  C_8 
REMARK    4  A    between atoms: N_10  and  C_12 
REMARK    5  A    between atoms: C_12  and  C_13 
REMARK    6  A    between atoms: C_14  and  O_15 
ROOT
HETATM    1  C   UNL     1     -42.237  55.237 -54.173  1.00  0.00     0.031 C 
HETATM    2  C   UNL     1     -43.674  55.737 -54.181  1.00  0.00     0.241 C 
HETATM    3  N   UNL     1     -43.872  56.214 -55.601  1.00  0.00    -0.067 N 
HETATM    4  H   UNL     1     -44.842  55.985 -55.889  1.00  0.00     0.280 HD
HETATM    5  C   UNL     1     -42.894  55.466 -56.478  1.00  0.00     0.235 C 
HETATM    6  C   UNL     1     -42.153  54.534 -55.524  1.00  0.00     0.035 C 
ENDROOT
BRANCH   1   7
HETATM    7  C   UNL     1     -41.892  54.329 -52.987  1.00  0.00     0.127 C 
BRANCH   7   8
HETATM    8  N   UNL     1     -40.537  53.811 -53.132  1.00  0.00    -0.376 N 
HETATM    9  H   UNL     1     -39.998  54.259 -53.880  1.00  0.00     0.161 HD
BRANCH   8  10
HETATM   10  C   UNL     1     -40.256  52.441 -53.141  1.00  0.00     0.101 A 
HETATM   11  N   UNL     1     -39.924  51.751 -52.036  1.00  0.00    -0.347 N 
HETATM   12  C   UNL     1     -39.653  50.430 -52.033  1.00  0.00     0.007 A 
HETATM   13  H   UNL     1     -39.897  52.241 -51.150  1.00  0.00     0.167 HD
HETATM   14  C   UNL     1     -39.348  49.754 -50.734  1.00  0.00     0.068 C 
HETATM   15  C   UNL     1     -39.678  49.724 -53.235  1.00  0.00     0.025 A 
HETATM   16  C   UNL     1     -39.986  50.395 -54.409  1.00  0.00     0.006 A 
HETATM   17  C   UNL     1     -40.278  51.753 -54.362  1.00  0.00     0.048 A 
ENDBRANCH   8  10
ENDBRANCH   7   8
ENDBRANCH   1   7
BRANCH   3  18
HETATM   18  C   UNL     1     -43.811  57.714 -55.790  1.00  0.00     0.276 C 
BRANCH  18  19
HETATM   19  C   UNL     1     -44.446  58.183 -57.069  1.00  0.00     0.002 A 
HETATM   20  C   UNL     1     -45.830  58.102 -57.264  1.00  0.00     0.073 A 
HETATM   21  C   UNL     1     -46.421  58.514 -58.458  1.00  0.00     0.038 A 
HETATM   22  C   UNL     1     -45.619  59.022 -59.481  1.00  0.00     0.022 A 
HETATM   23  C   UNL     1     -44.240  59.106 -59.303  1.00  0.00     0.011 A 
HETATM   24 BR   UNL     1     -43.155  59.810 -60.680  1.00  0.00    -0.051 Br
HETATM   25  C   UNL     1     -43.650  58.683 -58.111  1.00  0.00     0.030 A 
BRANCH  20  26
HETATM   26  O   UNL     1     -46.601  57.629 -56.236  1.00  0.00    -0.360 OA
HETATM   27  H   UNL     1     -47.219  56.966 -56.610  1.00  0.00     0.217 HD
ENDBRANCH  20  26
ENDBRANCH  18  19
ENDBRANCH   3  18
TORSDOF 6
ENDMDL
MODEL 8
REMARK VINA RESULT:      -7.3      5.983      8.886
REMARK  6 active torsions:
REMARK  status: ('A' for Active; 'I' for Inactive)
REMARK    1  A    between atoms: C_5  and  N_6 
REMARK    2  A    between atoms: N_6  and  C_7 
REMARK    3  A    between atoms: C_7  and  C_8 
REMARK    4  A    between atoms: N_10  and  C_12 
REMARK    5  A    between atoms: C_12  and  C_13 
REMARK    6  A    between atoms: C_14  and  O_15 
ROOT
HETATM    1  C   UNL     1     -42.438  56.353 -52.353  1.00  0.00     0.031 C 
HETATM    2  C   UNL     1     -42.231  57.568 -51.460  1.00  0.00     0.241 C 
HETATM    3  N   UNL     1     -43.594  57.787 -50.845  1.00  0.00    -0.067 N 
HETATM    4  H   UNL     1     -43.463  58.098 -49.865  1.00  0.00     0.280 HD
HETATM    5  C   UNL     1     -44.324  56.463 -50.862  1.00  0.00     0.235 C 
HETATM    6  C   UNL     1     -43.332  55.481 -51.478  1.00  0.00     0.035 C 
ENDROOT
BRANCH   1   7
HETATM    7  C   UNL     1     -41.140  55.660 -52.784  1.00  0.00     0.127 C 
BRANCH   7   8
HETATM    8  N   UNL     1     -40.853  54.539 -51.898  1.00  0.00    -0.376 N 
HETATM    9  H   UNL     1     -40.244  54.779 -51.108  1.00  0.00     0.161 HD
BRANCH   8  10
HETATM   10  C   UNL     1     -40.481  53.280 -52.379  1.00  0.00     0.101 A 
HETATM   11  N   UNL     1     -40.087  52.274 -51.579  1.00  0.00    -0.347 N 
HETATM   12  C   UNL     1     -39.728  51.055 -52.032  1.00  0.00     0.007 A 
HETATM   13  H   UNL     1     -40.079  52.427 -50.578  1.00  0.00     0.167 HD
HETATM   14  C   UNL     1     -39.358  49.994 -51.046  1.00  0.00     0.068 C 
HETATM   15  C   UNL     1     -39.725  50.810 -53.404  1.00  0.00     0.025 A 
HETATM   16  C   UNL     1     -40.095  51.824 -54.276  1.00  0.00     0.006 A 
HETATM   17  C   UNL     1     -40.476  53.058 -53.763  1.00  0.00     0.048 A 
ENDBRANCH   8  10
ENDBRANCH   7   8
ENDBRANCH   1   7
BRANCH   3  18
HETATM   18  C   UNL     1     -44.400  58.915 -51.452  1.00  0.00     0.276 C 
BRANCH  18  19
HETATM   19  C   UNL     1     -44.511  60.119 -50.558  1.00  0.00     0.002 A 
HETATM   20  C   UNL     1     -45.354  60.117 -49.440  1.00  0.00     0.073 A 
HETATM   21  C   UNL     1     -45.479  61.239 -48.622  1.00  0.00     0.038 A 
HETATM   22  C   UNL     1     -44.747  62.389 -48.919  1.00  0.00     0.022 A 
HETATM   23  C   UNL     1     -43.906  62.408 -50.030  1.00  0.00     0.011 A 
HETATM   24 BR   UNL     1     -42.901  63.958 -50.424  1.00  0.00    -0.051 Br
HETATM   25  C   UNL     1     -43.791  61.286 -50.853  1.00  0.00     0.030 A 
BRANCH  20  26
HETATM   26  O   UNL     1     -46.040  58.967 -49.150  1.00  0.00    -0.360 OA
HETATM   27  H   UNL     1     -46.907  59.018 -49.604  1.00  0.00     0.217 HD
ENDBRANCH  20  26
ENDBRANCH  18  19
ENDBRANCH   3  18
TORSDOF 6
ENDMDL
MODEL 9
REMARK VINA RESULT:      -7.1      3.299      7.905
REMARK  6 active torsions:
REMARK  status: ('A' for Active; 'I' for Inactive)
REMARK    1  A    between atoms: C_5  and  N_6 
REMARK    2  A    between atoms: N_6  and  C_7 
REMARK    3  A    between atoms: C_7  and  C_8 
REMARK    4  A    between atoms: N_10  and  C_12 
REMARK    5  A    between atoms: C_12  and  C_13 
REMARK    6  A    between atoms: C_14  and  O_15 
ROOT
HETATM    1  C   UNL     1     -43.199  56.252 -53.655  1.00  0.00     0.031 C 
HETATM    2  C   UNL     1     -42.433  56.447 -54.956  1.00  0.00     0.241 C 
HETATM    3  N   UNL     1     -42.443  57.946 -55.147  1.00  0.00    -0.067 N 
HETATM    4  H   UNL     1     -41.531  58.229 -55.553  1.00  0.00     0.280 HD
HETATM    5  C   UNL     1     -42.610  58.583 -53.787  1.00  0.00     0.235 C 
HETATM    6  C   UNL     1     -42.669  57.409 -52.814  1.00  0.00     0.035 C 
ENDROOT
BRANCH   1   7
HETATM    7  C   UNL     1     -42.998  54.879 -53.005  1.00  0.00     0.127 C 
BRANCH   7   8
HETATM    8  N   UNL     1     -42.234  54.012 -53.893  1.00  0.00    -0.376 N 
HETATM    9  H   UNL     1     -42.804  53.531 -54.597  1.00  0.00     0.161 HD
BRANCH   8  10
HETATM   10  C   UNL     1     -41.266  53.120 -53.420  1.00  0.00     0.101 A 
HETATM   11  N   UNL     1     -40.897  52.013 -54.087  1.00  0.00    -0.347 N 
HETATM   12  C   UNL     1     -39.964  51.147 -53.640  1.00  0.00     0.007 A 
HETATM   13  H   UNL     1     -41.324  51.826 -54.986  1.00  0.00     0.167 HD
HETATM   14  C   UNL     1     -39.593  49.976 -54.493  1.00  0.00     0.068 C 
HETATM   15  C   UNL     1     -39.359  51.371 -52.405  1.00  0.00     0.025 A 
HETATM   16  C   UNL     1     -39.725  52.484 -51.662  1.00  0.00     0.006 A 
HETATM   17  C   UNL     1     -40.678  53.360 -52.170  1.00  0.00     0.048 A 
ENDBRANCH   8  10
ENDBRANCH   7   8
ENDBRANCH   1   7
BRANCH   3  18
HETATM   18  C   UNL     1     -43.438  58.457 -56.167  1.00  0.00     0.276 C 
BRANCH  18  19
HETATM   19  C   UNL     1     -43.122  58.036 -57.575  1.00  0.00     0.002 A 
HETATM   20  C   UNL     1     -42.109  58.664 -58.310  1.00  0.00     0.073 A 
HETATM   21  C   UNL     1     -41.828  58.294 -59.624  1.00  0.00     0.038 A 
HETATM   22  C   UNL     1     -42.568  57.273 -60.222  1.00  0.00     0.022 A 
HETATM   23  C   UNL     1     -43.582  56.640 -59.505  1.00  0.00     0.011 A 
HETATM   24 BR   UNL     1     -44.573  55.246 -60.306  1.00  0.00    -0.051 Br
HETATM   25  C   UNL     1     -43.868  57.020 -58.193  1.00  0.00     0.030 A 
BRANCH  20  26
HETATM   26  O   UNL     1     -41.375  59.643 -57.694  1.00  0.00    -0.360 OA
HETATM   27  H   UNL     1     -40.661  59.910 -58.310  1.00  0.00     0.217 HD
ENDBRANCH  20  26
ENDBRANCH  18  19
ENDBRANCH   3  18
TORSDOF 6
ENDMDL
MODEL 10
REMARK VINA RESULT:      -7.0      4.614      8.216
REMARK  6 active torsions:
REMARK  status: ('A' for Active; 'I' for Inactive)
REMARK    1  A    between atoms: C_5  and  N_6 
REMARK    2  A    between atoms: N_6  and  C_7 
REMARK    3  A    between atoms: C_7  and  C_8 
REMARK    4  A    between atoms: N_10  and  C_12 
REMARK    5  A    between atoms: C_12  and  C_13 
REMARK    6  A    between atoms: C_14  and  O_15 
ROOT
HETATM    1  C   UNL     1     -41.901  55.188 -54.336  1.00  0.00     0.031 C 
HETATM    2  C   UNL     1     -42.306  55.215 -52.870  1.00  0.00     0.241 C 
HETATM    3  N   UNL     1     -43.344  56.311 -52.812  1.00  0.00    -0.067 N 
HETATM    4  H   UNL     1     -44.079  56.029 -52.137  1.00  0.00     0.280 HD
HETATM    5  C   UNL     1     -43.950  56.444 -54.191  1.00  0.00     0.235 C 
HETATM    6  C   UNL     1     -43.248  55.378 -55.027  1.00  0.00     0.035 C 
ENDROOT
BRANCH   1   7
HETATM    7  C   UNL     1     -41.168  53.912 -54.765  1.00  0.00     0.127 C 
BRANCH   7   8
HETATM    8  N   UNL     1     -40.295  53.453 -53.692  1.00  0.00    -0.376 N 
HETATM    9  H   UNL     1     -39.401  53.952 -53.639  1.00  0.00     0.161 HD
BRANCH   8  10
HETATM   10  C   UNL     1     -40.061  52.096 -53.446  1.00  0.00     0.101 A 
HETATM   11  N   UNL     1     -39.860  51.596 -52.215  1.00  0.00    -0.347 N 
HETATM   12  C   UNL     1     -39.635  50.289 -51.966  1.00  0.00     0.007 A 
HETATM   13  H   UNL     1     -39.900  52.227 -51.423  1.00  0.00     0.167 HD
HETATM   14  C   UNL     1     -39.478  49.836 -50.550  1.00  0.00     0.068 C 
HETATM   15  C   UNL     1     -39.569  49.392 -53.031  1.00  0.00     0.025 A 
HETATM   16  C   UNL     1     -39.740  49.862 -54.325  1.00  0.00     0.006 A 
HETATM   17  C   UNL     1     -39.989  51.213 -54.533  1.00  0.00     0.048 A 
ENDBRANCH   8  10
ENDBRANCH   7   8
ENDBRANCH   1   7
BRANCH   3  18
HETATM   18  C   UNL     1     -42.857  57.629 -52.250  1.00  0.00     0.276 C 
BRANCH  18  19
HETATM   19  C   UNL     1     -43.963  58.611 -51.983  1.00  0.00     0.002 A 
HETATM   20  C   UNL     1     -44.996  58.316 -51.083  1.00  0.00     0.073 A 
HETATM   21  C   UNL     1     -46.036  59.214 -50.851  1.00  0.00     0.038 A 
HETATM   22  C   UNL     1     -46.050  60.437 -51.523  1.00  0.00     0.022 A 
HETATM   23  C   UNL     1     -45.032  60.745 -52.423  1.00  0.00     0.011 A 
HETATM   24 BR   UNL     1     -45.039  62.406 -53.321  1.00  0.00    -0.051 Br
HETATM   25  C   UNL     1     -43.997  59.839 -52.662  1.00  0.00     0.030 A 
BRANCH  20  26
HETATM   26  O   UNL     1     -44.946  57.123 -50.412  1.00  0.00    -0.360 OA
HETATM   27  H   UNL     1     -44.004  56.927 -50.226  1.00  0.00     0.217 HD
ENDBRANCH  20  26
ENDBRANCH  18  19
ENDBRANCH   3  18
TORSDOF 6
ENDMDL
