MODEL 1
REMARK VINA RESULT:      -8.7      0.000      0.000
REMARK  6 active torsions:
REMARK  status: ('A' for Active; 'I' for Inactive)
REMARK    1  A    between atoms: C_2  and  C_3 
REMARK    2  A    between atoms: C_3  and  C_4 
REMARK    3  A    between atoms: C_4  and  C_5 
REMARK    4  A    between atoms: C_4  and  C_21 
REMARK       I    between atoms: C_5  and  N_6 
REMARK    5  A    between atoms: N_6  and  C_7 
REMARK    6  A    between atoms: C_14  and  C_15 
REMARK       I    between atoms: C_15  and  N_16 
ROOT
HETATM    1  C   UNL     1     -42.810  55.629 -56.354  1.00  0.00     0.035 A 
HETATM    2  C   UNL     1     -43.489  55.215 -57.508  1.00  0.00     0.046 A 
HETATM    3  C   UNL     1     -43.580  56.093 -58.610  1.00  0.00     0.030 A 
HETATM    4  C   UNL     1     -43.034  57.366 -58.500  1.00  0.00     0.063 A 
HETATM    5  N   UNL     1     -43.307  57.981 -59.690  1.00  0.00    -0.277 N 
HETATM    6  H   UNL     1     -43.074  58.930 -59.957  1.00  0.00     0.189 HD
HETATM    7  N   UNL     1     -43.932  57.203 -60.588  1.00  0.00    -0.168 NA
HETATM    8  C   UNL     1     -44.099  56.028 -59.939  1.00  0.00     0.156 A 
HETATM    9  C   UNL     1     -42.358  57.811 -57.362  1.00  0.00     0.034 A 
HETATM   10  C   UNL     1     -42.234  56.904 -56.302  1.00  0.00     0.032 A 
ENDROOT
BRANCH   1  11
HETATM   11  N   UNL     1     -42.623  54.791 -55.236  1.00  0.00    -0.327 N 
HETATM   12  C   UNL     1     -41.416  54.268 -54.793  1.00  0.00     0.231 C 
HETATM   13  O   UNL     1     -40.351  54.406 -55.390  1.00  0.00    -0.272 OA
HETATM   14  H   UNL     1     -43.467  54.422 -54.816  1.00  0.00     0.169 HD
BRANCH  12  15
HETATM   15  C   UNL     1     -41.482  53.564 -53.415  1.00  0.00     0.115 C 
BRANCH  15  16
HETATM   16  C   UNL     1     -41.188  54.484 -52.184  1.00  0.00    -0.001 C 
HETATM   17  C   UNL     1     -42.194  54.234 -51.050  1.00  0.00     0.011 C 
BRANCH  16  18
HETATM   18  C   UNL     1     -41.084  55.986 -52.536  1.00  0.00     0.001 C 
HETATM   19  C   UNL     1     -42.325  56.793 -52.174  1.00  0.00     0.005 C 
ENDBRANCH  16  18
ENDBRANCH  15  16
BRANCH  15  20
HETATM   20  C   UNL     1     -40.723  52.237 -53.314  1.00  0.00    -0.045 A 
HETATM   21  C   UNL     1     -40.846  51.298 -54.353  1.00  0.00     0.008 A 
HETATM   22  C   UNL     1     -40.157  50.085 -54.306  1.00  0.00     0.001 A 
HETATM   23  C   UNL     1     -39.342  49.790 -53.217  1.00  0.00     0.000 A 
HETATM   24  C   UNL     1     -39.218  50.704 -52.174  1.00  0.00     0.001 A 
HETATM   25  C   UNL     1     -39.905  51.920 -52.219  1.00  0.00     0.008 A 
ENDBRANCH  15  20
ENDBRANCH  12  15
ENDBRANCH   1  11
BRANCH   8  26
HETATM   26  C   UNL     1     -44.711  54.870 -60.606  1.00  0.00     0.270 C 
HETATM   27  N   UNL     1     -45.128  53.888 -59.747  1.00  0.00    -0.365 N 
HETATM   28  H   UNL     1     -45.020  54.040 -58.751  1.00  0.00     0.159 HD
HETATM   29  H   UNL     1     -45.613  53.084 -60.111  1.00  0.00     0.159 HD
HETATM   30  O   UNL     1     -44.878  54.766 -61.816  1.00  0.00    -0.266 OA
ENDBRANCH   8  26
TORSDOF 6
ENDMDL
MODEL 2
REMARK VINA RESULT:      -8.6      1.876      2.367
REMARK  6 active torsions:
REMARK  status: ('A' for Active; 'I' for Inactive)
REMARK    1  A    between atoms: C_2  and  C_3 
REMARK    2  A    between atoms: C_3  and  C_4 
REMARK    3  A    between atoms: C_4  and  C_5 
REMARK    4  A    between atoms: C_4  and  C_21 
REMARK       I    between atoms: C_5  and  N_6 
REMARK    5  A    between atoms: N_6  and  C_7 
REMARK    6  A    between atoms: C_14  and  C_15 
REMARK       I    between atoms: C_15  and  N_16 
ROOT
HETATM    1  C   UNL     1     -42.413  56.989 -55.394  1.00  0.00     0.035 A 
HETATM    2  C   UNL     1     -42.473  56.919 -56.793  1.00  0.00     0.046 A 
HETATM    3  C   UNL     1     -42.354  58.103 -57.552  1.00  0.00     0.030 A 
HETATM    4  C   UNL     1     -42.230  59.316 -56.885  1.00  0.00     0.063 A 
HETATM    5  N   UNL     1     -42.173  60.264 -57.869  1.00  0.00    -0.277 N 
HETATM    6  H   UNL     1     -42.102  61.268 -57.749  1.00  0.00     0.189 HD
HETATM    7  N   UNL     1     -42.190  59.772 -59.118  1.00  0.00    -0.168 NA
HETATM    8  C   UNL     1     -42.291  58.435 -58.939  1.00  0.00     0.156 A 
HETATM    9  C   UNL     1     -42.175  59.421 -55.494  1.00  0.00     0.034 A 
HETATM   10  C   UNL     1     -42.242  58.228 -54.764  1.00  0.00     0.032 A 
ENDROOT
BRANCH   1  11
HETATM   11  N   UNL     1     -42.464  55.848 -54.568  1.00  0.00    -0.327 N 
HETATM   12  C   UNL     1     -41.380  55.092 -54.144  1.00  0.00     0.231 C 
HETATM   13  O   UNL     1     -40.225  55.281 -54.519  1.00  0.00    -0.272 OA
HETATM   14  H   UNL     1     -43.386  55.466 -54.401  1.00  0.00     0.169 HD
BRANCH  12  15
HETATM   15  C   UNL     1     -41.714  54.029 -53.068  1.00  0.00     0.115 C 
BRANCH  15  16
HETATM   16  C   UNL     1     -41.795  54.571 -51.602  1.00  0.00    -0.001 C 
HETATM   17  C   UNL     1     -43.217  54.433 -51.037  1.00  0.00     0.011 C 
BRANCH  16  18
HETATM   18  C   UNL     1     -41.250  56.008 -51.434  1.00  0.00     0.001 C 
HETATM   19  C   UNL     1     -42.323  57.043 -51.116  1.00  0.00     0.005 C 
ENDBRANCH  16  18
ENDBRANCH  15  16
BRANCH  15  20
HETATM   20  C   UNL     1     -40.895  52.736 -53.140  1.00  0.00    -0.045 A 
HETATM   21  C   UNL     1     -40.105  52.365 -52.039  1.00  0.00     0.008 A 
HETATM   22  C   UNL     1     -39.359  51.185 -52.060  1.00  0.00     0.001 A 
HETATM   23  C   UNL     1     -39.386  50.364 -53.183  1.00  0.00     0.000 A 
HETATM   24  C   UNL     1     -40.156  50.722 -54.287  1.00  0.00     0.001 A 
HETATM   25  C   UNL     1     -40.905  51.901 -54.268  1.00  0.00     0.008 A 
ENDBRANCH  15  20
ENDBRANCH  12  15
ENDBRANCH   1  11
BRANCH   8  26
HETATM   26  C   UNL     1     -42.291  57.512 -60.082  1.00  0.00     0.270 C 
HETATM   27  N   UNL     1     -41.086  56.903 -60.307  1.00  0.00    -0.365 N 
HETATM   28  H   UNL     1     -40.320  57.098 -59.671  1.00  0.00     0.159 HD
HETATM   29  H   UNL     1     -41.007  56.209 -61.033  1.00  0.00     0.159 HD
HETATM   30  O   UNL     1     -43.267  57.261 -60.780  1.00  0.00    -0.266 OA
ENDBRANCH   8  26
TORSDOF 6
ENDMDL
MODEL 3
REMARK VINA RESULT:      -8.4      1.086      3.441
REMARK  6 active torsions:
REMARK  status: ('A' for Active; 'I' for Inactive)
REMARK    1  A    between atoms: C_2  and  C_3 
REMARK    2  A    between atoms: C_3  and  C_4 
REMARK    3  A    between atoms: C_4  and  C_5 
REMARK    4  A    between atoms: C_4  and  C_21 
REMARK       I    between atoms: C_5  and  N_6 
REMARK    5  A    between atoms: N_6  and  C_7 
REMARK    6  A    between atoms: C_14  and  C_15 
REMARK       I    between atoms: C_15  and  N_16 
ROOT
HETATM    1  C   UNL     1     -42.401  55.565 -55.860  1.00  0.00     0.035 A 
HETATM    2  C   UNL     1     -43.133  55.016 -56.921  1.00  0.00     0.046 A 
HETATM    3  C   UNL     1     -43.438  55.820 -58.041  1.00  0.00     0.030 A 
HETATM    4  C   UNL     1     -43.046  57.153 -58.035  1.00  0.00     0.063 A 
HETATM    5  N   UNL     1     -43.507  57.670 -59.213  1.00  0.00    -0.277 N 
HETATM    6  H   UNL     1     -43.420  58.626 -59.539  1.00  0.00     0.189 HD
HETATM    7  N   UNL     1     -44.115  56.779 -60.013  1.00  0.00    -0.168 NA
HETATM    8  C   UNL     1     -44.072  55.627 -59.306  1.00  0.00     0.156 A 
HETATM    9  C   UNL     1     -42.323  57.732 -56.990  1.00  0.00     0.034 A 
HETATM   10  C   UNL     1     -41.985  56.900 -55.915  1.00  0.00     0.032 A 
ENDROOT
BRANCH   1  11
HETATM   11  N   UNL     1     -42.004  54.812 -54.735  1.00  0.00    -0.327 N 
HETATM   12  C   UNL     1     -40.735  54.307 -54.490  1.00  0.00     0.231 C 
HETATM   13  O   UNL     1     -39.803  54.384 -55.288  1.00  0.00    -0.272 OA
HETATM   14  H   UNL     1     -42.752  54.488 -54.135  1.00  0.00     0.169 HD
BRANCH  12  15
HETATM   15  C   UNL     1     -40.537  53.711 -53.074  1.00  0.00     0.115 C 
BRANCH  15  16
HETATM   16  C   UNL     1     -40.438  52.150 -53.018  1.00  0.00    -0.001 C 
HETATM   17  C   UNL     1     -39.316  51.699 -52.070  1.00  0.00     0.011 C 
BRANCH  16  18
HETATM   18  C   UNL     1     -40.317  51.481 -54.407  1.00  0.00     0.001 C 
HETATM   19  C   UNL     1     -39.907  50.014 -54.352  1.00  0.00     0.005 C 
ENDBRANCH  16  18
ENDBRANCH  15  16
BRANCH  15  20
HETATM   20  C   UNL     1     -41.478  54.250 -51.993  1.00  0.00    -0.045 A 
HETATM   21  C   UNL     1     -41.026  55.273 -51.141  1.00  0.00     0.008 A 
HETATM   22  C   UNL     1     -41.861  55.802 -50.155  1.00  0.00     0.001 A 
HETATM   23  C   UNL     1     -43.154  55.312 -50.000  1.00  0.00     0.000 A 
HETATM   24  C   UNL     1     -43.614  54.291 -50.829  1.00  0.00     0.001 A 
HETATM   25  C   UNL     1     -42.782  53.761 -51.818  1.00  0.00     0.008 A 
ENDBRANCH  15  20
ENDBRANCH  12  15
ENDBRANCH   1  11
BRANCH   8  26
HETATM   26  C   UNL     1     -44.598  54.372 -59.861  1.00  0.00     0.270 C 
HETATM   27  N   UNL     1     -44.897  54.436 -61.196  1.00  0.00    -0.365 N 
HETATM   28  H   UNL     1     -44.707  55.299 -61.692  1.00  0.00     0.159 HD
HETATM   29  H   UNL     1     -45.208  53.606 -61.676  1.00  0.00     0.159 HD
HETATM   30  O   UNL     1     -44.746  53.333 -59.228  1.00  0.00    -0.266 OA
ENDBRANCH   8  26
TORSDOF 6
ENDMDL
MODEL 4
REMARK VINA RESULT:      -8.3      2.532      7.621
REMARK  6 active torsions:
REMARK  status: ('A' for Active; 'I' for Inactive)
REMARK    1  A    between atoms: C_2  and  C_3 
REMARK    2  A    between atoms: C_3  and  C_4 
REMARK    3  A    between atoms: C_4  and  C_5 
REMARK    4  A    between atoms: C_4  and  C_21 
REMARK       I    between atoms: C_5  and  N_6 
REMARK    5  A    between atoms: N_6  and  C_7 
REMARK    6  A    between atoms: C_14  and  C_15 
REMARK       I    between atoms: C_15  and  N_16 
ROOT
HETATM    1  C   UNL     1     -40.995  54.669 -54.739  1.00  0.00     0.035 A 
HETATM    2  C   UNL     1     -40.615  53.321 -54.788  1.00  0.00     0.046 A 
HETATM    3  C   UNL     1     -40.289  52.649 -53.590  1.00  0.00     0.030 A 
HETATM    4  C   UNL     1     -40.307  53.361 -52.397  1.00  0.00     0.063 A 
HETATM    5  N   UNL     1     -39.918  52.467 -51.438  1.00  0.00    -0.277 N 
HETATM    6  H   UNL     1     -39.799  52.644 -50.447  1.00  0.00     0.189 HD
HETATM    7  N   UNL     1     -39.705  51.221 -51.891  1.00  0.00    -0.168 NA
HETATM    8  C   UNL     1     -39.940  51.315 -53.220  1.00  0.00     0.156 A 
HETATM    9  C   UNL     1     -40.674  54.705 -52.315  1.00  0.00     0.034 A 
HETATM   10  C   UNL     1     -41.044  55.336 -53.509  1.00  0.00     0.032 A 
ENDROOT
BRANCH   1  11
HETATM   11  N   UNL     1     -41.393  55.394 -55.881  1.00  0.00    -0.327 N 
HETATM   12  C   UNL     1     -42.680  55.480 -56.392  1.00  0.00     0.231 C 
HETATM   13  O   UNL     1     -43.636  54.849 -55.948  1.00  0.00    -0.272 OA
HETATM   14  H   UNL     1     -40.643  55.753 -56.458  1.00  0.00     0.169 HD
BRANCH  12  15
HETATM   15  C   UNL     1     -42.859  56.522 -57.525  1.00  0.00     0.115 C 
BRANCH  15  16
HETATM   16  C   UNL     1     -43.041  58.001 -57.045  1.00  0.00    -0.001 C 
HETATM   17  C   UNL     1     -41.894  58.892 -57.545  1.00  0.00     0.011 C 
BRANCH  16  18
HETATM   18  C   UNL     1     -43.252  58.142 -55.519  1.00  0.00     0.001 C 
HETATM   19  C   UNL     1     -44.713  58.290 -55.109  1.00  0.00     0.005 C 
ENDBRANCH  16  18
ENDBRANCH  15  16
BRANCH  15  20
HETATM   20  C   UNL     1     -43.882  56.156 -58.604  1.00  0.00    -0.045 A 
HETATM   21  C   UNL     1     -44.972  57.013 -58.832  1.00  0.00     0.008 A 
HETATM   22  C   UNL     1     -45.915  56.722 -59.818  1.00  0.00     0.001 A 
HETATM   23  C   UNL     1     -45.787  55.569 -60.586  1.00  0.00     0.000 A 
HETATM   24  C   UNL     1     -44.719  54.704 -60.367  1.00  0.00     0.001 A 
HETATM   25  C   UNL     1     -43.771  54.992 -59.381  1.00  0.00     0.008 A 
ENDBRANCH  15  20
ENDBRANCH  12  15
ENDBRANCH   1  11
BRANCH   8  26
HETATM   26  C   UNL     1     -39.862  50.135 -54.092  1.00  0.00     0.270 C 
HETATM   27  N   UNL     1     -41.040  49.822 -54.715  1.00  0.00    -0.365 N 
HETATM   28  H   UNL     1     -41.841  50.424 -54.563  1.00  0.00     0.159 HD
HETATM   29  H   UNL     1     -41.066  49.063 -55.377  1.00  0.00     0.159 HD
HETATM   30  O   UNL     1     -38.846  49.478 -54.292  1.00  0.00    -0.266 OA
ENDBRANCH   8  26
TORSDOF 6
ENDMDL
MODEL 5
REMARK VINA RESULT:      -8.3      2.001      3.347
REMARK  6 active torsions:
REMARK  status: ('A' for Active; 'I' for Inactive)
REMARK    1  A    between atoms: C_2  and  C_3 
REMARK    2  A    between atoms: C_3  and  C_4 
REMARK    3  A    between atoms: C_4  and  C_5 
REMARK    4  A    between atoms: C_4  and  C_21 
REMARK       I    between atoms: C_5  and  N_6 
REMARK    5  A    between atoms: N_6  and  C_7 
REMARK    6  A    between atoms: C_14  and  C_15 
REMARK       I    between atoms: C_15  and  N_16 
ROOT
HETATM    1  C   UNL     1     -42.639  55.745 -56.590  1.00  0.00     0.035 A 
HETATM    2  C   UNL     1     -42.305  57.094 -56.415  1.00  0.00     0.046 A 
HETATM    3  C   UNL     1     -42.420  57.983 -57.505  1.00  0.00     0.030 A 
HETATM    4  C   UNL     1     -42.816  57.482 -58.740  1.00  0.00     0.063 A 
HETATM    5  N   UNL     1     -42.798  58.554 -59.587  1.00  0.00    -0.277 N 
HETATM    6  H   UNL     1     -43.012  58.556 -60.578  1.00  0.00     0.189 HD
HETATM    7  N   UNL     1     -42.483  59.721 -59.003  1.00  0.00    -0.168 NA
HETATM    8  C   UNL     1     -42.255  59.386 -57.712  1.00  0.00     0.156 A 
HETATM    9  C   UNL     1     -43.148  56.142 -58.949  1.00  0.00     0.034 A 
HETATM   10  C   UNL     1     -43.077  55.290 -57.839  1.00  0.00     0.032 A 
ENDROOT
BRANCH   1  11
HETATM   11  N   UNL     1     -42.609  54.807 -55.537  1.00  0.00    -0.327 N 
HETATM   12  C   UNL     1     -41.474  54.250 -54.965  1.00  0.00     0.231 C 
HETATM   13  O   UNL     1     -40.333  54.448 -55.376  1.00  0.00    -0.272 OA
HETATM   14  H   UNL     1     -43.500  54.396 -55.288  1.00  0.00     0.169 HD
BRANCH  12  15
HETATM   15  C   UNL     1     -41.736  53.420 -53.684  1.00  0.00     0.115 C 
BRANCH  15  16
HETATM   16  C   UNL     1     -41.800  54.247 -52.357  1.00  0.00    -0.001 C 
HETATM   17  C   UNL     1     -43.200  54.180 -51.728  1.00  0.00     0.011 C 
BRANCH  16  18
HETATM   18  C   UNL     1     -41.308  55.706 -52.505  1.00  0.00     0.001 C 
HETATM   19  C   UNL     1     -42.415  56.746 -52.386  1.00  0.00     0.005 C 
ENDBRANCH  16  18
ENDBRANCH  15  16
BRANCH  15  20
HETATM   20  C   UNL     1     -40.868  52.168 -53.519  1.00  0.00    -0.045 A 
HETATM   21  C   UNL     1     -40.066  52.038 -52.373  1.00  0.00     0.008 A 
HETATM   22  C   UNL     1     -39.275  50.904 -52.179  1.00  0.00     0.001 A 
HETATM   23  C   UNL     1     -39.269  49.888 -53.130  1.00  0.00     0.000 A 
HETATM   24  C   UNL     1     -40.050  50.006 -54.276  1.00  0.00     0.001 A 
HETATM   25  C   UNL     1     -40.844  51.138 -54.473  1.00  0.00     0.008 A 
ENDBRANCH  15  20
ENDBRANCH  12  15
ENDBRANCH   1  11
BRANCH   8  26
HETATM   26  C   UNL     1     -41.925  60.407 -56.708  1.00  0.00     0.270 C 
HETATM   27  N   UNL     1     -41.891  61.684 -57.201  1.00  0.00    -0.365 N 
HETATM   28  H   UNL     1     -42.123  61.831 -58.177  1.00  0.00     0.159 HD
HETATM   29  H   UNL     1     -41.731  62.455 -56.573  1.00  0.00     0.159 HD
HETATM   30  O   UNL     1     -41.718  60.181 -55.521  1.00  0.00    -0.266 OA
ENDBRANCH   8  26
TORSDOF 6
ENDMDL
MODEL 6
REMARK VINA RESULT:      -8.2      2.783      8.056
REMARK  6 active torsions:
REMARK  status: ('A' for Active; 'I' for Inactive)
REMARK    1  A    between atoms: C_2  and  C_3 
REMARK    2  A    between atoms: C_3  and  C_4 
REMARK    3  A    between atoms: C_4  and  C_5 
REMARK    4  A    between atoms: C_4  and  C_21 
REMARK       I    between atoms: C_5  and  N_6 
REMARK    5  A    between atoms: N_6  and  C_7 
REMARK    6  A    between atoms: C_14  and  C_15 
REMARK       I    between atoms: C_15  and  N_16 
ROOT
HETATM    1  C   UNL     1     -40.976  54.325 -54.466  1.00  0.00     0.035 A 
HETATM    2  C   UNL     1     -41.314  54.498 -53.116  1.00  0.00     0.046 A 
HETATM    3  C   UNL     1     -40.854  53.564 -52.163  1.00  0.00     0.030 A 
HETATM    4  C   UNL     1     -40.117  52.469 -52.598  1.00  0.00     0.063 A 
HETATM    5  N   UNL     1     -39.852  51.742 -51.472  1.00  0.00    -0.277 N 
HETATM    6  H   UNL     1     -39.349  50.864 -51.413  1.00  0.00     0.189 HD
HETATM    7  N   UNL     1     -40.299  52.295 -50.333  1.00  0.00    -0.168 NA
HETATM    8  C   UNL     1     -40.913  53.428 -50.743  1.00  0.00     0.156 A 
HETATM    9  C   UNL     1     -39.770  52.265 -53.935  1.00  0.00     0.034 A 
HETATM   10  C   UNL     1     -40.192  53.232 -54.855  1.00  0.00     0.032 A 
ENDROOT
BRANCH   1  11
HETATM   11  N   UNL     1     -41.345  55.244 -55.470  1.00  0.00    -0.327 N 
HETATM   12  C   UNL     1     -42.556  55.280 -56.146  1.00  0.00     0.231 C 
HETATM   13  O   UNL     1     -43.441  54.439 -56.008  1.00  0.00    -0.272 OA
HETATM   14  H   UNL     1     -40.600  55.828 -55.828  1.00  0.00     0.169 HD
BRANCH  12  15
HETATM   15  C   UNL     1     -42.764  56.530 -57.036  1.00  0.00     0.115 C 
BRANCH  15  16
HETATM   16  C   UNL     1     -43.152  57.837 -56.267  1.00  0.00    -0.001 C 
HETATM   17  C   UNL     1     -42.060  58.909 -56.408  1.00  0.00     0.011 C 
BRANCH  16  18
HETATM   18  C   UNL     1     -43.535  57.601 -54.787  1.00  0.00     0.001 C 
HETATM   19  C   UNL     1     -45.037  57.519 -54.544  1.00  0.00     0.005 C 
ENDBRANCH  16  18
ENDBRANCH  15  16
BRANCH  15  20
HETATM   20  C   UNL     1     -43.651  56.324 -58.268  1.00  0.00    -0.045 A 
HETATM   21  C   UNL     1     -44.719  57.209 -58.497  1.00  0.00     0.008 A 
HETATM   22  C   UNL     1     -45.538  57.064 -59.618  1.00  0.00     0.001 A 
HETATM   23  C   UNL     1     -45.308  56.030 -60.520  1.00  0.00     0.000 A 
HETATM   24  C   UNL     1     -44.261  55.138 -60.303  1.00  0.00     0.001 A 
HETATM   25  C   UNL     1     -43.437  55.281 -59.183  1.00  0.00     0.008 A 
ENDBRANCH  15  20
ENDBRANCH  12  15
ENDBRANCH   1  11
BRANCH   8  26
HETATM   26  C   UNL     1     -41.506  54.364 -49.777  1.00  0.00     0.270 C 
HETATM   27  N   UNL     1     -40.781  54.512 -48.626  1.00  0.00    -0.365 N 
HETATM   28  H   UNL     1     -39.903  54.011 -48.540  1.00  0.00     0.159 HD
HETATM   29  H   UNL     1     -41.080  55.178 -47.932  1.00  0.00     0.159 HD
HETATM   30  O   UNL     1     -42.540  54.997 -49.959  1.00  0.00    -0.266 OA
ENDBRANCH   8  26
TORSDOF 6
ENDMDL
MODEL 7
REMARK VINA RESULT:      -7.7      2.752      8.138
REMARK  6 active torsions:
REMARK  status: ('A' for Active; 'I' for Inactive)
REMARK    1  A    between atoms: C_2  and  C_3 
REMARK    2  A    between atoms: C_3  and  C_4 
REMARK    3  A    between atoms: C_4  and  C_5 
REMARK    4  A    between atoms: C_4  and  C_21 
REMARK       I    between atoms: C_5  and  N_6 
REMARK    5  A    between atoms: N_6  and  C_7 
REMARK    6  A    between atoms: C_14  and  C_15 
REMARK       I    between atoms: C_15  and  N_16 
ROOT
HETATM    1  C   UNL     1     -41.887  54.656 -55.370  1.00  0.00     0.035 A 
HETATM    2  C   UNL     1     -42.584  54.775 -54.160  1.00  0.00     0.046 A 
HETATM    3  C   UNL     1     -42.035  54.215 -52.986  1.00  0.00     0.030 A 
HETATM    4  C   UNL     1     -40.837  53.517 -53.074  1.00  0.00     0.063 A 
HETATM    5  N   UNL     1     -40.585  53.072 -51.806  1.00  0.00    -0.277 N 
HETATM    6  H   UNL     1     -39.801  52.507 -51.499  1.00  0.00     0.189 HD
HETATM    7  N   UNL     1     -41.482  53.467 -50.888  1.00  0.00    -0.168 NA
HETATM    8  C   UNL     1     -42.380  54.184 -51.601  1.00  0.00     0.156 A 
HETATM    9  C   UNL     1     -40.121  53.374 -54.264  1.00  0.00     0.034 A 
HETATM   10  C   UNL     1     -40.659  53.983 -55.405  1.00  0.00     0.032 A 
ENDROOT
BRANCH   1  11
HETATM   11  N   UNL     1     -42.337  55.237 -56.573  1.00  0.00    -0.327 N 
HETATM   12  C   UNL     1     -42.499  56.593 -56.820  1.00  0.00     0.231 C 
HETATM   13  O   UNL     1     -42.346  57.467 -55.968  1.00  0.00    -0.272 OA
HETATM   14  H   UNL     1     -42.718  54.596 -57.256  1.00  0.00     0.169 HD
BRANCH  12  15
HETATM   15  C   UNL     1     -42.796  56.952 -58.297  1.00  0.00     0.115 C 
BRANCH  15  16
HETATM   16  C   UNL     1     -42.017  58.192 -58.850  1.00  0.00    -0.001 C 
HETATM   17  C   UNL     1     -42.645  59.505 -58.360  1.00  0.00     0.011 C 
BRANCH  16  18
HETATM   18  C   UNL     1     -41.835  58.182 -60.385  1.00  0.00     0.001 C 
HETATM   19  C   UNL     1     -41.904  59.564 -61.024  1.00  0.00     0.005 C 
ENDBRANCH  16  18
ENDBRANCH  15  16
BRANCH  15  20
HETATM   20  C   UNL     1     -44.279  57.009 -58.678  1.00  0.00    -0.045 A 
HETATM   21  C   UNL     1     -44.735  56.242 -59.763  1.00  0.00     0.008 A 
HETATM   22  C   UNL     1     -46.082  56.254 -60.130  1.00  0.00     0.001 A 
HETATM   23  C   UNL     1     -46.989  57.037 -59.423  1.00  0.00     0.000 A 
HETATM   24  C   UNL     1     -46.551  57.811 -58.352  1.00  0.00     0.001 A 
HETATM   25  C   UNL     1     -45.205  57.800 -57.981  1.00  0.00     0.008 A 
ENDBRANCH  15  20
ENDBRANCH  12  15
ENDBRANCH   1  11
BRANCH   8  26
HETATM   26  C   UNL     1     -43.517  54.846 -50.946  1.00  0.00     0.270 C 
HETATM   27  N   UNL     1     -44.563  54.009 -50.663  1.00  0.00    -0.365 N 
HETATM   28  H   UNL     1     -44.467  53.025 -50.885  1.00  0.00     0.159 HD
HETATM   29  H   UNL     1     -45.361  54.363 -50.161  1.00  0.00     0.159 HD
HETATM   30  O   UNL     1     -43.554  56.032 -50.638  1.00  0.00    -0.266 OA
ENDBRANCH   8  26
TORSDOF 6
ENDMDL
MODEL 8
REMARK VINA RESULT:      -7.4      4.409      6.934
REMARK  6 active torsions:
REMARK  status: ('A' for Active; 'I' for Inactive)
REMARK    1  A    between atoms: C_2  and  C_3 
REMARK    2  A    between atoms: C_3  and  C_4 
REMARK    3  A    between atoms: C_4  and  C_5 
REMARK    4  A    between atoms: C_4  and  C_21 
REMARK       I    between atoms: C_5  and  N_6 
REMARK    5  A    between atoms: N_6  and  C_7 
REMARK    6  A    between atoms: C_14  and  C_15 
REMARK       I    between atoms: C_15  and  N_16 
ROOT
HETATM    1  C   UNL     1     -43.813  57.704 -52.810  1.00  0.00     0.035 A 
HETATM    2  C   UNL     1     -44.089  58.360 -51.603  1.00  0.00     0.046 A 
HETATM    3  C   UNL     1     -44.987  59.450 -51.597  1.00  0.00     0.030 A 
HETATM    4  C   UNL     1     -45.534  59.874 -52.802  1.00  0.00     0.063 A 
HETATM    5  N   UNL     1     -46.317  60.948 -52.484  1.00  0.00    -0.277 N 
HETATM    6  H   UNL     1     -46.856  61.523 -53.121  1.00  0.00     0.189 HD
HETATM    7  N   UNL     1     -46.376  61.226 -51.172  1.00  0.00    -0.168 NA
HETATM    8  C   UNL     1     -45.566  60.301 -50.608  1.00  0.00     0.156 A 
HETATM    9  C   UNL     1     -45.273  59.247 -54.022  1.00  0.00     0.034 A 
HETATM   10  C   UNL     1     -44.421  58.135 -53.995  1.00  0.00     0.032 A 
ENDROOT
BRANCH   1  11
HETATM   11  N   UNL     1     -42.976  56.572 -52.891  1.00  0.00    -0.327 N 
HETATM   12  C   UNL     1     -41.628  56.568 -53.219  1.00  0.00     0.231 C 
HETATM   13  O   UNL     1     -41.007  57.568 -53.572  1.00  0.00    -0.272 OA
HETATM   14  H   UNL     1     -43.444  55.675 -52.854  1.00  0.00     0.169 HD
BRANCH  12  15
HETATM   15  C   UNL     1     -40.915  55.208 -53.014  1.00  0.00     0.115 C 
BRANCH  15  16
HETATM   16  C   UNL     1     -41.345  54.076 -54.005  1.00  0.00    -0.001 C 
HETATM   17  C   UNL     1     -40.282  53.858 -55.093  1.00  0.00     0.011 C 
BRANCH  16  18
HETATM   18  C   UNL     1     -42.752  54.278 -54.613  1.00  0.00     0.001 C 
HETATM   19  C   UNL     1     -42.739  54.768 -56.056  1.00  0.00     0.005 C 
ENDBRANCH  16  18
ENDBRANCH  15  16
BRANCH  15  20
HETATM   20  C   UNL     1     -40.868  54.697 -51.570  1.00  0.00    -0.045 A 
HETATM   21  C   UNL     1     -40.537  53.353 -51.332  1.00  0.00     0.008 A 
HETATM   22  C   UNL     1     -40.467  52.855 -50.030  1.00  0.00     0.001 A 
HETATM   23  C   UNL     1     -40.734  53.690 -48.949  1.00  0.00     0.000 A 
HETATM   24  C   UNL     1     -41.073  55.022 -49.169  1.00  0.00     0.001 A 
HETATM   25  C   UNL     1     -41.143  55.525 -50.470  1.00  0.00     0.008 A 
ENDBRANCH  15  20
ENDBRANCH  12  15
ENDBRANCH   1  11
BRANCH   8  26
HETATM   26  C   UNL     1     -45.392  60.230 -49.151  1.00  0.00     0.270 C 
HETATM   27  N   UNL     1     -44.397  61.038 -48.667  1.00  0.00    -0.365 N 
HETATM   28  H   UNL     1     -43.897  61.630 -49.320  1.00  0.00     0.159 HD
HETATM   29  H   UNL     1     -44.246  61.098 -47.673  1.00  0.00     0.159 HD
HETATM   30  O   UNL     1     -46.072  59.543 -48.397  1.00  0.00    -0.266 OA
ENDBRANCH   8  26
TORSDOF 6
ENDMDL
MODEL 9
REMARK VINA RESULT:      -7.3      2.060      2.765
REMARK  6 active torsions:
REMARK  status: ('A' for Active; 'I' for Inactive)
REMARK    1  A    between atoms: C_2  and  C_3 
REMARK    2  A    between atoms: C_3  and  C_4 
REMARK    3  A    between atoms: C_4  and  C_5 
REMARK    4  A    between atoms: C_4  and  C_21 
REMARK       I    between atoms: C_5  and  N_6 
REMARK    5  A    between atoms: N_6  and  C_7 
REMARK    6  A    between atoms: C_14  and  C_15 
REMARK       I    between atoms: C_15  and  N_16 
ROOT
HETATM    1  C   UNL     1     -43.295  57.900 -55.739  1.00  0.00     0.035 A 
HETATM    2  C   UNL     1     -43.665  57.187 -56.888  1.00  0.00     0.046 A 
HETATM    3  C   UNL     1     -44.286  57.869 -57.957  1.00  0.00     0.030 A 
HETATM    4  C   UNL     1     -44.558  59.225 -57.818  1.00  0.00     0.063 A 
HETATM    5  N   UNL     1     -45.182  59.588 -58.979  1.00  0.00    -0.277 N 
HETATM    6  H   UNL     1     -45.542  60.504 -59.220  1.00  0.00     0.189 HD
HETATM    7  N   UNL     1     -45.289  58.604 -59.886  1.00  0.00    -0.168 NA
HETATM    8  C   UNL     1     -44.730  57.536 -59.272  1.00  0.00     0.156 A 
HETATM    9  C   UNL     1     -44.209  59.962 -56.685  1.00  0.00     0.034 A 
HETATM   10  C   UNL     1     -43.547  59.275 -55.660  1.00  0.00     0.032 A 
ENDROOT
BRANCH   1  11
HETATM   11  N   UNL     1     -42.618  57.305 -54.655  1.00  0.00    -0.327 N 
HETATM   12  C   UNL     1     -43.203  56.756 -53.522  1.00  0.00     0.231 C 
HETATM   13  O   UNL     1     -44.408  56.802 -53.284  1.00  0.00    -0.272 OA
HETATM   14  H   UNL     1     -41.614  57.431 -54.640  1.00  0.00     0.169 HD
BRANCH  12  15
HETATM   15  C   UNL     1     -42.229  55.978 -52.603  1.00  0.00     0.115 C 
BRANCH  15  16
HETATM   16  C   UNL     1     -41.279  56.870 -51.736  1.00  0.00    -0.001 C 
HETATM   17  C   UNL     1     -40.954  56.194 -50.395  1.00  0.00     0.011 C 
BRANCH  16  18
HETATM   18  C   UNL     1     -41.785  58.317 -51.540  1.00  0.00     0.001 C 
HETATM   19  C   UNL     1     -40.882  59.377 -52.159  1.00  0.00     0.005 C 
ENDBRANCH  16  18
ENDBRANCH  15  16
BRANCH  15  20
HETATM   20  C   UNL     1     -41.464  54.831 -53.270  1.00  0.00    -0.045 A 
HETATM   21  C   UNL     1     -40.828  55.059 -54.502  1.00  0.00     0.008 A 
HETATM   22  C   UNL     1     -40.107  54.044 -55.132  1.00  0.00     0.001 A 
HETATM   23  C   UNL     1     -40.017  52.786 -54.545  1.00  0.00     0.000 A 
HETATM   24  C   UNL     1     -40.651  52.540 -53.330  1.00  0.00     0.001 A 
HETATM   25  C   UNL     1     -41.372  53.554 -52.695  1.00  0.00     0.008 A 
ENDBRANCH  15  20
ENDBRANCH  12  15
ENDBRANCH   1  11
BRANCH   8  26
HETATM   26  C   UNL     1     -44.601  56.243 -59.960  1.00  0.00     0.270 C 
HETATM   27  N   UNL     1     -45.588  55.346 -59.651  1.00  0.00    -0.365 N 
HETATM   28  H   UNL     1     -46.327  55.639 -59.022  1.00  0.00     0.159 HD
HETATM   29  H   UNL     1     -45.614  54.455 -60.121  1.00  0.00     0.159 HD
HETATM   30  O   UNL     1     -43.721  55.964 -60.766  1.00  0.00    -0.266 OA
ENDBRANCH   8  26
TORSDOF 6
ENDMDL
MODEL 10
REMARK VINA RESULT:      -7.2      2.988      8.658
REMARK  6 active torsions:
REMARK  status: ('A' for Active; 'I' for Inactive)
REMARK    1  A    between atoms: C_2  and  C_3 
REMARK    2  A    between atoms: C_3  and  C_4 
REMARK    3  A    between atoms: C_4  and  C_5 
REMARK    4  A    between atoms: C_4  and  C_21 
REMARK       I    between atoms: C_5  and  N_6 
REMARK    5  A    between atoms: N_6  and  C_7 
REMARK    6  A    between atoms: C_14  and  C_15 
REMARK       I    between atoms: C_15  and  N_16 
ROOT
HETATM    1  C   UNL     1     -43.414  55.912 -55.618  1.00  0.00     0.035 A 
HETATM    2  C   UNL     1     -43.313  56.417 -54.314  1.00  0.00     0.046 A 
HETATM    3  C   UNL     1     -42.750  55.611 -53.301  1.00  0.00     0.030 A 
HETATM    4  C   UNL     1     -42.354  54.316 -53.618  1.00  0.00     0.063 A 
HETATM    5  N   UNL     1     -41.892  53.784 -52.447  1.00  0.00    -0.277 N 
HETATM    6  H   UNL     1     -41.539  52.846 -52.297  1.00  0.00     0.189 HD
HETATM    7  N   UNL     1     -41.896  54.635 -51.408  1.00  0.00    -0.168 NA
HETATM    8  C   UNL     1     -42.415  55.773 -51.923  1.00  0.00     0.156 A 
HETATM    9  C   UNL     1     -42.448  53.782 -54.904  1.00  0.00     0.034 A 
HETATM   10  C   UNL     1     -42.961  54.619 -55.903  1.00  0.00     0.032 A 
ENDROOT
BRANCH   1  11
HETATM   11  N   UNL     1     -43.908  56.675 -56.697  1.00  0.00    -0.327 N 
HETATM   12  C   UNL     1     -43.157  57.450 -57.567  1.00  0.00     0.231 C 
HETATM   13  O   UNL     1     -41.948  57.639 -57.446  1.00  0.00    -0.272 OA
HETATM   14  H   UNL     1     -44.914  56.780 -56.737  1.00  0.00     0.169 HD
BRANCH  12  15
HETATM   15  C   UNL     1     -43.939  57.998 -58.787  1.00  0.00     0.115 C 
BRANCH  15  16
HETATM   16  C   UNL     1     -44.436  56.913 -59.799  1.00  0.00    -0.001 C 
HETATM   17  C   UNL     1     -45.945  56.665 -59.652  1.00  0.00     0.011 C 
BRANCH  16  18
HETATM   18  C   UNL     1     -43.631  55.593 -59.748  1.00  0.00     0.001 C 
HETATM   19  C   UNL     1     -44.499  54.342 -59.695  1.00  0.00     0.005 C 
ENDBRANCH  16  18
ENDBRANCH  15  16
BRANCH  15  20
HETATM   20  C   UNL     1     -43.290  59.181 -59.511  1.00  0.00    -0.045 A 
HETATM   21  C   UNL     1     -43.481  60.479 -59.007  1.00  0.00     0.008 A 
HETATM   22  C   UNL     1     -42.892  61.581 -59.629  1.00  0.00     0.001 A 
HETATM   23  C   UNL     1     -42.111  61.403 -60.767  1.00  0.00     0.000 A 
HETATM   24  C   UNL     1     -41.919  60.125 -61.285  1.00  0.00     0.001 A 
HETATM   25  C   UNL     1     -42.506  59.020 -60.664  1.00  0.00     0.008 A 
ENDBRANCH  15  20
ENDBRANCH  12  15
ENDBRANCH   1  11
BRANCH   8  26
HETATM   26  C   UNL     1     -42.546  56.987 -51.106  1.00  0.00     0.270 C 
HETATM   27  N   UNL     1     -43.840  57.346 -50.843  1.00  0.00    -0.365 N 
HETATM   28  H   UNL     1     -44.585  56.751 -51.187  1.00  0.00     0.159 HD
HETATM   29  H   UNL     1     -44.026  58.132 -50.241  1.00  0.00     0.159 HD
HETATM   30  O   UNL     1     -41.606  57.635 -50.658  1.00  0.00    -0.266 OA
ENDBRANCH   8  26
TORSDOF 6
ENDMDL
