MODEL 1
REMARK VINA RESULT:      -8.9      0.000      0.000
REMARK  7 active torsions:
REMARK  status: ('A' for Active; 'I' for Inactive)
REMARK    1  A    between atoms: C_2  and  C_3 
REMARK    2  A    between atoms: C_3  and  N_4 
REMARK       I    between atoms: N_4  and  C_5 
REMARK    3  A    between atoms: C_5  and  C_6 
REMARK    4  A    between atoms: C_6  and  C_7 
REMARK    5  A    between atoms: C_7  and  C_8 
REMARK       I    between atoms: C_8  and  N_9 
REMARK    6  A    between atoms: N_9  and  N_10 
REMARK       I    between atoms: N_10  and  C_11 
REMARK    7  A    between atoms: C_11  and  C_12 
ROOT
HETATM    1  C   UNL     1     -44.357  58.971 -51.124  1.00  0.00     0.236 C 
HETATM    2  N   UNL     1     -43.038  58.773 -50.797  1.00  0.00    -0.267 N 
HETATM    3  O   UNL     1     -45.130  58.050 -51.389  1.00  0.00    -0.272 OA
HETATM    4  H   UNL     1     -42.344  59.520 -50.753  1.00  0.00     0.190 HD
ENDROOT
BRANCH   1   5
HETATM    5  C   UNL     1     -44.784  60.415 -51.229  1.00  0.00     0.114 C 
BRANCH   5   6
HETATM    6  C   UNL     1     -44.264  61.188 -50.027  1.00  0.00     0.112 C 
BRANCH   6   7
HETATM    7  C   UNL     1     -45.203  61.171 -48.833  1.00  0.00     0.218 C 
HETATM    8  N   UNL     1     -44.653  60.741 -47.652  1.00  0.00    -0.357 N 
HETATM    9  H   UNL     1     -43.643  60.770 -47.524  1.00  0.00     0.162 HD
HETATM   10  O   UNL     1     -46.393  61.448 -48.955  1.00  0.00    -0.274 OA
BRANCH   8  11
HETATM   11  C   UNL     1     -45.459  60.637 -46.456  1.00  0.00     0.161 C 
BRANCH  11  12
HETATM   12  C   UNL     1     -45.184  61.736 -45.456  1.00  0.00    -0.038 A 
HETATM   13  C   UNL     1     -45.811  63.002 -45.543  1.00  0.00     0.012 A 
HETATM   14  C   UNL     1     -45.521  64.022 -44.630  1.00  0.00     0.040 A 
HETATM   15  C   UNL     1     -44.585  63.761 -43.655  1.00  0.00     0.105 A 
HETATM   16  C   UNL     1     -43.949  62.546 -43.572  1.00  0.00     0.105 A 
HETATM   17  O   UNL     1     -44.169  64.633 -42.697  1.00  0.00    -0.323 OA
HETATM   18  C   UNL     1     -44.223  61.519 -44.452  1.00  0.00     0.048 A 
HETATM   19  O   UNL     1     -43.049  62.500 -42.554  1.00  0.00    -0.323 OA
HETATM   20  C   UNL     1     -43.185  63.831 -42.012  1.00  0.00     0.352 A 
ENDBRANCH  11  12
ENDBRANCH   8  11
ENDBRANCH   6   7
ENDBRANCH   5   6
ENDBRANCH   1   5
BRANCH   2  21
HETATM   21  N   UNL     1     -42.542  57.465 -50.856  1.00  0.00    -0.262 N 
HETATM   22  C   UNL     1     -41.809  57.071 -51.954  1.00  0.00     0.286 C 
HETATM   23  O   UNL     1     -41.565  57.844 -52.880  1.00  0.00    -0.264 OA
HETATM   24  H   UNL     1     -42.794  56.843 -50.093  1.00  0.00     0.190 HD
BRANCH  22  25
HETATM   25  C   UNL     1     -41.345  55.702 -51.936  1.00  0.00     0.103 A 
HETATM   26  N   UNL     1     -41.084  55.017 -53.103  1.00  0.00    -0.351 N 
HETATM   27  H   UNL     1     -41.203  55.417 -54.026  1.00  0.00     0.166 HD
HETATM   28  C   UNL     1     -40.627  53.748 -52.842  1.00  0.00     0.043 A 
HETATM   29  C   UNL     1     -40.611  53.599 -51.457  1.00  0.00    -0.005 A 
HETATM   30  C   UNL     1     -40.229  52.732 -53.718  1.00  0.00     0.032 A 
HETATM   31  C   UNL     1     -41.069  54.827 -50.899  1.00  0.00     0.049 A 
HETATM   32  C   UNL     1     -40.181  52.377 -50.907  1.00  0.00     0.037 A 
HETATM   33  C   UNL     1     -39.779  51.354 -51.771  1.00  0.00     0.035 A 
HETATM   34  C   UNL     1     -39.800  51.526 -53.153  1.00  0.00     0.026 A 
HETATM   35 CL   UNL     1     -39.243  49.854 -51.111  1.00  0.00    -0.084 Cl
ENDBRANCH  22  25
ENDBRANCH   2  21
TORSDOF 7
ENDMDL
MODEL 2
REMARK VINA RESULT:      -8.9      5.920      6.731
REMARK  7 active torsions:
REMARK  status: ('A' for Active; 'I' for Inactive)
REMARK    1  A    between atoms: C_2  and  C_3 
REMARK    2  A    between atoms: C_3  and  N_4 
REMARK       I    between atoms: N_4  and  C_5 
REMARK    3  A    between atoms: C_5  and  C_6 
REMARK    4  A    between atoms: C_6  and  C_7 
REMARK    5  A    between atoms: C_7  and  C_8 
REMARK       I    between atoms: C_8  and  N_9 
REMARK    6  A    between atoms: N_9  and  N_10 
REMARK       I    between atoms: N_10  and  C_11 
REMARK    7  A    between atoms: C_11  and  C_12 
ROOT
HETATM    1  C   UNL     1     -43.361  57.278 -56.291  1.00  0.00     0.236 C 
HETATM    2  N   UNL     1     -42.144  56.703 -56.563  1.00  0.00    -0.267 N 
HETATM    3  O   UNL     1     -44.121  56.861 -55.416  1.00  0.00    -0.272 OA
HETATM    4  H   UNL     1     -41.587  56.915 -57.392  1.00  0.00     0.190 HD
ENDROOT
BRANCH   1   5
HETATM    5  C   UNL     1     -43.755  58.413 -57.203  1.00  0.00     0.114 C 
BRANCH   5   6
HETATM    6  C   UNL     1     -43.800  59.710 -56.412  1.00  0.00     0.112 C 
BRANCH   6   7
HETATM    7  C   UNL     1     -42.706  59.831 -55.367  1.00  0.00     0.218 C 
HETATM    8  N   UNL     1     -43.131  59.862 -54.063  1.00  0.00    -0.357 N 
HETATM    9  H   UNL     1     -44.048  59.491 -53.821  1.00  0.00     0.162 HD
HETATM   10  O   UNL     1     -41.529  59.973 -55.690  1.00  0.00    -0.274 OA
BRANCH   8  11
HETATM   11  C   UNL     1     -42.185  60.021 -52.981  1.00  0.00     0.161 C 
BRANCH  11  12
HETATM   12  C   UNL     1     -42.089  58.804 -52.091  1.00  0.00    -0.038 A 
HETATM   13  C   UNL     1     -41.000  58.606 -51.208  1.00  0.00     0.012 A 
HETATM   14  C   UNL     1     -40.905  57.458 -50.414  1.00  0.00     0.040 A 
HETATM   15  C   UNL     1     -41.896  56.510 -50.539  1.00  0.00     0.105 A 
HETATM   16  C   UNL     1     -42.946  56.675 -51.409  1.00  0.00     0.105 A 
HETATM   17  O   UNL     1     -41.961  55.332 -49.863  1.00  0.00    -0.323 OA
HETATM   18  C   UNL     1     -43.070  57.802 -52.196  1.00  0.00     0.048 A 
HETATM   19  O   UNL     1     -43.803  55.619 -51.395  1.00  0.00    -0.323 OA
HETATM   20  C   UNL     1     -43.164  54.767 -50.422  1.00  0.00     0.352 A 
ENDBRANCH  11  12
ENDBRANCH   8  11
ENDBRANCH   6   7
ENDBRANCH   5   6
ENDBRANCH   1   5
BRANCH   2  21
HETATM   21  N   UNL     1     -41.802  55.538 -55.866  1.00  0.00    -0.262 N 
HETATM   22  C   UNL     1     -41.002  55.632 -54.749  1.00  0.00     0.286 C 
HETATM   23  O   UNL     1     -40.590  56.716 -54.337  1.00  0.00    -0.264 OA
HETATM   24  H   UNL     1     -42.129  54.657 -56.255  1.00  0.00     0.190 HD
BRANCH  22  25
HETATM   25  C   UNL     1     -40.691  54.379 -54.097  1.00  0.00     0.103 A 
HETATM   26  N   UNL     1     -40.568  53.208 -54.814  1.00  0.00    -0.351 N 
HETATM   27  H   UNL     1     -40.690  53.150 -55.817  1.00  0.00     0.166 HD
HETATM   28  C   UNL     1     -40.241  52.156 -53.992  1.00  0.00     0.043 A 
HETATM   29  C   UNL     1     -40.170  52.660 -52.695  1.00  0.00    -0.005 A 
HETATM   30  C   UNL     1     -40.003  50.811 -54.296  1.00  0.00     0.032 A 
HETATM   31  C   UNL     1     -40.459  54.052 -52.771  1.00  0.00     0.049 A 
HETATM   32  C   UNL     1     -39.849  51.786 -51.641  1.00  0.00     0.037 A 
HETATM   33  C   UNL     1     -39.606  50.440 -51.931  1.00  0.00     0.035 A 
HETATM   34  C   UNL     1     -39.681  49.958 -53.236  1.00  0.00     0.026 A 
HETATM   35 CL   UNL     1     -39.206  49.359 -50.649  1.00  0.00    -0.084 Cl
ENDBRANCH  22  25
ENDBRANCH   2  21
TORSDOF 7
ENDMDL
MODEL 3
REMARK VINA RESULT:      -8.8      1.437      2.195
REMARK  7 active torsions:
REMARK  status: ('A' for Active; 'I' for Inactive)
REMARK    1  A    between atoms: C_2  and  C_3 
REMARK    2  A    between atoms: C_3  and  N_4 
REMARK       I    between atoms: N_4  and  C_5 
REMARK    3  A    between atoms: C_5  and  C_6 
REMARK    4  A    between atoms: C_6  and  C_7 
REMARK    5  A    between atoms: C_7  and  C_8 
REMARK       I    between atoms: C_8  and  N_9 
REMARK    6  A    between atoms: N_9  and  N_10 
REMARK       I    between atoms: N_10  and  C_11 
REMARK    7  A    between atoms: C_11  and  C_12 
ROOT
HETATM    1  C   UNL     1     -41.641  59.584 -51.070  1.00  0.00     0.236 C 
HETATM    2  N   UNL     1     -42.350  58.444 -50.774  1.00  0.00    -0.267 N 
HETATM    3  O   UNL     1     -40.596  59.576 -51.721  1.00  0.00    -0.272 OA
HETATM    4  H   UNL     1     -43.108  58.407 -50.092  1.00  0.00     0.190 HD
ENDROOT
BRANCH   1   5
HETATM    5  C   UNL     1     -42.183  60.854 -50.462  1.00  0.00     0.114 C 
BRANCH   5   6
HETATM    6  C   UNL     1     -43.701  60.784 -50.405  1.00  0.00     0.112 C 
BRANCH   6   7
HETATM    7  C   UNL     1     -44.325  61.770 -49.433  1.00  0.00     0.218 C 
HETATM    8  N   UNL     1     -45.323  61.267 -48.636  1.00  0.00    -0.357 N 
HETATM    9  H   UNL     1     -45.385  60.263 -48.476  1.00  0.00     0.162 HD
HETATM   10  O   UNL     1     -44.002  62.955 -49.432  1.00  0.00    -0.274 OA
BRANCH   8  11
HETATM   11  C   UNL     1     -46.024  62.121 -47.703  1.00  0.00     0.161 C 
BRANCH  11  12
HETATM   12  C   UNL     1     -45.348  62.211 -46.355  1.00  0.00    -0.038 A 
HETATM   13  C   UNL     1     -44.769  61.079 -45.730  1.00  0.00     0.012 A 
HETATM   14  C   UNL     1     -44.176  61.168 -44.466  1.00  0.00     0.040 A 
HETATM   15  C   UNL     1     -44.196  62.392 -43.836  1.00  0.00     0.105 A 
HETATM   16  C   UNL     1     -44.775  63.494 -44.417  1.00  0.00     0.105 A 
HETATM   17  O   UNL     1     -43.684  62.661 -42.605  1.00  0.00    -0.323 OA
HETATM   18  C   UNL     1     -45.358  63.437 -45.667  1.00  0.00     0.048 A 
HETATM   19  O   UNL     1     -44.705  64.596 -43.623  1.00  0.00    -0.323 OA
HETATM   20  C   UNL     1     -44.023  64.057 -42.472  1.00  0.00     0.352 A 
ENDBRANCH  11  12
ENDBRANCH   8  11
ENDBRANCH   6   7
ENDBRANCH   5   6
ENDBRANCH   1   5
BRANCH   2  21
HETATM   21  N   UNL     1     -41.801  57.217 -51.162  1.00  0.00    -0.262 N 
HETATM   22  C   UNL     1     -42.399  56.502 -52.176  1.00  0.00     0.286 C 
HETATM   23  O   UNL     1     -43.397  56.921 -52.762  1.00  0.00    -0.264 OA
HETATM   24  H   UNL     1     -41.000  56.883 -50.633  1.00  0.00     0.190 HD
BRANCH  22  25
HETATM   25  C   UNL     1     -41.772  55.241 -52.505  1.00  0.00     0.103 A 
HETATM   26  N   UNL     1     -40.988  54.569 -51.591  1.00  0.00    -0.351 N 
HETATM   27  H   UNL     1     -40.801  54.910 -50.656  1.00  0.00     0.166 HD
HETATM   28  C   UNL     1     -40.525  53.385 -52.112  1.00  0.00     0.043 A 
HETATM   29  C   UNL     1     -41.009  53.297 -53.415  1.00  0.00    -0.005 A 
HETATM   30  C   UNL     1     -39.724  52.394 -51.532  1.00  0.00     0.032 A 
HETATM   31  C   UNL     1     -41.784  54.467 -53.654  1.00  0.00     0.049 A 
HETATM   32  C   UNL     1     -40.681  52.169 -54.190  1.00  0.00     0.037 A 
HETATM   33  C   UNL     1     -39.883  51.170 -53.622  1.00  0.00     0.035 A 
HETATM   34  C   UNL     1     -39.411  51.278 -52.316  1.00  0.00     0.026 A 
HETATM   35 CL   UNL     1     -39.478  49.780 -54.558  1.00  0.00    -0.084 Cl
ENDBRANCH  22  25
ENDBRANCH   2  21
TORSDOF 7
ENDMDL
MODEL 4
REMARK VINA RESULT:      -8.7      5.076      8.642
REMARK  7 active torsions:
REMARK  status: ('A' for Active; 'I' for Inactive)
REMARK    1  A    between atoms: C_2  and  C_3 
REMARK    2  A    between atoms: C_3  and  N_4 
REMARK       I    between atoms: N_4  and  C_5 
REMARK    3  A    between atoms: C_5  and  C_6 
REMARK    4  A    between atoms: C_6  and  C_7 
REMARK    5  A    between atoms: C_7  and  C_8 
REMARK       I    between atoms: C_8  and  N_9 
REMARK    6  A    between atoms: N_9  and  N_10 
REMARK       I    between atoms: N_10  and  C_11 
REMARK    7  A    between atoms: C_11  and  C_12 
ROOT
HETATM    1  C   UNL     1     -44.482  58.326 -51.708  1.00  0.00     0.236 C 
HETATM    2  N   UNL     1     -43.485  57.786 -50.933  1.00  0.00    -0.267 N 
HETATM    3  O   UNL     1     -44.964  57.749 -52.683  1.00  0.00    -0.272 OA
HETATM    4  H   UNL     1     -42.952  58.314 -50.241  1.00  0.00     0.190 HD
ENDROOT
BRANCH   1   5
HETATM    5  C   UNL     1     -44.895  59.730 -51.338  1.00  0.00     0.114 C 
BRANCH   5   6
HETATM    6  C   UNL     1     -43.723  60.676 -51.545  1.00  0.00     0.112 C 
BRANCH   6   7
HETATM    7  C   UNL     1     -43.376  60.912 -53.005  1.00  0.00     0.218 C 
HETATM    8  N   UNL     1     -42.565  59.968 -53.582  1.00  0.00    -0.357 N 
HETATM    9  H   UNL     1     -42.500  59.037 -53.172  1.00  0.00     0.162 HD
HETATM   10  O   UNL     1     -43.737  61.930 -53.589  1.00  0.00    -0.274 OA
BRANCH   8  11
HETATM   11  C   UNL     1     -42.128  60.108 -54.953  1.00  0.00     0.161 C 
BRANCH  11  12
HETATM   12  C   UNL     1     -42.434  58.896 -55.802  1.00  0.00    -0.038 A 
HETATM   13  C   UNL     1     -42.854  57.669 -55.232  1.00  0.00     0.012 A 
HETATM   14  C   UNL     1     -43.101  56.545 -56.027  1.00  0.00     0.040 A 
HETATM   15  C   UNL     1     -42.897  56.662 -57.383  1.00  0.00     0.105 A 
HETATM   16  C   UNL     1     -42.466  57.837 -57.949  1.00  0.00     0.105 A 
HETATM   17  O   UNL     1     -43.072  55.675 -58.303  1.00  0.00    -0.323 OA
HETATM   18  C   UNL     1     -42.224  58.965 -57.191  1.00  0.00     0.048 A 
HETATM   19  O   UNL     1     -42.309  57.738 -59.296  1.00  0.00    -0.323 OA
HETATM   20  C   UNL     1     -42.683  56.361 -59.510  1.00  0.00     0.352 A 
ENDBRANCH  11  12
ENDBRANCH   8  11
ENDBRANCH   6   7
ENDBRANCH   5   6
ENDBRANCH   1   5
BRANCH   2  21
HETATM   21  N   UNL     1     -42.941  56.560 -51.334  1.00  0.00    -0.262 N 
HETATM   22  C   UNL     1     -41.709  56.539 -51.950  1.00  0.00     0.286 C 
HETATM   23  O   UNL     1     -41.065  57.570 -52.145  1.00  0.00    -0.264 OA
HETATM   24  H   UNL     1     -43.515  55.733 -51.192  1.00  0.00     0.190 HD
BRANCH  22  25
HETATM   25  C   UNL     1     -41.228  55.233 -52.340  1.00  0.00     0.103 A 
HETATM   26  N   UNL     1     -40.725  54.346 -51.412  1.00  0.00    -0.351 N 
HETATM   27  H   UNL     1     -40.656  54.550 -50.423  1.00  0.00     0.166 HD
HETATM   28  C   UNL     1     -40.359  53.162 -52.005  1.00  0.00     0.043 A 
HETATM   29  C   UNL     1     -40.615  53.294 -53.368  1.00  0.00    -0.005 A 
HETATM   30  C   UNL     1     -39.828  51.996 -51.443  1.00  0.00     0.032 A 
HETATM   31  C   UNL     1     -41.154  54.597 -53.569  1.00  0.00     0.049 A 
HETATM   32  C   UNL     1     -40.327  52.214 -54.223  1.00  0.00     0.037 A 
HETATM   33  C   UNL     1     -39.798  51.042 -53.675  1.00  0.00     0.035 A 
HETATM   34  C   UNL     1     -39.552  50.932 -52.308  1.00  0.00     0.026 A 
HETATM   35 CL   UNL     1     -39.446  49.709 -54.710  1.00  0.00    -0.084 Cl
ENDBRANCH  22  25
ENDBRANCH   2  21
TORSDOF 7
ENDMDL
MODEL 5
REMARK VINA RESULT:      -8.6      5.869      7.571
REMARK  7 active torsions:
REMARK  status: ('A' for Active; 'I' for Inactive)
REMARK    1  A    between atoms: C_2  and  C_3 
REMARK    2  A    between atoms: C_3  and  N_4 
REMARK       I    between atoms: N_4  and  C_5 
REMARK    3  A    between atoms: C_5  and  C_6 
REMARK    4  A    between atoms: C_6  and  C_7 
REMARK    5  A    between atoms: C_7  and  C_8 
REMARK       I    between atoms: C_8  and  N_9 
REMARK    6  A    between atoms: N_9  and  N_10 
REMARK       I    between atoms: N_10  and  C_11 
REMARK    7  A    between atoms: C_11  and  C_12 
ROOT
HETATM    1  C   UNL     1     -42.998  56.283 -57.859  1.00  0.00     0.236 C 
HETATM    2  N   UNL     1     -42.110  56.458 -56.826  1.00  0.00    -0.267 N 
HETATM    3  O   UNL     1     -43.529  55.202 -58.114  1.00  0.00    -0.272 OA
HETATM    4  H   UNL     1     -41.528  57.289 -56.712  1.00  0.00     0.190 HD
ENDROOT
BRANCH   1   5
HETATM    5  C   UNL     1     -43.218  57.495 -58.731  1.00  0.00     0.114 C 
BRANCH   5   6
HETATM    6  C   UNL     1     -44.698  57.630 -59.052  1.00  0.00     0.112 C 
BRANCH   6   7
HETATM    7  C   UNL     1     -45.491  58.373 -57.992  1.00  0.00     0.218 C 
HETATM    8  N   UNL     1     -44.747  59.057 -57.064  1.00  0.00    -0.357 N 
HETATM    9  H   UNL     1     -43.786  59.319 -57.280  1.00  0.00     0.162 HD
HETATM   10  O   UNL     1     -46.715  58.288 -57.936  1.00  0.00    -0.274 OA
BRANCH   8  11
HETATM   11  C   UNL     1     -45.388  59.765 -55.979  1.00  0.00     0.161 C 
BRANCH  11  12
HETATM   12  C   UNL     1     -45.111  59.155 -54.625  1.00  0.00    -0.038 A 
HETATM   13  C   UNL     1     -45.293  59.883 -53.424  1.00  0.00     0.012 A 
HETATM   14  C   UNL     1     -45.001  59.318 -52.178  1.00  0.00     0.040 A 
HETATM   15  C   UNL     1     -44.504  58.034 -52.159  1.00  0.00     0.105 A 
HETATM   16  C   UNL     1     -44.298  57.323 -53.316  1.00  0.00     0.105 A 
HETATM   17  O   UNL     1     -44.152  57.333 -51.048  1.00  0.00    -0.323 OA
HETATM   18  C   UNL     1     -44.587  57.852 -54.557  1.00  0.00     0.048 A 
HETATM   19  O   UNL     1     -43.785  56.086 -53.080  1.00  0.00    -0.323 OA
HETATM   20  C   UNL     1     -43.683  56.105 -51.641  1.00  0.00     0.352 A 
ENDBRANCH  11  12
ENDBRANCH   8  11
ENDBRANCH   6   7
ENDBRANCH   5   6
ENDBRANCH   1   5
BRANCH   2  21
HETATM   21  N   UNL     1     -41.733  55.328 -56.092  1.00  0.00    -0.262 N 
HETATM   22  C   UNL     1     -41.149  55.491 -54.856  1.00  0.00     0.286 C 
HETATM   23  O   UNL     1     -40.961  56.607 -54.371  1.00  0.00    -0.264 OA
HETATM   24  H   UNL     1     -41.868  54.424 -56.538  1.00  0.00     0.190 HD
BRANCH  22  25
HETATM   25  C   UNL     1     -40.783  54.271 -54.172  1.00  0.00     0.103 A 
HETATM   26  N   UNL     1     -40.557  53.100 -54.864  1.00  0.00    -0.351 N 
HETATM   27  H   UNL     1     -40.637  53.020 -55.871  1.00  0.00     0.166 HD
HETATM   28  C   UNL     1     -40.194  52.084 -54.014  1.00  0.00     0.043 A 
HETATM   29  C   UNL     1     -40.204  52.610 -52.724  1.00  0.00    -0.005 A 
HETATM   30  C   UNL     1     -39.858  50.753 -54.287  1.00  0.00     0.032 A 
HETATM   31  C   UNL     1     -40.580  53.979 -52.833  1.00  0.00     0.049 A 
HETATM   32  C   UNL     1     -39.867  51.773 -51.644  1.00  0.00     0.037 A 
HETATM   33  C   UNL     1     -39.528  50.442 -51.903  1.00  0.00     0.035 A 
HETATM   34  C   UNL     1     -39.522  49.938 -53.201  1.00  0.00     0.026 A 
HETATM   35 CL   UNL     1     -39.107  49.407 -50.589  1.00  0.00    -0.084 Cl
ENDBRANCH  22  25
ENDBRANCH   2  21
TORSDOF 7
ENDMDL
MODEL 6
REMARK VINA RESULT:      -8.6      4.592      7.772
REMARK  7 active torsions:
REMARK  status: ('A' for Active; 'I' for Inactive)
REMARK    1  A    between atoms: C_2  and  C_3 
REMARK    2  A    between atoms: C_3  and  N_4 
REMARK       I    between atoms: N_4  and  C_5 
REMARK    3  A    between atoms: C_5  and  C_6 
REMARK    4  A    between atoms: C_6  and  C_7 
REMARK    5  A    between atoms: C_7  and  C_8 
REMARK       I    between atoms: C_8  and  N_9 
REMARK    6  A    between atoms: N_9  and  N_10 
REMARK       I    between atoms: N_10  and  C_11 
REMARK    7  A    between atoms: C_11  and  C_12 
ROOT
HETATM    1  C   UNL     1     -41.361  59.485 -51.100  1.00  0.00     0.236 C 
HETATM    2  N   UNL     1     -41.768  58.313 -50.509  1.00  0.00    -0.267 N 
HETATM    3  O   UNL     1     -40.660  59.519 -52.111  1.00  0.00    -0.272 OA
HETATM    4  H   UNL     1     -42.190  58.261 -49.581  1.00  0.00     0.190 HD
ENDROOT
BRANCH   1   5
HETATM    5  C   UNL     1     -41.758  60.745 -50.371  1.00  0.00     0.114 C 
BRANCH   5   6
HETATM    6  C   UNL     1     -43.273  60.870 -50.357  1.00  0.00     0.112 C 
BRANCH   6   7
HETATM    7  C   UNL     1     -43.898  60.908 -51.741  1.00  0.00     0.218 C 
HETATM    8  N   UNL     1     -44.820  59.926 -52.003  1.00  0.00    -0.357 N 
HETATM    9  H   UNL     1     -45.283  59.448 -51.232  1.00  0.00     0.162 HD
HETATM   10  O   UNL     1     -43.529  61.721 -52.584  1.00  0.00    -0.274 OA
BRANCH   8  11
HETATM   11  C   UNL     1     -45.449  59.832 -53.301  1.00  0.00     0.161 C 
BRANCH  11  12
HETATM   12  C   UNL     1     -44.869  58.736 -54.166  1.00  0.00    -0.038 A 
HETATM   13  C   UNL     1     -44.547  57.461 -53.642  1.00  0.00     0.012 A 
HETATM   14  C   UNL     1     -43.978  56.467 -54.445  1.00  0.00     0.040 A 
HETATM   15  C   UNL     1     -43.717  56.778 -55.760  1.00  0.00     0.105 A 
HETATM   16  C   UNL     1     -44.000  58.019 -56.278  1.00  0.00     0.105 A 
HETATM   17  O   UNL     1     -43.157  55.947 -56.679  1.00  0.00    -0.323 OA
HETATM   18  C   UNL     1     -44.571  59.015 -55.511  1.00  0.00     0.048 A 
HETATM   19  O   UNL     1     -43.649  58.128 -57.587  1.00  0.00    -0.323 OA
HETATM   20  C   UNL     1     -43.104  56.814 -57.830  1.00  0.00     0.352 A 
ENDBRANCH  11  12
ENDBRANCH   8  11
ENDBRANCH   6   7
ENDBRANCH   5   6
ENDBRANCH   1   5
BRANCH   2  21
HETATM   21  N   UNL     1     -41.284  57.113 -51.041  1.00  0.00    -0.262 N 
HETATM   22  C   UNL     1     -42.095  56.000 -51.042  1.00  0.00     0.286 C 
HETATM   23  O   UNL     1     -43.244  56.037 -50.601  1.00  0.00    -0.264 OA
HETATM   24  H   UNL     1     -40.319  57.108 -51.362  1.00  0.00     0.190 HD
BRANCH  22  25
HETATM   25  C   UNL     1     -41.511  54.802 -51.601  1.00  0.00     0.103 A 
HETATM   26  N   UNL     1     -40.924  53.848 -50.798  1.00  0.00    -0.351 N 
HETATM   27  H   UNL     1     -40.860  53.925 -49.790  1.00  0.00     0.166 HD
HETATM   28  C   UNL     1     -40.466  52.787 -51.542  1.00  0.00     0.043 A 
HETATM   29  C   UNL     1     -40.749  53.074 -52.876  1.00  0.00    -0.005 A 
HETATM   30  C   UNL     1     -39.832  51.606 -51.139  1.00  0.00     0.032 A 
HETATM   31  C   UNL     1     -41.398  54.341 -52.903  1.00  0.00     0.049 A 
HETATM   32  C   UNL     1     -40.381  52.144 -53.866  1.00  0.00     0.037 A 
HETATM   33  C   UNL     1     -39.748  50.960 -53.477  1.00  0.00     0.035 A 
HETATM   34  C   UNL     1     -39.478  50.692 -52.137  1.00  0.00     0.026 A 
HETATM   35 CL   UNL     1     -39.299  49.809 -54.679  1.00  0.00    -0.084 Cl
ENDBRANCH  22  25
ENDBRANCH   2  21
TORSDOF 7
ENDMDL
MODEL 7
REMARK VINA RESULT:      -8.4      5.680      7.795
REMARK  7 active torsions:
REMARK  status: ('A' for Active; 'I' for Inactive)
REMARK    1  A    between atoms: C_2  and  C_3 
REMARK    2  A    between atoms: C_3  and  N_4 
REMARK       I    between atoms: N_4  and  C_5 
REMARK    3  A    between atoms: C_5  and  C_6 
REMARK    4  A    between atoms: C_6  and  C_7 
REMARK    5  A    between atoms: C_7  and  C_8 
REMARK       I    between atoms: C_8  and  N_9 
REMARK    6  A    between atoms: N_9  and  N_10 
REMARK       I    between atoms: N_10  and  C_11 
REMARK    7  A    between atoms: C_11  and  C_12 
ROOT
HETATM    1  C   UNL     1     -43.392  55.803 -58.633  1.00  0.00     0.236 C 
HETATM    2  N   UNL     1     -42.500  56.255 -57.691  1.00  0.00    -0.267 N 
HETATM    3  O   UNL     1     -43.879  54.672 -58.609  1.00  0.00    -0.272 OA
HETATM    4  H   UNL     1     -41.952  57.110 -57.791  1.00  0.00     0.190 HD
ENDROOT
BRANCH   1   5
HETATM    5  C   UNL     1     -43.672  56.759 -59.765  1.00  0.00     0.114 C 
BRANCH   5   6
HETATM    6  C   UNL     1     -44.862  57.637 -59.407  1.00  0.00     0.112 C 
BRANCH   6   7
HETATM    7  C   UNL     1     -44.615  58.551 -58.220  1.00  0.00     0.218 C 
HETATM    8  N   UNL     1     -45.618  58.592 -57.284  1.00  0.00    -0.357 N 
HETATM    9  H   UNL     1     -46.288  57.827 -57.226  1.00  0.00     0.162 HD
HETATM   10  O   UNL     1     -43.615  59.262 -58.160  1.00  0.00    -0.274 OA
BRANCH   8  11
HETATM   11  C   UNL     1     -45.519  59.461 -56.133  1.00  0.00     0.161 C 
BRANCH  11  12
HETATM   12  C   UNL     1     -44.822  58.814 -54.958  1.00  0.00    -0.038 A 
HETATM   13  C   UNL     1     -45.036  57.457 -54.615  1.00  0.00     0.012 A 
HETATM   14  C   UNL     1     -44.410  56.880 -53.504  1.00  0.00     0.040 A 
HETATM   15  C   UNL     1     -43.596  57.685 -52.739  1.00  0.00     0.105 A 
HETATM   16  C   UNL     1     -43.397  59.009 -53.044  1.00  0.00     0.105 A 
HETATM   17  O   UNL     1     -42.921  57.301 -51.622  1.00  0.00    -0.323 OA
HETATM   18  C   UNL     1     -43.993  59.602 -54.139  1.00  0.00     0.048 A 
HETATM   19  O   UNL     1     -42.577  59.629 -52.155  1.00  0.00    -0.323 OA
HETATM   20  C   UNL     1     -42.290  58.543 -51.249  1.00  0.00     0.352 A 
ENDBRANCH  11  12
ENDBRANCH   8  11
ENDBRANCH   6   7
ENDBRANCH   5   6
ENDBRANCH   1   5
BRANCH   2  21
HETATM   21  N   UNL     1     -42.068  55.350 -56.715  1.00  0.00    -0.262 N 
HETATM   22  C   UNL     1     -41.568  55.830 -55.525  1.00  0.00     0.286 C 
HETATM   23  O   UNL     1     -41.504  57.036 -55.289  1.00  0.00    -0.264 OA
HETATM   24  H   UNL     1     -42.100  54.363 -56.957  1.00  0.00     0.190 HD
BRANCH  22  25
HETATM   25  C   UNL     1     -41.135  54.826 -54.579  1.00  0.00     0.103 A 
HETATM   26  N   UNL     1     -41.207  55.041 -53.219  1.00  0.00    -0.351 N 
HETATM   27  H   UNL     1     -41.553  55.899 -52.805  1.00  0.00     0.166 HD
HETATM   28  C   UNL     1     -40.772  53.942 -52.519  1.00  0.00     0.043 A 
HETATM   29  C   UNL     1     -40.386  52.989 -53.459  1.00  0.00    -0.005 A 
HETATM   30  C   UNL     1     -40.694  53.721 -51.140  1.00  0.00     0.032 A 
HETATM   31  C   UNL     1     -40.612  53.554 -54.746  1.00  0.00     0.049 A 
HETATM   32  C   UNL     1     -39.892  51.750 -53.009  1.00  0.00     0.037 A 
HETATM   33  C   UNL     1     -39.811  51.515 -51.634  1.00  0.00     0.035 A 
HETATM   34  C   UNL     1     -40.205  52.482 -50.712  1.00  0.00     0.026 A 
HETATM   35 CL   UNL     1     -39.214  49.999 -51.070  1.00  0.00    -0.084 Cl
ENDBRANCH  22  25
ENDBRANCH   2  21
TORSDOF 7
ENDMDL
MODEL 8
REMARK VINA RESULT:      -8.4      7.660      9.983
REMARK  7 active torsions:
REMARK  status: ('A' for Active; 'I' for Inactive)
REMARK    1  A    between atoms: C_2  and  C_3 
REMARK    2  A    between atoms: C_3  and  N_4 
REMARK       I    between atoms: N_4  and  C_5 
REMARK    3  A    between atoms: C_5  and  C_6 
REMARK    4  A    between atoms: C_6  and  C_7 
REMARK    5  A    between atoms: C_7  and  C_8 
REMARK       I    between atoms: C_8  and  N_9 
REMARK    6  A    between atoms: N_9  and  N_10 
REMARK       I    between atoms: N_10  and  C_11 
REMARK    7  A    between atoms: C_11  and  C_12 
ROOT
HETATM    1  C   UNL     1     -44.567  54.511 -59.376  1.00  0.00     0.236 C 
HETATM    2  N   UNL     1     -43.991  55.357 -58.460  1.00  0.00    -0.267 N 
HETATM    3  O   UNL     1     -44.726  53.307 -59.172  1.00  0.00    -0.272 OA
HETATM    4  H   UNL     1     -43.688  56.307 -58.676  1.00  0.00     0.190 HD
ENDROOT
BRANCH   1   5
HETATM    5  C   UNL     1     -44.918  55.140 -60.701  1.00  0.00     0.114 C 
BRANCH   5   6
HETATM    6  C   UNL     1     -46.269  55.829 -60.597  1.00  0.00     0.112 C 
BRANCH   6   7
HETATM    7  C   UNL     1     -46.180  57.331 -60.398  1.00  0.00     0.218 C 
HETATM    8  N   UNL     1     -44.977  57.903 -60.728  1.00  0.00    -0.357 N 
HETATM    9  H   UNL     1     -44.345  57.421 -61.365  1.00  0.00     0.162 HD
HETATM   10  O   UNL     1     -47.105  57.964 -59.895  1.00  0.00    -0.274 OA
BRANCH   8  11
HETATM   11  C   UNL     1     -44.755  59.319 -60.538  1.00  0.00     0.161 C 
BRANCH  11  12
HETATM   12  C   UNL     1     -43.867  59.630 -59.356  1.00  0.00    -0.038 A 
HETATM   13  C   UNL     1     -42.477  59.855 -59.502  1.00  0.00     0.012 A 
HETATM   14  C   UNL     1     -41.660  60.108 -58.395  1.00  0.00     0.040 A 
HETATM   15  C   UNL     1     -42.249  60.104 -57.151  1.00  0.00     0.105 A 
HETATM   16  C   UNL     1     -43.592  59.863 -56.989  1.00  0.00     0.105 A 
HETATM   17  O   UNL     1     -41.613  60.316 -55.968  1.00  0.00    -0.323 OA
HETATM   18  C   UNL     1     -44.423  59.622 -58.064  1.00  0.00     0.048 A 
HETATM   19  O   UNL     1     -43.970  59.886 -55.683  1.00  0.00    -0.323 OA
HETATM   20  C   UNL     1     -42.707  60.160 -55.042  1.00  0.00     0.352 A 
ENDBRANCH  11  12
ENDBRANCH   8  11
ENDBRANCH   6   7
ENDBRANCH   5   6
ENDBRANCH   1   5
BRANCH   2  21
HETATM   21  N   UNL     1     -43.486  54.796 -57.282  1.00  0.00    -0.262 N 
HETATM   22  C   UNL     1     -42.661  55.549 -56.475  1.00  0.00     0.286 C 
HETATM   23  O   UNL     1     -42.367  56.710 -56.756  1.00  0.00    -0.264 OA
HETATM   24  H   UNL     1     -43.718  53.823 -57.099  1.00  0.00     0.190 HD
BRANCH  22  25
HETATM   25  C   UNL     1     -42.178  54.886 -55.285  1.00  0.00     0.103 A 
HETATM   26  N   UNL     1     -41.271  53.851 -55.357  1.00  0.00    -0.351 N 
HETATM   27  H   UNL     1     -40.899  53.492 -56.227  1.00  0.00     0.166 HD
HETATM   28  C   UNL     1     -40.934  53.398 -54.103  1.00  0.00     0.043 A 
HETATM   29  C   UNL     1     -41.664  54.154 -53.189  1.00  0.00    -0.005 A 
HETATM   30  C   UNL     1     -40.046  52.389 -53.715  1.00  0.00     0.032 A 
HETATM   31  C   UNL     1     -42.445  55.079 -53.939  1.00  0.00     0.049 A 
HETATM   32  C   UNL     1     -41.510  53.895 -51.814  1.00  0.00     0.037 A 
HETATM   33  C   UNL     1     -40.625  52.891 -51.412  1.00  0.00     0.035 A 
HETATM   34  C   UNL     1     -39.903  52.149 -52.344  1.00  0.00     0.026 A 
HETATM   35 CL   UNL     1     -40.422  52.569 -49.731  1.00  0.00    -0.084 Cl
ENDBRANCH  22  25
ENDBRANCH   2  21
TORSDOF 7
ENDMDL
MODEL 9
REMARK VINA RESULT:      -8.3      4.559      8.109
REMARK  7 active torsions:
REMARK  status: ('A' for Active; 'I' for Inactive)
REMARK    1  A    between atoms: C_2  and  C_3 
REMARK    2  A    between atoms: C_3  and  N_4 
REMARK       I    between atoms: N_4  and  C_5 
REMARK    3  A    between atoms: C_5  and  C_6 
REMARK    4  A    between atoms: C_6  and  C_7 
REMARK    5  A    between atoms: C_7  and  C_8 
REMARK       I    between atoms: C_8  and  N_9 
REMARK    6  A    between atoms: N_9  and  N_10 
REMARK       I    between atoms: N_10  and  C_11 
REMARK    7  A    between atoms: C_11  and  C_12 
ROOT
HETATM    1  C   UNL     1     -44.888  58.815 -50.722  1.00  0.00     0.236 C 
HETATM    2  N   UNL     1     -43.521  58.685 -50.699  1.00  0.00    -0.267 N 
HETATM    3  O   UNL     1     -45.653  57.858 -50.836  1.00  0.00    -0.272 OA
HETATM    4  H   UNL     1     -42.873  59.468 -50.788  1.00  0.00     0.190 HD
ENDROOT
BRANCH   1   5
HETATM    5  C   UNL     1     -45.399  60.235 -50.688  1.00  0.00     0.114 C 
BRANCH   5   6
HETATM    6  C   UNL     1     -46.496  60.406 -51.726  1.00  0.00     0.112 C 
BRANCH   6   7
HETATM    7  C   UNL     1     -45.999  60.919 -53.066  1.00  0.00     0.218 C 
HETATM    8  N   UNL     1     -45.844  59.970 -54.045  1.00  0.00    -0.357 N 
HETATM    9  H   UNL     1     -46.344  59.085 -53.975  1.00  0.00     0.162 HD
HETATM   10  O   UNL     1     -45.682  62.096 -53.220  1.00  0.00    -0.274 OA
BRANCH   8  11
HETATM   11  C   UNL     1     -45.333  60.330 -55.349  1.00  0.00     0.161 C 
BRANCH  11  12
HETATM   12  C   UNL     1     -44.736  59.161 -56.097  1.00  0.00    -0.038 A 
HETATM   13  C   UNL     1     -44.937  58.981 -57.488  1.00  0.00     0.012 A 
HETATM   14  C   UNL     1     -44.407  57.876 -58.163  1.00  0.00     0.040 A 
HETATM   15  C   UNL     1     -43.705  56.952 -57.424  1.00  0.00     0.105 A 
HETATM   16  C   UNL     1     -43.522  57.098 -56.070  1.00  0.00     0.105 A 
HETATM   17  O   UNL     1     -43.134  55.815 -57.906  1.00  0.00    -0.323 OA
HETATM   18  C   UNL     1     -44.024  58.183 -55.381  1.00  0.00     0.048 A 
HETATM   19  O   UNL     1     -42.818  56.069 -55.527  1.00  0.00    -0.323 OA
HETATM   20  C   UNL     1     -42.588  55.254 -56.695  1.00  0.00     0.352 A 
ENDBRANCH  11  12
ENDBRANCH   8  11
ENDBRANCH   6   7
ENDBRANCH   5   6
ENDBRANCH   1   5
BRANCH   2  21
HETATM   21  N   UNL     1     -42.985  57.408 -50.904  1.00  0.00    -0.262 N 
HETATM   22  C   UNL     1     -41.989  57.237 -51.840  1.00  0.00     0.286 C 
HETATM   23  O   UNL     1     -41.545  58.181 -52.493  1.00  0.00    -0.264 OA
HETATM   24  H   UNL     1     -43.400  56.645 -50.376  1.00  0.00     0.190 HD
BRANCH  22  25
HETATM   25  C   UNL     1     -41.502  55.884 -51.993  1.00  0.00     0.103 A 
HETATM   26  N   UNL     1     -41.234  55.354 -53.237  1.00  0.00    -0.351 N 
HETATM   27  H   UNL     1     -41.363  55.863 -54.103  1.00  0.00     0.166 HD
HETATM   28  C   UNL     1     -40.754  54.070 -53.136  1.00  0.00     0.043 A 
HETATM   29  C   UNL     1     -40.731  53.751 -51.780  1.00  0.00    -0.005 A 
HETATM   30  C   UNL     1     -40.342  53.178 -54.132  1.00  0.00     0.032 A 
HETATM   31  C   UNL     1     -41.207  54.892 -51.073  1.00  0.00     0.049 A 
HETATM   32  C   UNL     1     -40.278  52.478 -51.387  1.00  0.00     0.037 A 
HETATM   33  C   UNL     1     -39.861  51.577 -52.372  1.00  0.00     0.035 A 
HETATM   34  C   UNL     1     -39.891  51.919 -53.722  1.00  0.00     0.026 A 
HETATM   35 CL   UNL     1     -39.298  50.016 -51.904  1.00  0.00    -0.084 Cl
ENDBRANCH  22  25
ENDBRANCH   2  21
TORSDOF 7
ENDMDL
MODEL 10
REMARK VINA RESULT:      -8.3      6.631     10.025
REMARK  7 active torsions:
REMARK  status: ('A' for Active; 'I' for Inactive)
REMARK    1  A    between atoms: C_2  and  C_3 
REMARK    2  A    between atoms: C_3  and  N_4 
REMARK       I    between atoms: N_4  and  C_5 
REMARK    3  A    between atoms: C_5  and  C_6 
REMARK    4  A    between atoms: C_6  and  C_7 
REMARK    5  A    between atoms: C_7  and  C_8 
REMARK       I    between atoms: C_8  and  N_9 
REMARK    6  A    between atoms: N_9  and  N_10 
REMARK       I    between atoms: N_10  and  C_11 
REMARK    7  A    between atoms: C_11  and  C_12 
ROOT
HETATM    1  C   UNL     1     -42.438  59.565 -54.136  1.00  0.00     0.236 C 
HETATM    2  N   UNL     1     -43.087  58.522 -53.522  1.00  0.00    -0.267 N 
HETATM    3  O   UNL     1     -41.324  59.456 -54.648  1.00  0.00    -0.272 OA
HETATM    4  H   UNL     1     -43.918  58.632 -52.941  1.00  0.00     0.190 HD
ENDROOT
BRANCH   1   5
HETATM    5  C   UNL     1     -43.148  60.895 -54.065  1.00  0.00     0.114 C 
BRANCH   5   6
HETATM    6  C   UNL     1     -44.651  60.674 -54.119  1.00  0.00     0.112 C 
BRANCH   6   7
HETATM    7  C   UNL     1     -45.218  60.650 -55.528  1.00  0.00     0.218 C 
HETATM    8  N   UNL     1     -45.869  59.497 -55.886  1.00  0.00    -0.357 N 
HETATM    9  H   UNL     1     -46.232  58.875 -55.165  1.00  0.00     0.162 HD
HETATM   10  O   UNL     1     -45.024  61.578 -56.309  1.00  0.00    -0.274 OA
BRANCH   8  11
HETATM   11  C   UNL     1     -46.411  59.337 -57.217  1.00  0.00     0.161 C 
BRANCH  11  12
HETATM   12  C   UNL     1     -45.677  58.304 -58.039  1.00  0.00    -0.038 A 
HETATM   13  C   UNL     1     -44.271  58.152 -57.968  1.00  0.00     0.012 A 
HETATM   14  C   UNL     1     -43.599  57.214 -58.760  1.00  0.00     0.040 A 
HETATM   15  C   UNL     1     -44.350  56.458 -59.632  1.00  0.00     0.105 A 
HETATM   16  C   UNL     1     -45.711  56.610 -59.731  1.00  0.00     0.105 A 
HETATM   17  O   UNL     1     -43.868  55.513 -60.484  1.00  0.00    -0.323 OA
HETATM   18  C   UNL     1     -46.401  57.520 -58.955  1.00  0.00     0.048 A 
HETATM   19  O   UNL     1     -46.260  55.785 -60.662  1.00  0.00    -0.323 OA
HETATM   20  C   UNL     1     -45.083  55.102 -61.144  1.00  0.00     0.352 A 
ENDBRANCH  11  12
ENDBRANCH   8  11
ENDBRANCH   6   7
ENDBRANCH   5   6
ENDBRANCH   1   5
BRANCH   2  21
HETATM   21  N   UNL     1     -42.401  57.308 -53.404  1.00  0.00    -0.262 N 
HETATM   22  C   UNL     1     -42.834  56.216 -54.124  1.00  0.00     0.286 C 
HETATM   23  O   UNL     1     -43.801  56.283 -54.882  1.00  0.00    -0.264 OA
HETATM   24  H   UNL     1     -41.631  57.277 -52.741  1.00  0.00     0.190 HD
BRANCH  22  25
HETATM   25  C   UNL     1     -42.074  55.001 -53.933  1.00  0.00     0.103 A 
HETATM   26  N   UNL     1     -41.452  54.724 -52.734  1.00  0.00    -0.351 N 
HETATM   27  H   UNL     1     -41.481  55.341 -51.932  1.00  0.00     0.166 HD
HETATM   28  C   UNL     1     -40.817  53.506 -52.775  1.00  0.00     0.043 A 
HETATM   29  C   UNL     1     -41.018  52.985 -54.051  1.00  0.00    -0.005 A 
HETATM   30  C   UNL     1     -40.090  52.832 -51.787  1.00  0.00     0.032 A 
HETATM   31  C   UNL     1     -41.801  53.932 -54.771  1.00  0.00     0.049 A 
HETATM   32  C   UNL     1     -40.467  51.731 -54.370  1.00  0.00     0.037 A 
HETATM   33  C   UNL     1     -39.739  51.046 -53.392  1.00  0.00     0.035 A 
HETATM   34  C   UNL     1     -39.553  51.584 -52.121  1.00  0.00     0.026 A 
HETATM   35 CL   UNL     1     -39.064  49.504 -53.768  1.00  0.00    -0.084 Cl
ENDBRANCH  22  25
ENDBRANCH   2  21
TORSDOF 7
ENDMDL
