MODEL 1
REMARK VINA RESULT:      -8.2      0.000      0.000
REMARK  3 active torsions:
REMARK  status: ('A' for Active; 'I' for Inactive)
REMARK    1  A    between atoms: C_9  and  C_10 
REMARK    2  A    between atoms: C_16  and  C_17 
REMARK       I    between atoms: C_17  and  N_18 
REMARK    3  A    between atoms: N_18  and  C_19 
ROOT
HETATM    1  C   UNL     1     -40.897  56.279 -49.804  1.00  0.00     0.070 C 
HETATM    2  C   UNL     1     -41.885  56.702 -50.863  1.00  0.00     0.037 C 
HETATM    3  N   UNL     1     -42.237  58.049 -50.852  1.00  0.00    -0.191 N 
HETATM    4  C   UNL     1     -43.255  58.547 -51.585  1.00  0.00     0.735 A 
HETATM    5  N   UNL     1     -43.904  57.731 -52.468  1.00  0.00    -0.092 N 
HETATM    6  N   UNL     1     -44.924  58.387 -53.042  1.00  0.00     0.012 NA
HETATM    7  N   UNL     1     -44.859  59.614 -52.533  1.00  0.00     0.033 NA
HETATM    8  N   UNL     1     -43.823  59.727 -51.623  1.00  0.00     0.030 NA
HETATM    9  C   UNL     1     -43.567  56.331 -52.710  1.00  0.00     0.199 C 
HETATM   10  C   UNL     1     -42.478  55.862 -51.748  1.00  0.00     0.062 C 
HETATM   11  H   UNL     1     -41.833  58.636 -50.125  1.00  0.00     0.184 HD
ENDROOT
BRANCH  10  12
HETATM   12  C   UNL     1     -42.222  54.397 -51.812  1.00  0.00     0.256 C 
HETATM   13  N   UNL     1     -41.065  54.075 -52.484  1.00  0.00    -0.323 N 
HETATM   14  H   UNL     1     -40.516  54.838 -52.857  1.00  0.00     0.169 HD
HETATM   15  O   UNL     1     -43.058  53.641 -51.337  1.00  0.00    -0.267 OA
BRANCH  13  16
HETATM   16  C   UNL     1     -40.550  52.783 -52.727  1.00  0.00     0.035 A 
HETATM   17  C   UNL     1     -39.914  52.001 -51.760  1.00  0.00     0.029 A 
HETATM   18  C   UNL     1     -39.429  50.730 -52.085  1.00  0.00     0.002 A 
HETATM   19  C   UNL     1     -39.567  50.235 -53.378  1.00  0.00     0.000 A 
HETATM   20  C   UNL     1     -40.198  51.006 -54.350  1.00  0.00     0.002 A 
HETATM   21  C   UNL     1     -40.690  52.273 -54.024  1.00  0.00     0.029 A 
ENDBRANCH  13  16
ENDBRANCH  10  12
BRANCH   9  22
HETATM   22  C   UNL     1     -43.177  56.124 -54.163  1.00  0.00    -0.011 A 
HETATM   23  C   UNL     1     -42.480  57.120 -54.844  1.00  0.00     0.125 A 
HETATM   24  N   UNL     1     -42.102  57.033 -56.139  1.00  0.00    -0.272 NA
HETATM   25  C   UNL     1     -42.430  55.901 -56.796  1.00  0.00     0.116 A 
HETATM   26  C   UNL     1     -43.129  54.855 -56.220  1.00  0.00     0.020 A 
HETATM   27  C   UNL     1     -43.512  54.971 -54.887  1.00  0.00     0.012 A 
ENDBRANCH   9  22
TORSDOF 3
ENDMDL
MODEL 2
REMARK VINA RESULT:      -7.9      1.852      4.287
REMARK  3 active torsions:
REMARK  status: ('A' for Active; 'I' for Inactive)
REMARK    1  A    between atoms: C_9  and  C_10 
REMARK    2  A    between atoms: C_16  and  C_17 
REMARK       I    between atoms: C_17  and  N_18 
REMARK    3  A    between atoms: N_18  and  C_19 
ROOT
HETATM    1  C   UNL     1     -43.235  55.042 -57.630  1.00  0.00     0.070 C 
HETATM    2  C   UNL     1     -42.911  56.288 -56.844  1.00  0.00     0.037 C 
HETATM    3  N   UNL     1     -42.968  57.481 -57.559  1.00  0.00    -0.191 N 
HETATM    4  C   UNL     1     -42.508  58.651 -57.071  1.00  0.00     0.735 A 
HETATM    5  N   UNL     1     -42.072  58.711 -55.777  1.00  0.00    -0.092 N 
HETATM    6  N   UNL     1     -41.589  59.933 -55.506  1.00  0.00     0.012 NA
HETATM    7  N   UNL     1     -41.777  60.622 -56.627  1.00  0.00     0.033 NA
HETATM    8  N   UNL     1     -42.348  59.835 -57.611  1.00  0.00     0.030 NA
HETATM    9  C   UNL     1     -42.081  57.588 -54.843  1.00  0.00     0.199 C 
HETATM   10  C   UNL     1     -42.519  56.304 -55.545  1.00  0.00     0.062 C 
HETATM   11  H   UNL     1     -43.189  57.426 -58.552  1.00  0.00     0.184 HD
ENDROOT
BRANCH  10  12
HETATM   12  C   UNL     1     -42.369  55.087 -54.702  1.00  0.00     0.256 C 
HETATM   13  N   UNL     1     -41.058  54.783 -54.413  1.00  0.00    -0.323 N 
HETATM   14  H   UNL     1     -40.345  55.395 -54.787  1.00  0.00     0.169 HD
HETATM   15  O   UNL     1     -43.375  54.457 -54.407  1.00  0.00    -0.267 OA
BRANCH  13  16
HETATM   16  C   UNL     1     -40.581  53.693 -53.652  1.00  0.00     0.035 A 
HETATM   17  C   UNL     1     -40.455  53.708 -52.262  1.00  0.00     0.029 A 
HETATM   18  C   UNL     1     -39.970  52.585 -51.584  1.00  0.00     0.002 A 
HETATM   19  C   UNL     1     -39.602  51.443 -52.289  1.00  0.00     0.000 A 
HETATM   20  C   UNL     1     -39.723  51.417 -53.675  1.00  0.00     0.002 A 
HETATM   21  C   UNL     1     -40.214  52.537 -54.353  1.00  0.00     0.029 A 
ENDBRANCH  13  16
ENDBRANCH  10  12
BRANCH   9  22
HETATM   22  C   UNL     1     -42.948  57.908 -53.639  1.00  0.00    -0.011 A 
HETATM   23  C   UNL     1     -42.384  57.939 -52.365  1.00  0.00     0.125 A 
HETATM   24  N   UNL     1     -43.076  58.200 -51.234  1.00  0.00    -0.272 NA
HETATM   25  C   UNL     1     -44.397  58.443 -51.368  1.00  0.00     0.116 A 
HETATM   26  C   UNL     1     -45.061  58.426 -52.583  1.00  0.00     0.020 A 
HETATM   27  C   UNL     1     -44.326  58.150 -53.733  1.00  0.00     0.012 A 
ENDBRANCH   9  22
TORSDOF 3
ENDMDL
MODEL 3
REMARK VINA RESULT:      -7.9      1.971      5.766
REMARK  3 active torsions:
REMARK  status: ('A' for Active; 'I' for Inactive)
REMARK    1  A    between atoms: C_9  and  C_10 
REMARK    2  A    between atoms: C_16  and  C_17 
REMARK       I    between atoms: C_17  and  N_18 
REMARK    3  A    between atoms: N_18  and  C_19 
ROOT
HETATM    1  C   UNL     1     -40.547  52.834 -54.353  1.00  0.00     0.070 C 
HETATM    2  C   UNL     1     -40.968  53.546 -53.091  1.00  0.00     0.037 C 
HETATM    3  N   UNL     1     -40.280  53.180 -51.938  1.00  0.00    -0.191 N 
HETATM    4  C   UNL     1     -40.668  53.558 -50.702  1.00  0.00     0.735 A 
HETATM    5  N   UNL     1     -41.708  54.434 -50.566  1.00  0.00    -0.092 N 
HETATM    6  N   UNL     1     -41.986  54.627 -49.268  1.00  0.00     0.012 NA
HETATM    7  N   UNL     1     -41.079  53.899 -48.622  1.00  0.00     0.033 NA
HETATM    8  N   UNL     1     -40.252  53.227 -49.504  1.00  0.00     0.030 NA
HETATM    9  C   UNL     1     -42.445  55.029 -51.677  1.00  0.00     0.199 C 
HETATM   10  C   UNL     1     -41.985  54.440 -53.009  1.00  0.00     0.062 C 
HETATM   11  H   UNL     1     -39.576  52.449 -52.020  1.00  0.00     0.184 HD
ENDROOT
BRANCH  10  12
HETATM   12  C   UNL     1     -42.823  54.861 -54.165  1.00  0.00     0.256 C 
HETATM   13  N   UNL     1     -42.180  55.728 -55.018  1.00  0.00    -0.323 N 
HETATM   14  H   UNL     1     -41.230  55.987 -54.788  1.00  0.00     0.169 HD
HETATM   15  O   UNL     1     -43.980  54.467 -54.216  1.00  0.00    -0.267 OA
BRANCH  13  16
HETATM   16  C   UNL     1     -42.701  56.317 -56.191  1.00  0.00     0.035 A 
HETATM   17  C   UNL     1     -43.035  57.668 -56.304  1.00  0.00     0.029 A 
HETATM   18  C   UNL     1     -43.549  58.171 -57.504  1.00  0.00     0.002 A 
HETATM   19  C   UNL     1     -43.740  57.329 -58.595  1.00  0.00     0.000 A 
HETATM   20  C   UNL     1     -43.411  55.980 -58.493  1.00  0.00     0.002 A 
HETATM   21  C   UNL     1     -42.890  55.478 -57.297  1.00  0.00     0.029 A 
ENDBRANCH  13  16
ENDBRANCH  10  12
BRANCH   9  22
HETATM   22  C   UNL     1     -42.320  56.542 -51.646  1.00  0.00    -0.011 A 
HETATM   23  C   UNL     1     -43.450  57.327 -51.424  1.00  0.00     0.125 A 
HETATM   24  N   UNL     1     -43.440  58.679 -51.392  1.00  0.00    -0.272 NA
HETATM   25  C   UNL     1     -42.252  59.286 -51.589  1.00  0.00     0.116 A 
HETATM   26  C   UNL     1     -41.072  58.604 -51.829  1.00  0.00     0.020 A 
HETATM   27  C   UNL     1     -41.109  57.213 -51.862  1.00  0.00     0.012 A 
ENDBRANCH   9  22
TORSDOF 3
ENDMDL
MODEL 4
REMARK VINA RESULT:      -7.7      2.068      4.029
REMARK  3 active torsions:
REMARK  status: ('A' for Active; 'I' for Inactive)
REMARK    1  A    between atoms: C_9  and  C_10 
REMARK    2  A    between atoms: C_16  and  C_17 
REMARK       I    between atoms: C_17  and  N_18 
REMARK    3  A    between atoms: N_18  and  C_19 
ROOT
HETATM    1  C   UNL     1     -42.852  55.408 -57.003  1.00  0.00     0.070 C 
HETATM    2  C   UNL     1     -42.325  56.063 -55.751  1.00  0.00     0.037 C 
HETATM    3  N   UNL     1     -42.313  57.455 -55.761  1.00  0.00    -0.191 N 
HETATM    4  C   UNL     1     -41.685  58.190 -54.820  1.00  0.00     0.735 A 
HETATM    5  N   UNL     1     -41.133  57.562 -53.739  1.00  0.00    -0.092 N 
HETATM    6  N   UNL     1     -40.496  58.450 -52.961  1.00  0.00     0.012 NA
HETATM    7  N   UNL     1     -40.706  59.622 -53.553  1.00  0.00     0.033 NA
HETATM    8  N   UNL     1     -41.445  59.474 -54.713  1.00  0.00     0.030 NA
HETATM    9  C   UNL     1     -41.183  56.122 -53.498  1.00  0.00     0.199 C 
HETATM   10  C   UNL     1     -41.820  55.397 -54.682  1.00  0.00     0.062 C 
HETATM   11  H   UNL     1     -42.626  57.923 -56.609  1.00  0.00     0.184 HD
ENDROOT
BRANCH  10  12
HETATM   12  C   UNL     1     -41.730  53.914 -54.587  1.00  0.00     0.256 C 
HETATM   13  N   UNL     1     -40.624  53.479 -53.893  1.00  0.00    -0.323 N 
HETATM   14  H   UNL     1     -39.999  54.184 -53.524  1.00  0.00     0.169 HD
HETATM   15  O   UNL     1     -42.576  53.244 -55.163  1.00  0.00    -0.267 OA
BRANCH  13  16
HETATM   16  C   UNL     1     -40.247  52.143 -53.639  1.00  0.00     0.035 A 
HETATM   17  C   UNL     1     -40.232  51.138 -54.608  1.00  0.00     0.029 A 
HETATM   18  C   UNL     1     -39.847  49.836 -54.272  1.00  0.00     0.002 A 
HETATM   19  C   UNL     1     -39.481  49.527 -52.965  1.00  0.00     0.000 A 
HETATM   20  C   UNL     1     -39.493  50.520 -51.990  1.00  0.00     0.002 A 
HETATM   21  C   UNL     1     -39.870  51.824 -52.328  1.00  0.00     0.029 A 
ENDBRANCH  13  16
ENDBRANCH  10  12
BRANCH   9  22
HETATM   22  C   UNL     1     -41.899  55.828 -52.193  1.00  0.00    -0.011 A 
HETATM   23  C   UNL     1     -41.172  55.412 -51.079  1.00  0.00     0.125 A 
HETATM   24  N   UNL     1     -41.722  55.115 -49.881  1.00  0.00    -0.272 NA
HETATM   25  C   UNL     1     -43.061  55.235 -49.777  1.00  0.00     0.116 A 
HETATM   26  C   UNL     1     -43.880  55.629 -50.820  1.00  0.00     0.020 A 
HETATM   27  C   UNL     1     -43.290  55.925 -52.047  1.00  0.00     0.012 A 
ENDBRANCH   9  22
TORSDOF 3
ENDMDL
MODEL 5
REMARK VINA RESULT:      -7.6      1.756      4.030
REMARK  3 active torsions:
REMARK  status: ('A' for Active; 'I' for Inactive)
REMARK    1  A    between atoms: C_9  and  C_10 
REMARK    2  A    between atoms: C_16  and  C_17 
REMARK       I    between atoms: C_17  and  N_18 
REMARK    3  A    between atoms: N_18  and  C_19 
ROOT
HETATM    1  C   UNL     1     -43.477  55.047 -55.015  1.00  0.00     0.070 C 
HETATM    2  C   UNL     1     -42.883  55.735 -53.811  1.00  0.00     0.037 C 
HETATM    3  N   UNL     1     -43.581  56.849 -53.351  1.00  0.00    -0.191 N 
HETATM    4  C   UNL     1     -43.082  57.696 -52.428  1.00  0.00     0.735 A 
HETATM    5  N   UNL     1     -41.893  57.401 -51.822  1.00  0.00    -0.092 N 
HETATM    6  N   UNL     1     -41.533  58.396 -50.996  1.00  0.00     0.012 NA
HETATM    7  N   UNL     1     -42.533  59.270 -51.073  1.00  0.00     0.033 NA
HETATM    8  N   UNL     1     -43.503  58.847 -51.962  1.00  0.00     0.030 NA
HETATM    9  C   UNL     1     -41.102  56.201 -52.081  1.00  0.00     0.199 C 
HETATM   10  C   UNL     1     -41.716  55.383 -53.216  1.00  0.00     0.062 C 
HETATM   11  H   UNL     1     -44.410  57.132 -53.869  1.00  0.00     0.184 HD
ENDROOT
BRANCH  10  12
HETATM   12  C   UNL     1     -40.860  54.249 -53.659  1.00  0.00     0.256 C 
HETATM   13  N   UNL     1     -41.117  53.077 -52.985  1.00  0.00    -0.323 N 
HETATM   14  H   UNL     1     -41.840  53.096 -52.278  1.00  0.00     0.169 HD
HETATM   15  O   UNL     1     -39.999  54.466 -54.500  1.00  0.00    -0.267 OA
BRANCH  13  16
HETATM   16  C   UNL     1     -40.474  51.832 -53.159  1.00  0.00     0.035 A 
HETATM   17  C   UNL     1     -39.806  51.149 -52.142  1.00  0.00     0.029 A 
HETATM   18  C   UNL     1     -39.191  49.919 -52.399  1.00  0.00     0.002 A 
HETATM   19  C   UNL     1     -39.233  49.367 -53.677  1.00  0.00     0.000 A 
HETATM   20  C   UNL     1     -39.895  50.040 -54.699  1.00  0.00     0.002 A 
HETATM   21  C   UNL     1     -40.516  51.265 -54.440  1.00  0.00     0.029 A 
ENDBRANCH  13  16
ENDBRANCH  10  12
BRANCH   9  22
HETATM   22  C   UNL     1     -40.944  55.387 -50.809  1.00  0.00    -0.011 A 
HETATM   23  C   UNL     1     -42.071  54.989 -50.094  1.00  0.00     0.125 A 
HETATM   24  N   UNL     1     -42.030  54.276 -48.946  1.00  0.00    -0.272 NA
HETATM   25  C   UNL     1     -40.810  53.938 -48.480  1.00  0.00     0.116 A 
HETATM   26  C   UNL     1     -39.626  54.291 -49.104  1.00  0.00     0.020 A 
HETATM   27  C   UNL     1     -39.695  55.030 -50.282  1.00  0.00     0.012 A 
ENDBRANCH   9  22
TORSDOF 3
ENDMDL
MODEL 6
REMARK VINA RESULT:      -7.6     15.741     18.037
REMARK  3 active torsions:
REMARK  status: ('A' for Active; 'I' for Inactive)
REMARK    1  A    between atoms: C_9  and  C_10 
REMARK    2  A    between atoms: C_16  and  C_17 
REMARK       I    between atoms: C_17  and  N_18 
REMARK    3  A    between atoms: N_18  and  C_19 
ROOT
HETATM    1  C   UNL     1     -36.864  40.017 -50.304  1.00  0.00     0.070 C 
HETATM    2  C   UNL     1     -35.365  39.909 -50.432  1.00  0.00     0.037 C 
HETATM    3  N   UNL     1     -34.726  39.205 -49.415  1.00  0.00    -0.191 N 
HETATM    4  C   UNL     1     -33.385  39.193 -49.262  1.00  0.00     0.735 A 
HETATM    5  N   UNL     1     -32.600  39.795 -50.204  1.00  0.00    -0.092 N 
HETATM    6  N   UNL     1     -31.310  39.740 -49.838  1.00  0.00     0.012 NA
HETATM    7  N   UNL     1     -31.318  39.063 -48.693  1.00  0.00     0.033 NA
HETATM    8  N   UNL     1     -32.605  38.717 -48.323  1.00  0.00     0.030 NA
HETATM    9  C   UNL     1     -33.100  40.452 -51.409  1.00  0.00     0.199 C 
HETATM   10  C   UNL     1     -34.627  40.492 -51.409  1.00  0.00     0.062 C 
HETATM   11  H   UNL     1     -35.301  38.847 -48.655  1.00  0.00     0.184 HD
ENDROOT
BRANCH  10  12
HETATM   12  C   UNL     1     -35.198  41.313 -52.511  1.00  0.00     0.256 C 
HETATM   13  N   UNL     1     -35.479  40.585 -53.645  1.00  0.00    -0.323 N 
HETATM   14  H   UNL     1     -35.279  39.593 -53.621  1.00  0.00     0.169 HD
HETATM   15  O   UNL     1     -35.303  42.520 -52.341  1.00  0.00    -0.267 OA
BRANCH  13  16
HETATM   16  C   UNL     1     -36.013  41.066 -54.859  1.00  0.00     0.035 A 
HETATM   17  C   UNL     1     -37.374  41.070 -55.166  1.00  0.00     0.029 A 
HETATM   18  C   UNL     1     -37.821  41.564 -56.397  1.00  0.00     0.002 A 
HETATM   19  C   UNL     1     -36.911  42.049 -57.331  1.00  0.00     0.000 A 
HETATM   20  C   UNL     1     -35.551  42.049 -57.036  1.00  0.00     0.002 A 
HETATM   21  C   UNL     1     -35.105  41.563 -55.804  1.00  0.00     0.029 A 
ENDBRANCH  13  16
ENDBRANCH  10  12
BRANCH   9  22
HETATM   22  C   UNL     1     -32.544  39.776 -52.650  1.00  0.00    -0.011 A 
HETATM   23  C   UNL     1     -31.990  40.546 -53.671  1.00  0.00     0.125 A 
HETATM   24  N   UNL     1     -31.484  40.037 -54.816  1.00  0.00    -0.272 NA
HETATM   25  C   UNL     1     -31.527  38.697 -54.961  1.00  0.00     0.116 A 
HETATM   26  C   UNL     1     -32.065  37.840 -54.016  1.00  0.00     0.020 A 
HETATM   27  C   UNL     1     -32.585  38.389 -52.847  1.00  0.00     0.012 A 
ENDBRANCH   9  22
TORSDOF 3
ENDMDL
MODEL 7
REMARK VINA RESULT:      -7.5      2.715      5.299
REMARK  3 active torsions:
REMARK  status: ('A' for Active; 'I' for Inactive)
REMARK    1  A    between atoms: C_9  and  C_10 
REMARK    2  A    between atoms: C_16  and  C_17 
REMARK       I    between atoms: C_17  and  N_18 
REMARK    3  A    between atoms: N_18  and  C_19 
ROOT
HETATM    1  C   UNL     1     -43.322  55.619 -58.604  1.00  0.00     0.070 C 
HETATM    2  C   UNL     1     -42.914  56.962 -58.051  1.00  0.00     0.037 C 
HETATM    3  N   UNL     1     -42.842  57.997 -58.980  1.00  0.00    -0.191 N 
HETATM    4  C   UNL     1     -42.296  59.198 -58.699  1.00  0.00     0.735 A 
HETATM    5  N   UNL     1     -41.897  59.468 -57.420  1.00  0.00    -0.092 N 
HETATM    6  N   UNL     1     -41.316  60.677 -57.360  1.00  0.00     0.012 NA
HETATM    7  N   UNL     1     -41.408  61.151 -58.599  1.00  0.00     0.033 NA
HETATM    8  N   UNL     1     -42.015  60.239 -59.443  1.00  0.00     0.030 NA
HETATM    9  C   UNL     1     -42.035  58.549 -56.293  1.00  0.00     0.199 C 
HETATM   10  C   UNL     1     -42.563  57.195 -56.761  1.00  0.00     0.062 C 
HETATM   11  H   UNL     1     -43.036  57.771 -59.954  1.00  0.00     0.184 HD
ENDROOT
BRANCH  10  12
HETATM   12  C   UNL     1     -42.547  56.153 -55.698  1.00  0.00     0.256 C 
HETATM   13  N   UNL     1     -41.287  55.674 -55.423  1.00  0.00    -0.323 N 
HETATM   14  H   UNL     1     -40.516  56.064 -55.950  1.00  0.00     0.169 HD
HETATM   15  O   UNL     1     -43.616  55.786 -55.230  1.00  0.00    -0.267 OA
BRANCH  13  16
HETATM   16  C   UNL     1     -40.937  54.681 -54.484  1.00  0.00     0.035 A 
HETATM   17  C   UNL     1     -41.034  54.844 -53.101  1.00  0.00     0.029 A 
HETATM   18  C   UNL     1     -40.663  53.809 -52.237  1.00  0.00     0.002 A 
HETATM   19  C   UNL     1     -40.185  52.606 -52.748  1.00  0.00     0.000 A 
HETATM   20  C   UNL     1     -40.082  52.432 -54.125  1.00  0.00     0.002 A 
HETATM   21  C   UNL     1     -40.460  53.464 -54.989  1.00  0.00     0.029 A 
ENDBRANCH  13  16
ENDBRANCH  10  12
BRANCH   9  22
HETATM   22  C   UNL     1     -42.908  59.163 -55.213  1.00  0.00    -0.011 A 
HETATM   23  C   UNL     1     -42.360  59.473 -53.971  1.00  0.00     0.125 A 
HETATM   24  N   UNL     1     -43.059  60.008 -52.945  1.00  0.00    -0.272 NA
HETATM   25  C   UNL     1     -44.369  60.249 -53.158  1.00  0.00     0.116 A 
HETATM   26  C   UNL     1     -45.017  59.969 -54.348  1.00  0.00     0.020 A 
HETATM   27  C   UNL     1     -44.276  59.413 -55.388  1.00  0.00     0.012 A 
ENDBRANCH   9  22
TORSDOF 3
ENDMDL
MODEL 8
REMARK VINA RESULT:      -7.5      2.071      4.240
REMARK  3 active torsions:
REMARK  status: ('A' for Active; 'I' for Inactive)
REMARK    1  A    between atoms: C_9  and  C_10 
REMARK    2  A    between atoms: C_16  and  C_17 
REMARK       I    between atoms: C_17  and  N_18 
REMARK    3  A    between atoms: N_18  and  C_19 
ROOT
HETATM    1  C   UNL     1     -43.457  54.314 -56.185  1.00  0.00     0.070 C 
HETATM    2  C   UNL     1     -43.050  55.721 -55.824  1.00  0.00     0.037 C 
HETATM    3  N   UNL     1     -43.890  56.728 -56.292  1.00  0.00    -0.191 N 
HETATM    4  C   UNL     1     -43.565  58.036 -56.241  1.00  0.00     0.735 A 
HETATM    5  N   UNL     1     -42.420  58.416 -55.601  1.00  0.00    -0.092 N 
HETATM    6  N   UNL     1     -42.237  59.740 -55.723  1.00  0.00     0.012 NA
HETATM    7  N   UNL     1     -43.301  60.162 -56.401  1.00  0.00     0.033 NA
HETATM    8  N   UNL     1     -44.135  59.110 -56.731  1.00  0.00     0.030 NA
HETATM    9  C   UNL     1     -41.500  57.503 -54.928  1.00  0.00     0.199 C 
HETATM   10  C   UNL     1     -41.920  56.051 -55.150  1.00  0.00     0.062 C 
HETATM   11  H   UNL     1     -44.687  56.450 -56.862  1.00  0.00     0.184 HD
ENDROOT
BRANCH  10  12
HETATM   12  C   UNL     1     -40.923  55.064 -54.653  1.00  0.00     0.256 C 
HETATM   13  N   UNL     1     -41.452  54.155 -53.765  1.00  0.00    -0.323 N 
HETATM   14  H   UNL     1     -42.435  54.240 -53.543  1.00  0.00     0.169 HD
HETATM   15  O   UNL     1     -39.760  55.182 -55.014  1.00  0.00    -0.267 OA
BRANCH  13  16
HETATM   16  C   UNL     1     -40.772  53.106 -53.109  1.00  0.00     0.035 A 
HETATM   17  C   UNL     1     -40.216  52.007 -53.764  1.00  0.00     0.029 A 
HETATM   18  C   UNL     1     -39.559  51.007 -53.038  1.00  0.00     0.002 A 
HETATM   19  C   UNL     1     -39.461  51.096 -51.652  1.00  0.00     0.000 A 
HETATM   20  C   UNL     1     -40.013  52.187 -50.989  1.00  0.00     0.002 A 
HETATM   21  C   UNL     1     -40.662  53.190 -51.715  1.00  0.00     0.029 A 
ENDBRANCH  13  16
ENDBRANCH  10  12
BRANCH   9  22
HETATM   22  C   UNL     1     -41.393  57.850 -53.454  1.00  0.00    -0.011 A 
HETATM   23  C   UNL     1     -42.436  57.529 -52.587  1.00  0.00     0.125 A 
HETATM   24  N   UNL     1     -42.439  57.809 -51.265  1.00  0.00    -0.272 NA
HETATM   25  C   UNL     1     -41.352  58.440 -50.772  1.00  0.00     0.116 A 
HETATM   26  C   UNL     1     -40.266  58.814 -51.544  1.00  0.00     0.020 A 
HETATM   27  C   UNL     1     -40.291  58.519 -52.904  1.00  0.00     0.012 A 
ENDBRANCH   9  22
TORSDOF 3
ENDMDL
MODEL 9
REMARK VINA RESULT:      -7.4      2.033      4.673
REMARK  3 active torsions:
REMARK  status: ('A' for Active; 'I' for Inactive)
REMARK    1  A    between atoms: C_9  and  C_10 
REMARK    2  A    between atoms: C_16  and  C_17 
REMARK       I    between atoms: C_17  and  N_18 
REMARK    3  A    between atoms: N_18  and  C_19 
ROOT
HETATM    1  C   UNL     1     -43.086  54.588 -55.757  1.00  0.00     0.070 C 
HETATM    2  C   UNL     1     -42.843  56.052 -55.486  1.00  0.00     0.037 C 
HETATM    3  N   UNL     1     -42.755  56.864 -56.614  1.00  0.00    -0.191 N 
HETATM    4  C   UNL     1     -42.335  58.145 -56.563  1.00  0.00     0.735 A 
HETATM    5  N   UNL     1     -42.092  58.722 -55.349  1.00  0.00    -0.092 N 
HETATM    6  N   UNL     1     -41.616  59.966 -55.512  1.00  0.00     0.012 NA
HETATM    7  N   UNL     1     -41.615  60.151 -56.829  1.00  0.00     0.033 NA
HETATM    8  N   UNL     1     -42.059  59.024 -57.496  1.00  0.00     0.030 NA
HETATM    9  C   UNL     1     -42.275  58.058 -54.061  1.00  0.00     0.199 C 
HETATM   10  C   UNL     1     -42.646  56.590 -54.257  1.00  0.00     0.062 C 
HETATM   11  H   UNL     1     -42.829  56.416 -57.525  1.00  0.00     0.184 HD
ENDROOT
BRANCH  10  12
HETATM   12  C   UNL     1     -42.660  55.808 -52.990  1.00  0.00     0.256 C 
HETATM   13  N   UNL     1     -41.407  55.611 -52.457  1.00  0.00    -0.323 N 
HETATM   14  H   UNL     1     -40.621  56.005 -52.958  1.00  0.00     0.169 HD
HETATM   15  O   UNL     1     -43.731  55.375 -52.587  1.00  0.00    -0.267 OA
BRANCH  13  16
HETATM   16  C   UNL     1     -41.080  54.906 -51.279  1.00  0.00     0.035 A 
HETATM   17  C   UNL     1     -40.601  53.594 -51.262  1.00  0.00     0.029 A 
HETATM   18  C   UNL     1     -40.304  52.965 -50.048  1.00  0.00     0.002 A 
HETATM   19  C   UNL     1     -40.490  53.638 -48.844  1.00  0.00     0.000 A 
HETATM   20  C   UNL     1     -40.968  54.945 -48.849  1.00  0.00     0.002 A 
HETATM   21  C   UNL     1     -41.258  55.577 -50.062  1.00  0.00     0.029 A 
ENDBRANCH  13  16
ENDBRANCH  10  12
BRANCH   9  22
HETATM   22  C   UNL     1     -43.299  58.802 -53.223  1.00  0.00    -0.011 A 
HETATM   23  C   UNL     1     -42.943  59.299 -51.970  1.00  0.00     0.125 A 
HETATM   24  N   UNL     1     -43.788  59.960 -51.148  1.00  0.00    -0.272 NA
HETATM   25  C   UNL     1     -45.051  60.140 -51.585  1.00  0.00     0.116 A 
HETATM   26  C   UNL     1     -45.514  59.678 -52.805  1.00  0.00     0.020 A 
HETATM   27  C   UNL     1     -44.626  58.995 -53.632  1.00  0.00     0.012 A 
ENDBRANCH   9  22
TORSDOF 3
ENDMDL
MODEL 10
REMARK VINA RESULT:      -7.4      2.354      3.045
REMARK  3 active torsions:
REMARK  status: ('A' for Active; 'I' for Inactive)
REMARK    1  A    between atoms: C_9  and  C_10 
REMARK    2  A    between atoms: C_16  and  C_17 
REMARK       I    between atoms: C_17  and  N_18 
REMARK    3  A    between atoms: N_18  and  C_19 
ROOT
HETATM    1  C   UNL     1     -40.138  59.382 -50.583  1.00  0.00     0.070 C 
HETATM    2  C   UNL     1     -41.616  59.331 -50.883  1.00  0.00     0.037 C 
HETATM    3  N   UNL     1     -42.397  60.269 -50.212  1.00  0.00    -0.191 N 
HETATM    4  C   UNL     1     -43.745  60.226 -50.201  1.00  0.00     0.735 A 
HETATM    5  N   UNL     1     -44.391  59.301 -50.972  1.00  0.00    -0.092 N 
HETATM    6  N   UNL     1     -45.716  59.371 -50.769  1.00  0.00     0.012 NA
HETATM    7  N   UNL     1     -45.868  60.372 -49.907  1.00  0.00     0.033 NA
HETATM    8  N   UNL     1     -44.647  60.913 -49.544  1.00  0.00     0.030 NA
HETATM    9  C   UNL     1     -43.729  58.339 -51.848  1.00  0.00     0.199 C 
HETATM   10  C   UNL     1     -42.212  58.416 -51.688  1.00  0.00     0.062 C 
HETATM   11  H   UNL     1     -41.928  60.889 -49.555  1.00  0.00     0.184 HD
ENDROOT
BRANCH  10  12
HETATM   12  C   UNL     1     -41.484  57.336 -52.408  1.00  0.00     0.256 C 
HETATM   13  N   UNL     1     -41.810  56.073 -51.970  1.00  0.00    -0.323 N 
HETATM   14  H   UNL     1     -42.492  56.001 -51.226  1.00  0.00     0.169 HD
HETATM   15  O   UNL     1     -40.650  57.656 -53.245  1.00  0.00    -0.267 OA
BRANCH  13  16
HETATM   16  C   UNL     1     -41.291  54.846 -52.436  1.00  0.00     0.035 A 
HETATM   17  C   UNL     1     -41.438  54.382 -53.744  1.00  0.00     0.029 A 
HETATM   18  C   UNL     1     -40.893  53.151 -54.124  1.00  0.00     0.002 A 
HETATM   19  C   UNL     1     -40.205  52.371 -53.199  1.00  0.00     0.000 A 
HETATM   20  C   UNL     1     -40.054  52.823 -51.892  1.00  0.00     0.002 A 
HETATM   21  C   UNL     1     -40.591  54.057 -51.513  1.00  0.00     0.029 A 
ENDBRANCH  13  16
ENDBRANCH  10  12
BRANCH   9  22
HETATM   22  C   UNL     1     -44.164  58.546 -53.288  1.00  0.00    -0.011 A 
HETATM   23  C   UNL     1     -44.007  59.794 -53.888  1.00  0.00     0.125 A 
HETATM   24  N   UNL     1     -44.376  60.078 -55.157  1.00  0.00    -0.272 NA
HETATM   25  C   UNL     1     -44.930  59.076 -55.871  1.00  0.00     0.116 A 
HETATM   26  C   UNL     1     -45.143  57.804 -55.370  1.00  0.00     0.020 A 
HETATM   27  C   UNL     1     -44.759  57.538 -54.059  1.00  0.00     0.012 A 
ENDBRANCH   9  22
TORSDOF 3
ENDMDL
