MODEL 1
REMARK VINA RESULT:      -8.4      0.000      0.000
REMARK  8 active torsions:
REMARK  status: ('A' for Active; 'I' for Inactive)
REMARK    1  A    between atoms: C_3  and  N_4 
REMARK       I    between atoms: N_4  and  C_5 
REMARK    2  A    between atoms: C_5  and  C_6 
REMARK    3  A    between atoms: C_6  and  N_7 
REMARK    4  A    between atoms: C_10  and  C_11 
REMARK       I    between atoms: C_11  and  N_12 
REMARK    5  A    between atoms: N_12  and  C_13 
REMARK    6  A    between atoms: C_13  and  C_14 
REMARK    7  A    between atoms: C_17  and  O_18 
REMARK    8  A    between atoms: C_23  and  N_24 
ROOT
HETATM    1  N   UNL     1     -41.879  57.170 -51.591  1.00  0.00    -0.248 N 
HETATM    2  N   UNL     1     -40.719  57.852 -51.472  1.00  0.00     0.007 NA
HETATM    3  N   UNL     1     -40.657  58.705 -52.484  1.00  0.00    -0.150 NA
HETATM    4  C   UNL     1     -41.797  58.559 -53.248  1.00  0.00     0.186 A 
HETATM    5  C   UNL     1     -42.589  57.564 -52.695  1.00  0.00     0.151 A 
ENDROOT
BRANCH   1   6
HETATM    6  C   UNL     1     -42.203  56.159 -50.614  1.00  0.00     0.251 C 
BRANCH   6   7
HETATM    7  C   UNL     1     -42.123  54.771 -51.208  1.00  0.00     0.241 C 
HETATM    8  N   UNL     1     -40.890  54.467 -51.759  1.00  0.00    -0.325 N 
HETATM    9  H   UNL     1     -40.141  55.121 -51.536  1.00  0.00     0.169 HD
HETATM   10  O   UNL     1     -43.068  53.997 -51.080  1.00  0.00    -0.271 OA
BRANCH   8  11
HETATM   11  C   UNL     1     -40.475  53.283 -52.409  1.00  0.00     0.042 A 
HETATM   12  C   UNL     1     -40.404  53.074 -53.799  1.00  0.00    -0.035 A 
HETATM   13  C   UNL     1     -40.658  54.127 -54.842  1.00  0.00     0.050 C 
HETATM   14  C   UNL     1     -40.015  51.803 -54.276  1.00  0.00     0.011 A 
HETATM   15  C   UNL     1     -39.643  50.781 -53.404  1.00  0.00     0.024 A 
HETATM   16  C   UNL     1     -39.651  51.019 -52.039  1.00  0.00     0.036 A 
HETATM   17  C   UNL     1     -40.052  52.257 -51.544  1.00  0.00     0.053 A 
HETATM   18 CL   UNL     1     -39.173  49.776 -50.949  1.00  0.00    -0.084 Cl
ENDBRANCH   8  11
ENDBRANCH   6   7
ENDBRANCH   1   6
BRANCH   5  19
HETATM   19  N   UNL     1     -43.783  57.041 -53.055  1.00  0.00    -0.382 N 
HETATM   20  H   UNL     1     -44.394  56.672 -52.320  1.00  0.00     0.157 HD
HETATM   21  H   UNL     1     -44.293  57.305 -53.894  1.00  0.00     0.157 HD
ENDBRANCH   5  19
BRANCH   4  22
HETATM   22  C   UNL     1     -42.068  59.356 -54.435  1.00  0.00     0.275 C 
HETATM   23  N   UNL     1     -42.147  58.614 -55.594  1.00  0.00    -0.351 N 
HETATM   24  H   UNL     1     -42.005  57.612 -55.524  1.00  0.00     0.163 HD
HETATM   25  O   UNL     1     -42.201  60.577 -54.402  1.00  0.00    -0.266 OA
BRANCH  23  26
HETATM   26  C   UNL     1     -42.278  59.218 -56.896  1.00  0.00     0.161 C 
BRANCH  26  27
HETATM   27  C   UNL     1     -42.725  58.281 -57.993  1.00  0.00    -0.040 A 
HETATM   28  C   UNL     1     -42.874  56.899 -57.826  1.00  0.00     0.011 A 
HETATM   29  C   UNL     1     -43.296  56.097 -58.893  1.00  0.00     0.037 A 
HETATM   30  C   UNL     1     -43.584  56.654 -60.140  1.00  0.00     0.068 A 
HETATM   31  C   UNL     1     -43.438  58.027 -60.317  1.00  0.00     0.037 A 
HETATM   32  C   UNL     1     -43.012  58.830 -59.254  1.00  0.00     0.011 A 
BRANCH  30  33
HETATM   33  O   UNL     1     -43.992  55.759 -61.091  1.00  0.00    -0.356 OA
HETATM   34  C   UNL     1     -45.076  54.906 -60.744  1.00  0.00     0.210 C 
ENDBRANCH  30  33
ENDBRANCH  26  27
ENDBRANCH  23  26
ENDBRANCH   4  22
TORSDOF 8
ENDMDL
MODEL 2
REMARK VINA RESULT:      -8.1      1.799      2.144
REMARK  8 active torsions:
REMARK  status: ('A' for Active; 'I' for Inactive)
REMARK    1  A    between atoms: C_3  and  N_4 
REMARK       I    between atoms: N_4  and  C_5 
REMARK    2  A    between atoms: C_5  and  C_6 
REMARK    3  A    between atoms: C_6  and  N_7 
REMARK    4  A    between atoms: C_10  and  C_11 
REMARK       I    between atoms: C_11  and  N_12 
REMARK    5  A    between atoms: N_12  and  C_13 
REMARK    6  A    between atoms: C_13  and  C_14 
REMARK    7  A    between atoms: C_17  and  O_18 
REMARK    8  A    between atoms: C_23  and  N_24 
ROOT
HETATM    1  N   UNL     1     -43.166  56.944 -51.656  1.00  0.00    -0.248 N 
HETATM    2  N   UNL     1     -44.454  57.169 -51.317  1.00  0.00     0.007 NA
HETATM    3  N   UNL     1     -44.972  57.967 -52.240  1.00  0.00    -0.150 NA
HETATM    4  C   UNL     1     -43.995  58.243 -53.176  1.00  0.00     0.186 A 
HETATM    5  C   UNL     1     -42.821  57.603 -52.807  1.00  0.00     0.151 A 
ENDROOT
BRANCH   1   6
HETATM    6  C   UNL     1     -42.354  56.103 -50.810  1.00  0.00     0.251 C 
BRANCH   6   7
HETATM    7  C   UNL     1     -42.236  54.705 -51.374  1.00  0.00     0.241 C 
HETATM    8  N   UNL     1     -40.972  54.395 -51.844  1.00  0.00    -0.325 N 
HETATM    9  H   UNL     1     -40.239  55.055 -51.589  1.00  0.00     0.169 HD
HETATM   10  O   UNL     1     -43.186  53.930 -51.287  1.00  0.00    -0.271 OA
BRANCH   8  11
HETATM   11  C   UNL     1     -40.517  53.200 -52.447  1.00  0.00     0.042 A 
HETATM   12  C   UNL     1     -40.402  52.952 -53.827  1.00  0.00    -0.035 A 
HETATM   13  C   UNL     1     -40.644  53.969 -54.908  1.00  0.00     0.050 C 
HETATM   14  C   UNL     1     -39.976  51.675 -54.255  1.00  0.00     0.011 A 
HETATM   15  C   UNL     1     -39.612  50.686 -53.343  1.00  0.00     0.024 A 
HETATM   16  C   UNL     1     -39.664  50.964 -51.986  1.00  0.00     0.036 A 
HETATM   17  C   UNL     1     -40.102  52.208 -51.540  1.00  0.00     0.053 A 
HETATM   18 CL   UNL     1     -39.196  49.762 -50.846  1.00  0.00    -0.084 Cl
ENDBRANCH   8  11
ENDBRANCH   6   7
ENDBRANCH   1   6
BRANCH   5  19
HETATM   19  N   UNL     1     -41.592  57.555 -53.368  1.00  0.00    -0.382 N 
HETATM   20  H   UNL     1     -41.328  56.716 -53.893  1.00  0.00     0.157 HD
HETATM   21  H   UNL     1     -41.057  58.375 -53.644  1.00  0.00     0.157 HD
ENDBRANCH   5  19
BRANCH   4  22
HETATM   22  C   UNL     1     -44.225  59.080 -54.344  1.00  0.00     0.275 C 
HETATM   23  N   UNL     1     -45.395  58.788 -55.011  1.00  0.00    -0.351 N 
HETATM   24  H   UNL     1     -45.971  58.036 -54.649  1.00  0.00     0.163 HD
HETATM   25  O   UNL     1     -43.439  59.953 -54.703  1.00  0.00    -0.266 OA
BRANCH  23  26
HETATM   26  C   UNL     1     -45.750  59.407 -56.264  1.00  0.00     0.161 C 
BRANCH  26  27
HETATM   27  C   UNL     1     -45.821  58.468 -57.443  1.00  0.00    -0.040 A 
HETATM   28  C   UNL     1     -47.011  58.117 -58.092  1.00  0.00     0.011 A 
HETATM   29  C   UNL     1     -46.993  57.241 -59.183  1.00  0.00     0.037 A 
HETATM   30  C   UNL     1     -45.793  56.703 -59.652  1.00  0.00     0.068 A 
HETATM   31  C   UNL     1     -44.604  57.044 -59.014  1.00  0.00     0.037 A 
HETATM   32  C   UNL     1     -44.620  57.916 -57.921  1.00  0.00     0.011 A 
BRANCH  30  33
HETATM   33  O   UNL     1     -45.918  55.866 -60.728  1.00  0.00    -0.356 OA
HETATM   34  C   UNL     1     -44.910  54.876 -60.889  1.00  0.00     0.210 C 
ENDBRANCH  30  33
ENDBRANCH  26  27
ENDBRANCH  23  26
ENDBRANCH   4  22
TORSDOF 8
ENDMDL
MODEL 3
REMARK VINA RESULT:      -8.1      1.717      2.610
REMARK  8 active torsions:
REMARK  status: ('A' for Active; 'I' for Inactive)
REMARK    1  A    between atoms: C_3  and  N_4 
REMARK       I    between atoms: N_4  and  C_5 
REMARK    2  A    between atoms: C_5  and  C_6 
REMARK    3  A    between atoms: C_6  and  N_7 
REMARK    4  A    between atoms: C_10  and  C_11 
REMARK       I    between atoms: C_11  and  N_12 
REMARK    5  A    between atoms: N_12  and  C_13 
REMARK    6  A    between atoms: C_13  and  C_14 
REMARK    7  A    between atoms: C_17  and  O_18 
REMARK    8  A    between atoms: C_23  and  N_24 
ROOT
HETATM    1  N   UNL     1     -42.500  58.621 -52.702  1.00  0.00    -0.248 N 
HETATM    2  N   UNL     1     -41.250  59.132 -52.672  1.00  0.00     0.007 NA
HETATM    3  N   UNL     1     -40.923  59.449 -53.916  1.00  0.00    -0.150 NA
HETATM    4  C   UNL     1     -41.986  59.136 -54.739  1.00  0.00     0.186 A 
HETATM    5  C   UNL     1     -43.005  58.588 -53.975  1.00  0.00     0.151 A 
ENDROOT
BRANCH   1   6
HETATM    6  C   UNL     1     -43.109  58.182 -51.469  1.00  0.00     0.251 C 
BRANCH   6   7
HETATM    7  C   UNL     1     -42.916  56.697 -51.257  1.00  0.00     0.241 C 
HETATM    8  N   UNL     1     -41.620  56.263 -51.478  1.00  0.00    -0.325 N 
HETATM    9  H   UNL     1     -40.924  57.001 -51.566  1.00  0.00     0.169 HD
HETATM   10  O   UNL     1     -43.842  56.018 -50.821  1.00  0.00    -0.271 OA
BRANCH   8  11
HETATM   11  C   UNL     1     -41.096  54.954 -51.392  1.00  0.00     0.042 A 
HETATM   12  C   UNL     1     -40.751  54.268 -50.213  1.00  0.00    -0.035 A 
HETATM   13  C   UNL     1     -40.989  54.779 -48.819  1.00  0.00     0.050 C 
HETATM   14  C   UNL     1     -40.188  52.977 -50.317  1.00  0.00     0.011 A 
HETATM   15  C   UNL     1     -40.026  52.351 -51.552  1.00  0.00     0.024 A 
HETATM   16  C   UNL     1     -40.432  53.009 -52.703  1.00  0.00     0.036 A 
HETATM   17  C   UNL     1     -40.970  54.291 -52.627  1.00  0.00     0.053 A 
HETATM   18 CL   UNL     1     -40.261  52.242 -54.234  1.00  0.00    -0.084 Cl
ENDBRANCH   8  11
ENDBRANCH   6   7
ENDBRANCH   1   6
BRANCH   5  19
HETATM   19  N   UNL     1     -44.233  58.121 -54.291  1.00  0.00    -0.382 N 
HETATM   20  H   UNL     1     -44.313  57.166 -54.654  1.00  0.00     0.157 HD
HETATM   21  H   UNL     1     -45.098  58.455 -53.872  1.00  0.00     0.157 HD
ENDBRANCH   5  19
BRANCH   4  22
HETATM   22  C   UNL     1     -41.976  59.371 -56.176  1.00  0.00     0.275 C 
HETATM   23  N   UNL     1     -42.197  58.234 -56.923  1.00  0.00    -0.351 N 
HETATM   24  H   UNL     1     -42.332  57.361 -56.427  1.00  0.00     0.163 HD
HETATM   25  O   UNL     1     -41.778  60.478 -56.668  1.00  0.00    -0.266 OA
BRANCH  23  26
HETATM   26  C   UNL     1     -42.100  58.220 -58.362  1.00  0.00     0.161 C 
BRANCH  26  27
HETATM   27  C   UNL     1     -43.255  57.557 -59.073  1.00  0.00    -0.040 A 
HETATM   28  C   UNL     1     -44.533  58.118 -59.177  1.00  0.00     0.011 A 
HETATM   29  C   UNL     1     -45.553  57.441 -59.857  1.00  0.00     0.037 A 
HETATM   30  C   UNL     1     -45.319  56.199 -60.449  1.00  0.00     0.068 A 
HETATM   31  C   UNL     1     -44.052  55.631 -60.350  1.00  0.00     0.037 A 
HETATM   32  C   UNL     1     -43.033  56.304 -59.668  1.00  0.00     0.011 A 
BRANCH  30  33
HETATM   33  O   UNL     1     -46.399  55.651 -61.086  1.00  0.00    -0.356 OA
HETATM   34  C   UNL     1     -47.511  56.507 -61.313  1.00  0.00     0.210 C 
ENDBRANCH  30  33
ENDBRANCH  26  27
ENDBRANCH  23  26
ENDBRANCH   4  22
TORSDOF 8
ENDMDL
MODEL 4
REMARK VINA RESULT:      -8.0      3.389      7.755
REMARK  8 active torsions:
REMARK  status: ('A' for Active; 'I' for Inactive)
REMARK    1  A    between atoms: C_3  and  N_4 
REMARK       I    between atoms: N_4  and  C_5 
REMARK    2  A    between atoms: C_5  and  C_6 
REMARK    3  A    between atoms: C_6  and  N_7 
REMARK    4  A    between atoms: C_10  and  C_11 
REMARK       I    between atoms: C_11  and  N_12 
REMARK    5  A    between atoms: N_12  and  C_13 
REMARK    6  A    between atoms: C_13  and  C_14 
REMARK    7  A    between atoms: C_17  and  O_18 
REMARK    8  A    between atoms: C_23  and  N_24 
ROOT
HETATM    1  N   UNL     1     -43.061  59.422 -55.129  1.00  0.00    -0.248 N 
HETATM    2  N   UNL     1     -41.774  59.830 -55.180  1.00  0.00     0.007 NA
HETATM    3  N   UNL     1     -41.143  59.278 -54.154  1.00  0.00    -0.150 NA
HETATM    4  C   UNL     1     -42.048  58.508 -53.450  1.00  0.00     0.186 A 
HETATM    5  C   UNL     1     -43.291  58.601 -54.057  1.00  0.00     0.151 A 
ENDROOT
BRANCH   1   6
HETATM    6  C   UNL     1     -43.985  59.884 -56.137  1.00  0.00     0.251 C 
BRANCH   6   7
HETATM    7  C   UNL     1     -43.853  59.084 -57.414  1.00  0.00     0.241 C 
HETATM    8  N   UNL     1     -44.667  57.965 -57.460  1.00  0.00    -0.325 N 
HETATM    9  H   UNL     1     -45.380  57.916 -56.736  1.00  0.00     0.169 HD
HETATM   10  O   UNL     1     -43.152  59.507 -58.329  1.00  0.00    -0.271 OA
BRANCH   8  11
HETATM   11  C   UNL     1     -44.784  56.995 -58.480  1.00  0.00     0.042 A 
HETATM   12  C   UNL     1     -43.928  55.897 -58.691  1.00  0.00    -0.035 A 
HETATM   13  C   UNL     1     -42.792  55.505 -57.787  1.00  0.00     0.050 C 
HETATM   14  C   UNL     1     -44.166  55.052 -59.798  1.00  0.00     0.011 A 
HETATM   15  C   UNL     1     -45.258  55.248 -60.641  1.00  0.00     0.024 A 
HETATM   16  C   UNL     1     -46.133  56.292 -60.385  1.00  0.00     0.036 A 
HETATM   17  C   UNL     1     -45.907  57.151 -59.313  1.00  0.00     0.053 A 
HETATM   18 CL   UNL     1     -47.500  56.534 -61.402  1.00  0.00    -0.084 Cl
ENDBRANCH   8  11
ENDBRANCH   6   7
ENDBRANCH   1   6
BRANCH   5  19
HETATM   19  N   UNL     1     -44.492  58.054 -53.765  1.00  0.00    -0.382 N 
HETATM   20  H   UNL     1     -44.687  57.103 -54.091  1.00  0.00     0.157 HD
HETATM   21  H   UNL     1     -45.062  58.319 -52.965  1.00  0.00     0.157 HD
ENDBRANCH   5  19
BRANCH   4  22
HETATM   22  C   UNL     1     -41.688  57.741 -52.266  1.00  0.00     0.275 C 
HETATM   23  N   UNL     1     -41.520  56.395 -52.510  1.00  0.00    -0.351 N 
HETATM   24  H   UNL     1     -41.664  56.064 -53.457  1.00  0.00     0.163 HD
HETATM   25  O   UNL     1     -41.562  58.250 -51.156  1.00  0.00    -0.266 OA
BRANCH  23  26
HETATM   26  C   UNL     1     -41.290  55.438 -51.456  1.00  0.00     0.161 C 
BRANCH  26  27
HETATM   27  C   UNL     1     -40.766  54.098 -51.914  1.00  0.00    -0.040 A 
HETATM   28  C   UNL     1     -40.242  53.128 -51.051  1.00  0.00     0.011 A 
HETATM   29  C   UNL     1     -39.778  51.907 -51.553  1.00  0.00     0.037 A 
HETATM   30  C   UNL     1     -39.833  51.625 -52.919  1.00  0.00     0.068 A 
HETATM   31  C   UNL     1     -40.351  52.582 -53.787  1.00  0.00     0.037 A 
HETATM   32  C   UNL     1     -40.811  53.806 -53.287  1.00  0.00     0.011 A 
BRANCH  30  33
HETATM   33  O   UNL     1     -39.354  50.394 -53.274  1.00  0.00    -0.356 OA
HETATM   34  C   UNL     1     -39.740  49.899 -54.550  1.00  0.00     0.210 C 
ENDBRANCH  30  33
ENDBRANCH  26  27
ENDBRANCH  23  26
ENDBRANCH   4  22
TORSDOF 8
ENDMDL
MODEL 5
REMARK VINA RESULT:      -7.8      3.265      7.948
REMARK  8 active torsions:
REMARK  status: ('A' for Active; 'I' for Inactive)
REMARK    1  A    between atoms: C_3  and  N_4 
REMARK       I    between atoms: N_4  and  C_5 
REMARK    2  A    between atoms: C_5  and  C_6 
REMARK    3  A    between atoms: C_6  and  N_7 
REMARK    4  A    between atoms: C_10  and  C_11 
REMARK       I    between atoms: C_11  and  N_12 
REMARK    5  A    between atoms: N_12  and  C_13 
REMARK    6  A    between atoms: C_13  and  C_14 
REMARK    7  A    between atoms: C_17  and  O_18 
REMARK    8  A    between atoms: C_23  and  N_24 
ROOT
HETATM    1  N   UNL     1     -42.828  58.213 -52.740  1.00  0.00    -0.248 N 
HETATM    2  N   UNL     1     -41.879  58.693 -51.907  1.00  0.00     0.007 NA
HETATM    3  N   UNL     1     -41.571  57.724 -51.059  1.00  0.00    -0.150 NA
HETATM    4  C   UNL     1     -42.336  56.616 -51.366  1.00  0.00     0.186 A 
HETATM    5  C   UNL     1     -43.162  56.919 -52.437  1.00  0.00     0.151 A 
ENDROOT
BRANCH   1   6
HETATM    6  C   UNL     1     -43.357  59.072 -53.772  1.00  0.00     0.251 C 
BRANCH   6   7
HETATM    7  C   UNL     1     -42.637  58.862 -55.086  1.00  0.00     0.241 C 
HETATM    8  N   UNL     1     -43.404  58.232 -56.050  1.00  0.00    -0.325 N 
HETATM    9  H   UNL     1     -44.397  58.157 -55.836  1.00  0.00     0.169 HD
HETATM   10  O   UNL     1     -41.514  59.333 -55.248  1.00  0.00    -0.271 OA
BRANCH   8  11
HETATM   11  C   UNL     1     -43.048  57.865 -57.367  1.00  0.00     0.042 A 
HETATM   12  C   UNL     1     -42.833  56.557 -57.841  1.00  0.00    -0.035 A 
HETATM   13  C   UNL     1     -43.057  55.304 -57.040  1.00  0.00     0.050 C 
HETATM   14  C   UNL     1     -42.429  56.377 -59.182  1.00  0.00     0.011 A 
HETATM   15  C   UNL     1     -42.300  57.457 -60.055  1.00  0.00     0.024 A 
HETATM   16  C   UNL     1     -42.580  58.735 -59.596  1.00  0.00     0.036 A 
HETATM   17  C   UNL     1     -42.958  58.939 -58.272  1.00  0.00     0.053 A 
HETATM   18 CL   UNL     1     -42.449  60.077 -60.666  1.00  0.00    -0.084 Cl
ENDBRANCH   8  11
ENDBRANCH   6   7
ENDBRANCH   1   6
BRANCH   5  19
HETATM   19  N   UNL     1     -44.088  56.199 -53.109  1.00  0.00    -0.382 N 
HETATM   20  H   UNL     1     -44.132  56.290 -54.128  1.00  0.00     0.157 HD
HETATM   21  H   UNL     1     -44.481  55.321 -52.777  1.00  0.00     0.157 HD
ENDBRANCH   5  19
BRANCH   4  22
HETATM   22  C   UNL     1     -42.242  55.357 -50.641  1.00  0.00     0.275 C 
HETATM   23  N   UNL     1     -40.951  55.003 -50.314  1.00  0.00    -0.351 N 
HETATM   24  H   UNL     1     -40.202  55.623 -50.604  1.00  0.00     0.163 HD
HETATM   25  O   UNL     1     -43.224  54.675 -50.361  1.00  0.00    -0.266 OA
BRANCH  23  26
HETATM   26  C   UNL     1     -40.622  53.735 -49.712  1.00  0.00     0.161 C 
BRANCH  26  27
HETATM   27  C   UNL     1     -40.298  52.629 -50.687  1.00  0.00    -0.040 A 
HETATM   28  C   UNL     1     -40.128  52.826 -52.063  1.00  0.00     0.011 A 
HETATM   29  C   UNL     1     -39.826  51.748 -52.902  1.00  0.00     0.037 A 
HETATM   30  C   UNL     1     -39.681  50.458 -52.390  1.00  0.00     0.068 A 
HETATM   31  C   UNL     1     -39.849  50.250 -51.024  1.00  0.00     0.037 A 
HETATM   32  C   UNL     1     -40.155  51.326 -50.183  1.00  0.00     0.011 A 
BRANCH  30  33
HETATM   33  O   UNL     1     -39.379  49.499 -53.318  1.00  0.00    -0.356 OA
HETATM   34  C   UNL     1     -39.821  49.735 -54.649  1.00  0.00     0.210 C 
ENDBRANCH  30  33
ENDBRANCH  26  27
ENDBRANCH  23  26
ENDBRANCH   4  22
TORSDOF 8
ENDMDL
MODEL 6
REMARK VINA RESULT:      -7.8      3.102      8.006
REMARK  8 active torsions:
REMARK  status: ('A' for Active; 'I' for Inactive)
REMARK    1  A    between atoms: C_3  and  N_4 
REMARK       I    between atoms: N_4  and  C_5 
REMARK    2  A    between atoms: C_5  and  C_6 
REMARK    3  A    between atoms: C_6  and  N_7 
REMARK    4  A    between atoms: C_10  and  C_11 
REMARK       I    between atoms: C_11  and  N_12 
REMARK    5  A    between atoms: N_12  and  C_13 
REMARK    6  A    between atoms: C_13  and  C_14 
REMARK    7  A    between atoms: C_17  and  O_18 
REMARK    8  A    between atoms: C_23  and  N_24 
ROOT
HETATM    1  N   UNL     1     -42.180  59.895 -53.574  1.00  0.00    -0.248 N 
HETATM    2  N   UNL     1     -40.906  59.458 -53.675  1.00  0.00     0.007 NA
HETATM    3  N   UNL     1     -40.816  58.336 -52.977  1.00  0.00    -0.150 NA
HETATM    4  C   UNL     1     -42.055  58.061 -52.433  1.00  0.00     0.186 A 
HETATM    5  C   UNL     1     -42.941  59.063 -52.796  1.00  0.00     0.151 A 
ENDROOT
BRANCH   1   6
HETATM    6  C   UNL     1     -42.559  61.117 -54.242  1.00  0.00     0.251 C 
BRANCH   6   7
HETATM    7  C   UNL     1     -42.945  60.861 -55.682  1.00  0.00     0.241 C 
HETATM    8  N   UNL     1     -41.871  60.584 -56.509  1.00  0.00    -0.325 N 
HETATM    9  H   UNL     1     -40.991  60.398 -56.032  1.00  0.00     0.169 HD
HETATM   10  O   UNL     1     -44.132  60.810 -55.995  1.00  0.00    -0.271 OA
BRANCH   8  11
HETATM   11  C   UNL     1     -41.865  60.319 -57.897  1.00  0.00     0.042 A 
HETATM   12  C   UNL     1     -41.697  61.264 -58.927  1.00  0.00    -0.035 A 
HETATM   13  C   UNL     1     -41.382  62.719 -58.717  1.00  0.00     0.050 C 
HETATM   14  C   UNL     1     -41.771  60.829 -60.268  1.00  0.00     0.011 A 
HETATM   15  C   UNL     1     -41.944  59.483 -60.588  1.00  0.00     0.024 A 
HETATM   16  C   UNL     1     -42.040  58.551 -59.566  1.00  0.00     0.036 A 
HETATM   17  C   UNL     1     -41.992  58.960 -58.236  1.00  0.00     0.053 A 
HETATM   18 CL   UNL     1     -42.230  56.883 -59.943  1.00  0.00    -0.084 Cl
ENDBRANCH   8  11
ENDBRANCH   6   7
ENDBRANCH   1   6
BRANCH   5  19
HETATM   19  N   UNL     1     -44.251  59.266 -52.526  1.00  0.00    -0.382 N 
HETATM   20  H   UNL     1     -44.918  59.240 -53.302  1.00  0.00     0.157 HD
HETATM   21  H   UNL     1     -44.686  59.072 -51.627  1.00  0.00     0.157 HD
ENDBRANCH   5  19
BRANCH   4  22
HETATM   22  C   UNL     1     -42.323  56.886 -51.616  1.00  0.00     0.275 C 
HETATM   23  N   UNL     1     -41.202  56.130 -51.351  1.00  0.00    -0.351 N 
HETATM   24  H   UNL     1     -40.319  56.440 -51.741  1.00  0.00     0.163 HD
HETATM   25  O   UNL     1     -43.447  56.596 -51.215  1.00  0.00    -0.266 OA
BRANCH  23  26
HETATM   26  C   UNL     1     -41.264  54.860 -50.671  1.00  0.00     0.161 C 
BRANCH  26  27
HETATM   27  C   UNL     1     -40.710  53.691 -51.449  1.00  0.00    -0.040 A 
HETATM   28  C   UNL     1     -40.069  52.594 -50.861  1.00  0.00     0.011 A 
HETATM   29  C   UNL     1     -39.585  51.547 -51.652  1.00  0.00     0.037 A 
HETATM   30  C   UNL     1     -39.734  51.566 -53.040  1.00  0.00     0.068 A 
HETATM   31  C   UNL     1     -40.368  52.652 -53.636  1.00  0.00     0.037 A 
HETATM   32  C   UNL     1     -40.850  53.703 -52.847  1.00  0.00     0.011 A 
BRANCH  30  33
HETATM   33  O   UNL     1     -39.221  50.478 -53.691  1.00  0.00    -0.356 OA
HETATM   34  C   UNL     1     -40.049  49.871 -54.675  1.00  0.00     0.210 C 
ENDBRANCH  30  33
ENDBRANCH  26  27
ENDBRANCH  23  26
ENDBRANCH   4  22
TORSDOF 8
ENDMDL
MODEL 7
REMARK VINA RESULT:      -7.8      2.885      7.360
REMARK  8 active torsions:
REMARK  status: ('A' for Active; 'I' for Inactive)
REMARK    1  A    between atoms: C_3  and  N_4 
REMARK       I    between atoms: N_4  and  C_5 
REMARK    2  A    between atoms: C_5  and  C_6 
REMARK    3  A    between atoms: C_6  and  N_7 
REMARK    4  A    between atoms: C_10  and  C_11 
REMARK       I    between atoms: C_11  and  N_12 
REMARK    5  A    between atoms: N_12  and  C_13 
REMARK    6  A    between atoms: C_13  and  C_14 
REMARK    7  A    between atoms: C_17  and  O_18 
REMARK    8  A    between atoms: C_23  and  N_24 
ROOT
HETATM    1  N   UNL     1     -43.888  59.229 -53.741  1.00  0.00    -0.248 N 
HETATM    2  N   UNL     1     -42.758  59.965 -53.816  1.00  0.00     0.007 NA
HETATM    3  N   UNL     1     -41.864  59.400 -53.018  1.00  0.00    -0.150 NA
HETATM    4  C   UNL     1     -42.441  58.290 -52.435  1.00  0.00     0.186 A 
HETATM    5  C   UNL     1     -43.749  58.173 -52.879  1.00  0.00     0.151 A 
ENDROOT
BRANCH   1   6
HETATM    6  C   UNL     1     -45.040  59.627 -54.514  1.00  0.00     0.251 C 
BRANCH   6   7
HETATM    7  C   UNL     1     -44.840  59.344 -55.986  1.00  0.00     0.241 C 
HETATM    8  N   UNL     1     -43.756  58.527 -56.257  1.00  0.00    -0.325 N 
HETATM    9  H   UNL     1     -43.345  58.067 -55.447  1.00  0.00     0.169 HD
HETATM   10  O   UNL     1     -45.667  59.743 -56.802  1.00  0.00    -0.271 OA
BRANCH   8  11
HETATM   11  C   UNL     1     -43.271  58.081 -57.508  1.00  0.00     0.042 A 
HETATM   12  C   UNL     1     -42.332  58.739 -58.323  1.00  0.00    -0.035 A 
HETATM   13  C   UNL     1     -41.592  59.993 -57.944  1.00  0.00     0.050 C 
HETATM   14  C   UNL     1     -41.999  58.172 -59.572  1.00  0.00     0.011 A 
HETATM   15  C   UNL     1     -42.533  56.951 -59.983  1.00  0.00     0.024 A 
HETATM   16  C   UNL     1     -43.406  56.278 -59.142  1.00  0.00     0.036 A 
HETATM   17  C   UNL     1     -43.766  56.828 -57.915  1.00  0.00     0.053 A 
HETATM   18 CL   UNL     1     -44.057  54.759 -59.622  1.00  0.00    -0.084 Cl
ENDBRANCH   8  11
ENDBRANCH   6   7
ENDBRANCH   1   6
BRANCH   5  19
HETATM   19  N   UNL     1     -44.727  57.278 -52.613  1.00  0.00    -0.382 N 
HETATM   20  H   UNL     1     -44.821  56.929 -51.654  1.00  0.00     0.157 HD
HETATM   21  H   UNL     1     -45.591  57.199 -53.145  1.00  0.00     0.157 HD
ENDBRANCH   5  19
BRANCH   4  22
HETATM   22  C   UNL     1     -41.732  57.418 -51.510  1.00  0.00     0.275 C 
HETATM   23  N   UNL     1     -41.656  56.109 -51.933  1.00  0.00    -0.351 N 
HETATM   24  H   UNL     1     -42.092  55.870 -52.817  1.00  0.00     0.163 HD
HETATM   25  O   UNL     1     -41.260  57.816 -50.449  1.00  0.00    -0.266 OA
BRANCH  23  26
HETATM   26  C   UNL     1     -41.112  55.057 -51.110  1.00  0.00     0.161 C 
BRANCH  26  27
HETATM   27  C   UNL     1     -40.598  53.855 -51.867  1.00  0.00    -0.040 A 
HETATM   28  C   UNL     1     -40.699  53.705 -53.255  1.00  0.00     0.011 A 
HETATM   29  C   UNL     1     -40.194  52.561 -53.883  1.00  0.00     0.037 A 
HETATM   30  C   UNL     1     -39.575  51.550 -53.146  1.00  0.00     0.068 A 
HETATM   31  C   UNL     1     -39.471  51.688 -51.765  1.00  0.00     0.037 A 
HETATM   32  C   UNL     1     -39.978  52.829 -51.134  1.00  0.00     0.011 A 
BRANCH  30  33
HETATM   33  O   UNL     1     -39.122  50.491 -53.885  1.00  0.00    -0.356 OA
HETATM   34  C   UNL     1     -40.091  49.778 -54.642  1.00  0.00     0.210 C 
ENDBRANCH  30  33
ENDBRANCH  26  27
ENDBRANCH  23  26
ENDBRANCH   4  22
TORSDOF 8
ENDMDL
MODEL 8
REMARK VINA RESULT:      -7.7      5.496      9.040
REMARK  8 active torsions:
REMARK  status: ('A' for Active; 'I' for Inactive)
REMARK    1  A    between atoms: C_3  and  N_4 
REMARK       I    between atoms: N_4  and  C_5 
REMARK    2  A    between atoms: C_5  and  C_6 
REMARK    3  A    between atoms: C_6  and  N_7 
REMARK    4  A    between atoms: C_10  and  C_11 
REMARK       I    between atoms: C_11  and  N_12 
REMARK    5  A    between atoms: N_12  and  C_13 
REMARK    6  A    between atoms: C_13  and  C_14 
REMARK    7  A    between atoms: C_17  and  O_18 
REMARK    8  A    between atoms: C_23  and  N_24 
ROOT
HETATM    1  N   UNL     1     -43.106  59.042 -52.276  1.00  0.00    -0.248 N 
HETATM    2  N   UNL     1     -42.532  60.212 -51.919  1.00  0.00     0.007 NA
HETATM    3  N   UNL     1     -43.283  60.746 -50.967  1.00  0.00    -0.150 NA
HETATM    4  C   UNL     1     -44.342  59.896 -50.719  1.00  0.00     0.186 A 
HETATM    5  C   UNL     1     -44.251  58.800 -51.563  1.00  0.00     0.151 A 
ENDROOT
BRANCH   1   6
HETATM    6  C   UNL     1     -42.492  58.245 -53.311  1.00  0.00     0.251 C 
BRANCH   6   7
HETATM    7  C   UNL     1     -41.465  57.294 -52.738  1.00  0.00     0.241 C 
HETATM    8  N   UNL     1     -41.920  55.994 -52.599  1.00  0.00    -0.325 N 
HETATM    9  H   UNL     1     -42.803  55.791 -53.065  1.00  0.00     0.169 HD
HETATM   10  O   UNL     1     -40.316  57.683 -52.541  1.00  0.00    -0.271 OA
BRANCH   8  11
HETATM   11  C   UNL     1     -41.241  54.866 -52.086  1.00  0.00     0.042 A 
HETATM   12  C   UNL     1     -40.889  54.643 -50.742  1.00  0.00    -0.035 A 
HETATM   13  C   UNL     1     -41.278  55.531 -49.592  1.00  0.00     0.050 C 
HETATM   14  C   UNL     1     -40.163  53.478 -50.413  1.00  0.00     0.011 A 
HETATM   15  C   UNL     1     -39.845  52.522 -51.377  1.00  0.00     0.024 A 
HETATM   16  C   UNL     1     -40.255  52.719 -52.687  1.00  0.00     0.036 A 
HETATM   17  C   UNL     1     -40.954  53.872 -53.039  1.00  0.00     0.053 A 
HETATM   18 CL   UNL     1     -39.891  51.539 -53.885  1.00  0.00    -0.084 Cl
ENDBRANCH   8  11
ENDBRANCH   6   7
ENDBRANCH   1   6
BRANCH   5  19
HETATM   19  N   UNL     1     -45.025  57.703 -51.722  1.00  0.00    -0.382 N 
HETATM   20  H   UNL     1     -46.042  57.811 -51.666  1.00  0.00     0.157 HD
HETATM   21  H   UNL     1     -44.747  56.878 -52.250  1.00  0.00     0.157 HD
ENDBRANCH   5  19
BRANCH   4  22
HETATM   22  C   UNL     1     -45.360  60.165 -49.714  1.00  0.00     0.275 C 
HETATM   23  N   UNL     1     -45.412  61.484 -49.320  1.00  0.00    -0.351 N 
HETATM   24  H   UNL     1     -44.755  62.131 -49.741  1.00  0.00     0.163 HD
HETATM   25  O   UNL     1     -46.091  59.290 -49.256  1.00  0.00    -0.266 OA
BRANCH  23  26
HETATM   26  C   UNL     1     -46.257  61.941 -48.244  1.00  0.00     0.161 C 
BRANCH  26  27
HETATM   27  C   UNL     1     -45.601  61.970 -46.885  1.00  0.00    -0.040 A 
HETATM   28  C   UNL     1     -45.022  60.852 -46.272  1.00  0.00     0.011 A 
HETATM   29  C   UNL     1     -44.430  60.961 -45.009  1.00  0.00     0.037 A 
HETATM   30  C   UNL     1     -44.396  62.183 -44.335  1.00  0.00     0.068 A 
HETATM   31  C   UNL     1     -44.969  63.301 -44.934  1.00  0.00     0.037 A 
HETATM   32  C   UNL     1     -45.566  63.193 -46.195  1.00  0.00     0.011 A 
BRANCH  30  33
HETATM   33  O   UNL     1     -43.781  62.151 -43.113  1.00  0.00    -0.356 OA
HETATM   34  C   UNL     1     -43.172  63.357 -42.671  1.00  0.00     0.210 C 
ENDBRANCH  30  33
ENDBRANCH  26  27
ENDBRANCH  23  26
ENDBRANCH   4  22
TORSDOF 8
ENDMDL
MODEL 9
REMARK VINA RESULT:      -7.6      4.686      7.822
REMARK  8 active torsions:
REMARK  status: ('A' for Active; 'I' for Inactive)
REMARK    1  A    between atoms: C_3  and  N_4 
REMARK       I    between atoms: N_4  and  C_5 
REMARK    2  A    between atoms: C_5  and  C_6 
REMARK    3  A    between atoms: C_6  and  N_7 
REMARK    4  A    between atoms: C_10  and  C_11 
REMARK       I    between atoms: C_11  and  N_12 
REMARK    5  A    between atoms: N_12  and  C_13 
REMARK    6  A    between atoms: C_13  and  C_14 
REMARK    7  A    between atoms: C_17  and  O_18 
REMARK    8  A    between atoms: C_23  and  N_24 
ROOT
HETATM    1  N   UNL     1     -42.887  57.364 -53.354  1.00  0.00    -0.248 N 
HETATM    2  N   UNL     1     -44.019  57.247 -52.626  1.00  0.00     0.007 NA
HETATM    3  N   UNL     1     -44.027  58.236 -51.745  1.00  0.00    -0.150 NA
HETATM    4  C   UNL     1     -42.884  58.989 -51.925  1.00  0.00     0.186 A 
HETATM    5  C   UNL     1     -42.132  58.433 -52.948  1.00  0.00     0.151 A 
ENDROOT
BRANCH   1   6
HETATM    6  C   UNL     1     -42.617  56.401 -54.394  1.00  0.00     0.251 C 
BRANCH   6   7
HETATM    7  C   UNL     1     -41.463  55.497 -54.022  1.00  0.00     0.241 C 
HETATM    8  N   UNL     1     -41.853  54.288 -53.472  1.00  0.00    -0.325 N 
HETATM    9  H   UNL     1     -42.844  54.072 -53.556  1.00  0.00     0.169 HD
HETATM   10  O   UNL     1     -40.315  55.823 -54.312  1.00  0.00    -0.271 OA
BRANCH   8  11
HETATM   11  C   UNL     1     -41.048  53.228 -52.999  1.00  0.00     0.042 A 
HETATM   12  C   UNL     1     -40.536  53.084 -51.695  1.00  0.00    -0.035 A 
HETATM   13  C   UNL     1     -40.856  53.993 -50.541  1.00  0.00     0.050 C 
HETATM   14  C   UNL     1     -39.702  51.981 -51.410  1.00  0.00     0.011 A 
HETATM   15  C   UNL     1     -39.428  51.008 -52.370  1.00  0.00     0.024 A 
HETATM   16  C   UNL     1     -39.992  51.123 -53.631  1.00  0.00     0.036 A 
HETATM   17  C   UNL     1     -40.801  52.214 -53.942  1.00  0.00     0.053 A 
HETATM   18 CL   UNL     1     -39.684  49.919 -54.821  1.00  0.00    -0.084 Cl
ENDBRANCH   8  11
ENDBRANCH   6   7
ENDBRANCH   1   6
BRANCH   5  19
HETATM   19  N   UNL     1     -40.948  58.778 -53.502  1.00  0.00    -0.382 N 
HETATM   20  H   UNL     1     -40.932  59.046 -54.490  1.00  0.00     0.157 HD
HETATM   21  H   UNL     1     -40.160  59.156 -52.980  1.00  0.00     0.157 HD
ENDBRANCH   5  19
BRANCH   4  22
HETATM   22  C   UNL     1     -42.577  60.172 -51.133  1.00  0.00     0.275 C 
HETATM   23  N   UNL     1     -43.607  61.085 -51.083  1.00  0.00    -0.351 N 
HETATM   24  H   UNL     1     -44.458  60.869 -51.591  1.00  0.00     0.163 HD
HETATM   25  O   UNL     1     -41.495  60.338 -50.576  1.00  0.00    -0.266 OA
BRANCH  23  26
HETATM   26  C   UNL     1     -43.468  62.380 -50.463  1.00  0.00     0.161 C 
BRANCH  26  27
HETATM   27  C   UNL     1     -44.175  62.533 -49.138  1.00  0.00    -0.040 A 
HETATM   28  C   UNL     1     -44.333  63.755 -48.473  1.00  0.00     0.011 A 
HETATM   29  C   UNL     1     -45.005  63.815 -47.247  1.00  0.00     0.037 A 
HETATM   30  C   UNL     1     -45.536  62.664 -46.662  1.00  0.00     0.068 A 
HETATM   31  C   UNL     1     -45.384  61.444 -47.313  1.00  0.00     0.037 A 
HETATM   32  C   UNL     1     -44.709  61.381 -48.537  1.00  0.00     0.011 A 
BRANCH  30  33
HETATM   33  O   UNL     1     -46.173  62.865 -45.468  1.00  0.00    -0.356 OA
HETATM   34  C   UNL     1     -47.371  63.630 -45.502  1.00  0.00     0.210 C 
ENDBRANCH  30  33
ENDBRANCH  26  27
ENDBRANCH  23  26
ENDBRANCH   4  22
TORSDOF 8
ENDMDL
MODEL 10
REMARK VINA RESULT:      -7.6      2.620      7.760
REMARK  8 active torsions:
REMARK  status: ('A' for Active; 'I' for Inactive)
REMARK    1  A    between atoms: C_3  and  N_4 
REMARK       I    between atoms: N_4  and  C_5 
REMARK    2  A    between atoms: C_5  and  C_6 
REMARK    3  A    between atoms: C_6  and  N_7 
REMARK    4  A    between atoms: C_10  and  C_11 
REMARK       I    between atoms: C_11  and  N_12 
REMARK    5  A    between atoms: N_12  and  C_13 
REMARK    6  A    between atoms: C_13  and  C_14 
REMARK    7  A    between atoms: C_17  and  O_18 
REMARK    8  A    between atoms: C_23  and  N_24 
ROOT
HETATM    1  N   UNL     1     -42.240  58.027 -53.452  1.00  0.00    -0.248 N 
HETATM    2  N   UNL     1     -43.031  58.553 -52.491  1.00  0.00     0.007 NA
HETATM    3  N   UNL     1     -43.147  57.646 -51.533  1.00  0.00    -0.150 NA
HETATM    4  C   UNL     1     -42.415  56.533 -51.896  1.00  0.00     0.186 A 
HETATM    5  C   UNL     1     -41.836  56.756 -53.136  1.00  0.00     0.151 A 
ENDROOT
BRANCH   1   6
HETATM    6  C   UNL     1     -41.949  58.809 -54.629  1.00  0.00     0.251 C 
BRANCH   6   7
HETATM    7  C   UNL     1     -42.871  58.448 -55.773  1.00  0.00     0.241 C 
HETATM    8  N   UNL     1     -42.223  57.885 -56.859  1.00  0.00    -0.325 N 
HETATM    9  H   UNL     1     -41.257  57.609 -56.693  1.00  0.00     0.169 HD
HETATM   10  O   UNL     1     -44.086  58.568 -55.638  1.00  0.00    -0.271 OA
BRANCH   8  11
HETATM   11  C   UNL     1     -42.765  57.453 -58.090  1.00  0.00     0.042 A 
HETATM   12  C   UNL     1     -42.865  58.212 -59.271  1.00  0.00    -0.035 A 
HETATM   13  C   UNL     1     -42.304  59.595 -59.455  1.00  0.00     0.050 C 
HETATM   14  C   UNL     1     -43.486  57.634 -60.400  1.00  0.00     0.011 A 
HETATM   15  C   UNL     1     -43.943  56.317 -60.385  1.00  0.00     0.024 A 
HETATM   16  C   UNL     1     -43.778  55.556 -59.238  1.00  0.00     0.036 A 
HETATM   17  C   UNL     1     -43.188  56.111 -58.105  1.00  0.00     0.053 A 
HETATM   18 CL   UNL     1     -44.314  53.921 -59.210  1.00  0.00    -0.084 Cl
ENDBRANCH   8  11
ENDBRANCH   6   7
ENDBRANCH   1   6
BRANCH   5  19
HETATM   19  N   UNL     1     -41.042  55.996 -53.924  1.00  0.00    -0.382 N 
HETATM   20  H   UNL     1     -41.380  55.073 -54.211  1.00  0.00     0.157 HD
HETATM   21  H   UNL     1     -40.337  56.369 -54.555  1.00  0.00     0.157 HD
ENDBRANCH   5  19
BRANCH   4  22
HETATM   22  C   UNL     1     -42.306  55.345 -51.063  1.00  0.00     0.275 C 
HETATM   23  N   UNL     1     -41.018  55.069 -50.659  1.00  0.00    -0.351 N 
HETATM   24  H   UNL     1     -40.280  55.689 -50.974  1.00  0.00     0.163 HD
HETATM   25  O   UNL     1     -43.274  54.652 -50.761  1.00  0.00    -0.266 OA
BRANCH  23  26
HETATM   26  C   UNL     1     -40.669  53.870 -49.938  1.00  0.00     0.161 C 
BRANCH  26  27
HETATM   27  C   UNL     1     -40.331  52.680 -50.802  1.00  0.00    -0.040 A 
HETATM   28  C   UNL     1     -40.150  51.382 -50.308  1.00  0.00     0.011 A 
HETATM   29  C   UNL     1     -39.841  50.329 -51.176  1.00  0.00     0.037 A 
HETATM   30  C   UNL     1     -39.711  50.544 -52.549  1.00  0.00     0.068 A 
HETATM   31  C   UNL     1     -39.888  51.830 -53.051  1.00  0.00     0.037 A 
HETATM   32  C   UNL     1     -40.193  52.886 -52.185  1.00  0.00     0.011 A 
BRANCH  30  33
HETATM   33  O   UNL     1     -39.413  49.428 -53.283  1.00  0.00    -0.356 OA
HETATM   34  C   UNL     1     -39.537  49.538 -54.695  1.00  0.00     0.210 C 
ENDBRANCH  30  33
ENDBRANCH  26  27
ENDBRANCH  23  26
ENDBRANCH   4  22
TORSDOF 8
ENDMDL
