MODEL 1
REMARK VINA RESULT:      -8.7      0.000      0.000
REMARK  9 active torsions:
REMARK  status: ('A' for Active; 'I' for Inactive)
REMARK    1  A    between atoms: C_2  and  C_3 
REMARK    2  A    between atoms: C_3  and  O_4 
REMARK    3  A    between atoms: O_4  and  C_5 
REMARK    4  A    between atoms: C_7  and  C_8 
REMARK       I    between atoms: C_8  and  N_9 
REMARK    5  A    between atoms: N_9  and  C_10 
REMARK    6  A    between atoms: C_10  and  N_11 
REMARK    7  A    between atoms: N_11  and  C_12 
REMARK    8  A    between atoms: C_14  and  O_15 
REMARK    9  A    between atoms: C_16  and  C_17 
ROOT
HETATM    1  C   UNL     1     -44.663  57.699 -53.850  1.00  0.00     0.036 A 
HETATM    2  C   UNL     1     -44.590  57.099 -52.594  1.00  0.00     0.067 A 
HETATM    3  C   UNL     1     -44.811  57.845 -51.430  1.00  0.00     0.082 A 
HETATM    4  C   UNL     1     -45.122  59.211 -51.492  1.00  0.00     0.050 A 
HETATM    5  C   UNL     1     -45.258  59.786 -52.769  1.00  0.00     0.021 A 
HETATM    6  C   UNL     1     -45.054  59.034 -53.937  1.00  0.00     0.030 A 
ENDROOT
BRANCH   1   7
HETATM    7  N   UNL     1     -44.400  56.995 -55.044  1.00  0.00    -0.333 N 
HETATM    8  H   UNL     1     -45.212  56.740 -55.609  1.00  0.00     0.168 HD
BRANCH   7   9
HETATM    9  C   UNL     1     -43.195  56.790 -55.677  1.00  0.00     0.179 C 
HETATM   10  S   UNL     1     -42.562  57.578 -57.014  1.00  0.00    -0.040 SA
BRANCH   9  11
HETATM   11  N   UNL     1     -42.407  55.790 -55.150  1.00  0.00    -0.299 N 
HETATM   12  C   UNL     1     -42.675  54.436 -55.012  1.00  0.00     0.257 C 
HETATM   13  O   UNL     1     -43.506  53.831 -55.680  1.00  0.00    -0.267 OA
HETATM   14  H   UNL     1     -41.561  56.151 -54.729  1.00  0.00     0.171 HD
BRANCH  12  15
HETATM   15  C   UNL     1     -41.788  53.725 -54.050  1.00  0.00     0.035 A 
HETATM   16  C   UNL     1     -41.935  53.905 -52.669  1.00  0.00     0.053 A 
HETATM   17  C   UNL     1     -41.061  53.289 -51.773  1.00  0.00     0.069 A 
HETATM   18  C   UNL     1     -40.062  52.445 -52.257  1.00  0.00     0.037 A 
HETATM   19  C   UNL     1     -39.936  52.230 -53.636  1.00  0.00     0.004 A 
HETATM   20  C   UNL     1     -40.796  52.867 -54.533  1.00  0.00     0.017 A 
BRANCH  17  21
HETATM   21  O   UNL     1     -41.304  53.578 -50.461  1.00  0.00    -0.351 OA
BRANCH  21  22
HETATM   22  C   UNL     1     -42.192  54.664 -50.190  1.00  0.00     0.175 C 
BRANCH  22  23
HETATM   23  C   UNL     1     -41.366  55.776 -49.551  1.00  0.00     0.022 C 
HETATM   24  C   UNL     1     -41.115  56.925 -50.510  1.00  0.00     0.007 C 
ENDBRANCH  22  23
ENDBRANCH  21  22
ENDBRANCH  17  21
ENDBRANCH  12  15
ENDBRANCH   9  11
ENDBRANCH   7   9
ENDBRANCH   1   7
BRANCH   3  25
HETATM   25  O   UNL     1     -44.698  57.201 -50.226  1.00  0.00    -0.360 OA
HETATM   26  H   UNL     1     -43.880  56.678 -50.210  1.00  0.00     0.217 HD
ENDBRANCH   3  25
BRANCH   4  27
HETATM   27  C   UNL     1     -45.258  60.074 -50.316  1.00  0.00     0.183 A 
HETATM   28  O   UNL     1     -45.778  59.510 -49.179  1.00  0.00    -0.288 OA
HETATM   29  C   UNL     1     -45.693  60.490 -48.238  1.00  0.00     0.112 A 
HETATM   30  C   UNL     1     -45.155  61.608 -48.851  1.00  0.00     0.094 A 
HETATM   31  C   UNL     1     -46.059  60.401 -46.897  1.00  0.00    -0.025 A 
HETATM   32  N   UNL     1     -44.907  61.344 -50.177  1.00  0.00    -0.221 NA
HETATM   33  C   UNL     1     -44.940  62.761 -48.085  1.00  0.00     0.041 A 
HETATM   34  C   UNL     1     -45.265  62.729 -46.715  1.00  0.00    -0.059 A 
HETATM   35  C   UNL     1     -45.824  61.570 -46.146  1.00  0.00     0.016 A 
HETATM   36  C   UNL     1     -45.035  63.952 -45.873  1.00  0.00     0.048 C 
HETATM   37  C   UNL     1     -46.628  59.172 -46.265  1.00  0.00     0.051 C 
ENDBRANCH   4  27
TORSDOF 9
ENDMDL
MODEL 2
REMARK VINA RESULT:      -8.3      4.637      8.867
REMARK  9 active torsions:
REMARK  status: ('A' for Active; 'I' for Inactive)
REMARK    1  A    between atoms: C_2  and  C_3 
REMARK    2  A    between atoms: C_3  and  O_4 
REMARK    3  A    between atoms: O_4  and  C_5 
REMARK    4  A    between atoms: C_7  and  C_8 
REMARK       I    between atoms: C_8  and  N_9 
REMARK    5  A    between atoms: N_9  and  C_10 
REMARK    6  A    between atoms: C_10  and  N_11 
REMARK    7  A    between atoms: N_11  and  C_12 
REMARK    8  A    between atoms: C_14  and  O_15 
REMARK    9  A    between atoms: C_16  and  C_17 
ROOT
HETATM    1  C   UNL     1     -44.032  58.829 -54.219  1.00  0.00     0.036 A 
HETATM    2  C   UNL     1     -44.693  57.619 -54.424  1.00  0.00     0.067 A 
HETATM    3  C   UNL     1     -44.031  56.400 -54.235  1.00  0.00     0.082 A 
HETATM    4  C   UNL     1     -42.690  56.359 -53.825  1.00  0.00     0.050 A 
HETATM    5  C   UNL     1     -42.058  57.588 -53.557  1.00  0.00     0.021 A 
HETATM    6  C   UNL     1     -42.727  58.809 -53.730  1.00  0.00     0.030 A 
ENDROOT
BRANCH   1   7
HETATM    7  N   UNL     1     -44.649  60.078 -54.445  1.00  0.00    -0.333 N 
HETATM    8  H   UNL     1     -45.429  60.317 -53.831  1.00  0.00     0.168 HD
BRANCH   7   9
HETATM    9  C   UNL     1     -44.215  61.124 -55.227  1.00  0.00     0.179 C 
HETATM   10  S   UNL     1     -44.059  62.743 -54.825  1.00  0.00    -0.040 SA
BRANCH   9  11
HETATM   11  N   UNL     1     -43.879  60.800 -56.524  1.00  0.00    -0.299 N 
HETATM   12  C   UNL     1     -44.516  59.947 -57.413  1.00  0.00     0.257 C 
HETATM   13  O   UNL     1     -45.696  59.627 -57.330  1.00  0.00    -0.267 OA
HETATM   14  H   UNL     1     -42.984  61.185 -56.794  1.00  0.00     0.171 HD
BRANCH  12  15
HETATM   15  C   UNL     1     -43.677  59.520 -58.568  1.00  0.00     0.035 A 
HETATM   16  C   UNL     1     -43.780  58.224 -59.090  1.00  0.00     0.053 A 
HETATM   17  C   UNL     1     -42.948  57.806 -60.129  1.00  0.00     0.069 A 
HETATM   18  C   UNL     1     -42.039  58.706 -60.685  1.00  0.00     0.037 A 
HETATM   19  C   UNL     1     -41.961  60.015 -60.194  1.00  0.00     0.004 A 
HETATM   20  C   UNL     1     -42.778  60.424 -59.137  1.00  0.00     0.017 A 
BRANCH  17  21
HETATM   21  O   UNL     1     -43.137  56.511 -60.516  1.00  0.00    -0.351 OA
BRANCH  21  22
HETATM   22  C   UNL     1     -43.300  55.542 -59.478  1.00  0.00     0.175 C 
BRANCH  22  23
HETATM   23  C   UNL     1     -44.428  54.607 -59.905  1.00  0.00     0.022 C 
HETATM   24  C   UNL     1     -45.009  54.989 -61.253  1.00  0.00     0.007 C 
ENDBRANCH  22  23
ENDBRANCH  21  22
ENDBRANCH  17  21
ENDBRANCH  12  15
ENDBRANCH   9  11
ENDBRANCH   7   9
ENDBRANCH   1   7
BRANCH   3  25
HETATM   25  O   UNL     1     -44.729  55.247 -54.479  1.00  0.00    -0.360 OA
HETATM   26  H   UNL     1     -44.119  54.550 -54.768  1.00  0.00     0.217 HD
ENDBRANCH   3  25
BRANCH   4  27
HETATM   27  C   UNL     1     -41.906  55.126 -53.713  1.00  0.00     0.183 A 
HETATM   28  O   UNL     1     -41.312  54.867 -52.506  1.00  0.00    -0.288 OA
HETATM   29  C   UNL     1     -40.750  53.635 -52.655  1.00  0.00     0.112 A 
HETATM   30  C   UNL     1     -41.004  53.219 -53.950  1.00  0.00     0.094 A 
HETATM   31  C   UNL     1     -40.058  52.905 -51.691  1.00  0.00    -0.025 A 
HETATM   32  N   UNL     1     -41.715  54.183 -54.624  1.00  0.00    -0.221 NA
HETATM   33  C   UNL     1     -40.547  51.958 -54.356  1.00  0.00     0.041 A 
HETATM   34  C   UNL     1     -39.862  51.157 -53.421  1.00  0.00    -0.059 A 
HETATM   35  C   UNL     1     -39.619  51.637 -52.121  1.00  0.00     0.016 A 
HETATM   36  C   UNL     1     -39.371  49.798 -53.833  1.00  0.00     0.048 C 
HETATM   37  C   UNL     1     -39.812  53.383 -50.297  1.00  0.00     0.051 C 
ENDBRANCH   4  27
TORSDOF 9
ENDMDL
MODEL 3
REMARK VINA RESULT:      -8.2      2.624      9.941
REMARK  9 active torsions:
REMARK  status: ('A' for Active; 'I' for Inactive)
REMARK    1  A    between atoms: C_2  and  C_3 
REMARK    2  A    between atoms: C_3  and  O_4 
REMARK    3  A    between atoms: O_4  and  C_5 
REMARK    4  A    between atoms: C_7  and  C_8 
REMARK       I    between atoms: C_8  and  N_9 
REMARK    5  A    between atoms: N_9  and  C_10 
REMARK    6  A    between atoms: C_10  and  N_11 
REMARK    7  A    between atoms: N_11  and  C_12 
REMARK    8  A    between atoms: C_14  and  O_15 
REMARK    9  A    between atoms: C_16  and  C_17 
ROOT
HETATM    1  C   UNL     1     -42.416  59.583 -51.084  1.00  0.00     0.036 A 
HETATM    2  C   UNL     1     -43.344  58.671 -51.586  1.00  0.00     0.067 A 
HETATM    3  C   UNL     1     -43.051  57.303 -51.632  1.00  0.00     0.082 A 
HETATM    4  C   UNL     1     -41.825  56.807 -51.166  1.00  0.00     0.050 A 
HETATM    5  C   UNL     1     -40.927  57.732 -50.600  1.00  0.00     0.021 A 
HETATM    6  C   UNL     1     -41.227  59.101 -50.538  1.00  0.00     0.030 A 
ENDROOT
BRANCH   1   7
HETATM    7  N   UNL     1     -42.652  60.973 -51.065  1.00  0.00    -0.333 N 
HETATM    8  H   UNL     1     -41.857  61.572 -51.295  1.00  0.00     0.168 HD
BRANCH   7   9
HETATM    9  C   UNL     1     -43.853  61.643 -50.998  1.00  0.00     0.179 C 
HETATM   10  S   UNL     1     -44.806  62.219 -52.250  1.00  0.00    -0.040 SA
BRANCH   9  11
HETATM   11  N   UNL     1     -44.329  61.888 -49.729  1.00  0.00    -0.299 N 
HETATM   12  C   UNL     1     -45.417  61.330 -49.072  1.00  0.00     0.257 C 
HETATM   13  O   UNL     1     -45.914  60.249 -49.367  1.00  0.00    -0.267 OA
HETATM   14  H   UNL     1     -43.848  62.656 -49.281  1.00  0.00     0.171 HD
BRANCH  12  15
HETATM   15  C   UNL     1     -45.883  62.100 -47.885  1.00  0.00     0.035 A 
HETATM   16  C   UNL     1     -45.159  62.081 -46.686  1.00  0.00     0.053 A 
HETATM   17  C   UNL     1     -45.632  62.749 -45.557  1.00  0.00     0.069 A 
HETATM   18  C   UNL     1     -46.813  63.486 -45.640  1.00  0.00     0.037 A 
HETATM   19  C   UNL     1     -47.520  63.542 -46.848  1.00  0.00     0.004 A 
HETATM   20  C   UNL     1     -47.057  62.851 -47.970  1.00  0.00     0.017 A 
BRANCH  17  21
HETATM   21  O   UNL     1     -44.841  62.618 -44.452  1.00  0.00    -0.351 OA
BRANCH  21  22
HETATM   22  C   UNL     1     -44.828  63.710 -43.531  1.00  0.00     0.175 C 
BRANCH  22  23
HETATM   23  C   UNL     1     -43.923  63.312 -42.369  1.00  0.00     0.022 C 
HETATM   24  C   UNL     1     -42.552  63.955 -42.464  1.00  0.00     0.007 C 
ENDBRANCH  22  23
ENDBRANCH  21  22
ENDBRANCH  17  21
ENDBRANCH  12  15
ENDBRANCH   9  11
ENDBRANCH   7   9
ENDBRANCH   1   7
BRANCH   3  25
HETATM   25  O   UNL     1     -43.995  56.464 -52.162  1.00  0.00    -0.360 OA
HETATM   26  H   UNL     1     -43.788  56.284 -53.093  1.00  0.00     0.217 HD
ENDBRANCH   3  25
BRANCH   4  27
HETATM   27  C   UNL     1     -41.411  55.407 -51.283  1.00  0.00     0.183 A 
HETATM   28  O   UNL     1     -41.154  54.930 -52.542  1.00  0.00    -0.288 OA
HETATM   29  C   UNL     1     -40.699  53.662 -52.344  1.00  0.00     0.112 A 
HETATM   30  C   UNL     1     -40.728  53.419 -50.982  1.00  0.00     0.094 A 
HETATM   31  C   UNL     1     -40.265  52.764 -53.317  1.00  0.00    -0.025 A 
HETATM   32  N   UNL     1     -41.207  54.522 -50.318  1.00  0.00    -0.221 NA
HETATM   33  C   UNL     1     -40.283  52.178 -50.507  1.00  0.00     0.041 A 
HETATM   34  C   UNL     1     -39.805  51.234 -51.437  1.00  0.00    -0.059 A 
HETATM   35  C   UNL     1     -39.812  51.528 -52.813  1.00  0.00     0.016 A 
HETATM   36  C   UNL     1     -39.315  49.900 -50.949  1.00  0.00     0.048 C 
HETATM   37  C   UNL     1     -40.237  53.065 -54.780  1.00  0.00     0.051 C 
ENDBRANCH   4  27
TORSDOF 9
ENDMDL
MODEL 4
REMARK VINA RESULT:      -7.9      3.628      7.901
REMARK  9 active torsions:
REMARK  status: ('A' for Active; 'I' for Inactive)
REMARK    1  A    between atoms: C_2  and  C_3 
REMARK    2  A    between atoms: C_3  and  O_4 
REMARK    3  A    between atoms: O_4  and  C_5 
REMARK    4  A    between atoms: C_7  and  C_8 
REMARK       I    between atoms: C_8  and  N_9 
REMARK    5  A    between atoms: N_9  and  C_10 
REMARK    6  A    between atoms: C_10  and  N_11 
REMARK    7  A    between atoms: N_11  and  C_12 
REMARK    8  A    between atoms: C_14  and  O_15 
REMARK    9  A    between atoms: C_16  and  C_17 
ROOT
HETATM    1  C   UNL     1     -42.401  59.875 -51.779  1.00  0.00     0.036 A 
HETATM    2  C   UNL     1     -43.321  58.951 -51.284  1.00  0.00     0.067 A 
HETATM    3  C   UNL     1     -42.993  57.593 -51.191  1.00  0.00     0.082 A 
HETATM    4  C   UNL     1     -41.731  57.124 -51.583  1.00  0.00     0.050 A 
HETATM    5  C   UNL     1     -40.792  58.078 -52.017  1.00  0.00     0.021 A 
HETATM    6  C   UNL     1     -41.114  59.441 -52.093  1.00  0.00     0.030 A 
ENDROOT
BRANCH   1   7
HETATM    7  N   UNL     1     -42.708  61.243 -51.933  1.00  0.00    -0.333 N 
HETATM    8  H   UNL     1     -42.407  61.864 -51.180  1.00  0.00     0.168 HD
BRANCH   7   9
HETATM    9  C   UNL     1     -43.160  61.905 -53.053  1.00  0.00     0.179 C 
HETATM   10  S   UNL     1     -43.844  63.430 -53.169  1.00  0.00    -0.040 SA
BRANCH   9  11
HETATM   11  N   UNL     1     -43.049  61.212 -54.239  1.00  0.00    -0.299 N 
HETATM   12  C   UNL     1     -43.993  60.440 -54.901  1.00  0.00     0.257 C 
HETATM   13  O   UNL     1     -45.203  60.548 -54.738  1.00  0.00    -0.267 OA
HETATM   14  H   UNL     1     -42.104  61.216 -54.598  1.00  0.00     0.171 HD
BRANCH  12  15
HETATM   15  C   UNL     1     -43.429  59.521 -55.929  1.00  0.00     0.035 A 
HETATM   16  C   UNL     1     -43.070  58.207 -55.598  1.00  0.00     0.053 A 
HETATM   17  C   UNL     1     -42.481  57.370 -56.546  1.00  0.00     0.069 A 
HETATM   18  C   UNL     1     -42.296  57.831 -57.849  1.00  0.00     0.037 A 
HETATM   19  C   UNL     1     -42.691  59.129 -58.195  1.00  0.00     0.004 A 
HETATM   20  C   UNL     1     -43.257  59.975 -57.238  1.00  0.00     0.017 A 
BRANCH  17  21
HETATM   21  O   UNL     1     -42.155  56.130 -56.077  1.00  0.00    -0.351 OA
BRANCH  21  22
HETATM   22  C   UNL     1     -42.901  55.026 -56.592  1.00  0.00     0.175 C 
BRANCH  22  23
HETATM   23  C   UNL     1     -43.222  54.108 -55.415  1.00  0.00     0.022 C 
HETATM   24  C   UNL     1     -43.915  54.847 -54.286  1.00  0.00     0.007 C 
ENDBRANCH  22  23
ENDBRANCH  21  22
ENDBRANCH  17  21
ENDBRANCH  12  15
ENDBRANCH   9  11
ENDBRANCH   7   9
ENDBRANCH   1   7
BRANCH   3  25
HETATM   25  O   UNL     1     -43.951  56.734 -50.721  1.00  0.00    -0.360 OA
HETATM   26  H   UNL     1     -44.307  57.068 -49.882  1.00  0.00     0.217 HD
ENDBRANCH   3  25
BRANCH   4  27
HETATM   27  C   UNL     1     -41.360  55.707 -51.615  1.00  0.00     0.183 A 
HETATM   28  O   UNL     1     -41.028  55.171 -52.832  1.00  0.00    -0.288 OA
HETATM   29  C   UNL     1     -40.634  53.898 -52.553  1.00  0.00     0.112 A 
HETATM   30  C   UNL     1     -40.772  53.711 -51.189  1.00  0.00     0.094 A 
HETATM   31  C   UNL     1     -40.161  52.948 -53.456  1.00  0.00    -0.025 A 
HETATM   32  N   UNL     1     -41.259  54.855 -50.605  1.00  0.00    -0.221 NA
HETATM   33  C   UNL     1     -40.407  52.477 -50.636  1.00  0.00     0.041 A 
HETATM   34  C   UNL     1     -39.896  51.480 -51.491  1.00  0.00    -0.059 A 
HETATM   35  C   UNL     1     -39.791  51.720 -52.873  1.00  0.00     0.016 A 
HETATM   36  C   UNL     1     -39.491  50.152 -50.917  1.00  0.00     0.048 C 
HETATM   37  C   UNL     1     -40.014  53.189 -54.923  1.00  0.00     0.051 C 
ENDBRANCH   4  27
TORSDOF 9
ENDMDL
MODEL 5
REMARK VINA RESULT:      -7.9      2.527      8.348
REMARK  9 active torsions:
REMARK  status: ('A' for Active; 'I' for Inactive)
REMARK    1  A    between atoms: C_2  and  C_3 
REMARK    2  A    between atoms: C_3  and  O_4 
REMARK    3  A    between atoms: O_4  and  C_5 
REMARK    4  A    between atoms: C_7  and  C_8 
REMARK       I    between atoms: C_8  and  N_9 
REMARK    5  A    between atoms: N_9  and  C_10 
REMARK    6  A    between atoms: C_10  and  N_11 
REMARK    7  A    between atoms: N_11  and  C_12 
REMARK    8  A    between atoms: C_14  and  O_15 
REMARK    9  A    between atoms: C_16  and  C_17 
ROOT
HETATM    1  C   UNL     1     -42.772  58.650 -55.939  1.00  0.00     0.036 A 
HETATM    2  C   UNL     1     -43.253  57.451 -56.465  1.00  0.00     0.067 A 
HETATM    3  C   UNL     1     -42.798  56.221 -55.976  1.00  0.00     0.082 A 
HETATM    4  C   UNL     1     -41.857  56.156 -54.938  1.00  0.00     0.050 A 
HETATM    5  C   UNL     1     -41.434  57.373 -54.372  1.00  0.00     0.021 A 
HETATM    6  C   UNL     1     -41.902  58.606 -54.851  1.00  0.00     0.030 A 
ENDROOT
BRANCH   1   7
HETATM    7  N   UNL     1     -43.168  59.909 -56.437  1.00  0.00    -0.333 N 
HETATM    8  H   UNL     1     -42.634  60.273 -57.228  1.00  0.00     0.168 HD
BRANCH   7   9
HETATM    9  C   UNL     1     -44.309  60.627 -56.158  1.00  0.00     0.179 C 
HETATM   10  S   UNL     1     -45.191  61.634 -57.167  1.00  0.00    -0.040 SA
BRANCH   9  11
HETATM   11  N   UNL     1     -44.784  60.515 -54.869  1.00  0.00    -0.299 N 
HETATM   12  C   UNL     1     -44.488  61.282 -53.751  1.00  0.00     0.257 C 
HETATM   13  O   UNL     1     -44.045  62.424 -53.801  1.00  0.00    -0.267 OA
HETATM   14  H   UNL     1     -45.351  59.688 -54.741  1.00  0.00     0.171 HD
BRANCH  12  15
HETATM   15  C   UNL     1     -44.857  60.650 -52.454  1.00  0.00     0.035 A 
HETATM   16  C   UNL     1     -44.764  59.263 -52.278  1.00  0.00     0.053 A 
HETATM   17  C   UNL     1     -45.171  58.667 -51.084  1.00  0.00     0.069 A 
HETATM   18  C   UNL     1     -45.627  59.467 -50.038  1.00  0.00     0.037 A 
HETATM   19  C   UNL     1     -45.683  60.858 -50.194  1.00  0.00     0.004 A 
HETATM   20  C   UNL     1     -45.299  61.451 -51.399  1.00  0.00     0.017 A 
BRANCH  17  21
HETATM   21  O   UNL     1     -45.054  57.307 -51.066  1.00  0.00    -0.351 OA
BRANCH  21  22
HETATM   22  C   UNL     1     -43.947  56.742 -51.770  1.00  0.00     0.175 C 
BRANCH  22  23
HETATM   23  C   UNL     1     -42.927  56.294 -50.726  1.00  0.00     0.022 C 
HETATM   24  C   UNL     1     -41.678  57.155 -50.740  1.00  0.00     0.007 C 
ENDBRANCH  22  23
ENDBRANCH  21  22
ENDBRANCH  17  21
ENDBRANCH  12  15
ENDBRANCH   9  11
ENDBRANCH   7   9
ENDBRANCH   1   7
BRANCH   3  25
HETATM   25  O   UNL     1     -43.290  55.081 -56.554  1.00  0.00    -0.360 OA
HETATM   26  H   UNL     1     -43.303  54.362 -55.902  1.00  0.00     0.217 HD
ENDBRANCH   3  25
BRANCH   4  27
HETATM   27  C   UNL     1     -41.259  54.910 -54.452  1.00  0.00     0.183 A 
HETATM   28  O   UNL     1     -40.880  54.866 -53.136  1.00  0.00    -0.288 OA
HETATM   29  C   UNL     1     -40.463  53.584 -52.940  1.00  0.00     0.112 A 
HETATM   30  C   UNL     1     -40.581  52.921 -54.148  1.00  0.00     0.094 A 
HETATM   31  C   UNL     1     -40.013  53.021 -51.748  1.00  0.00    -0.025 A 
HETATM   32  N   UNL     1     -41.061  53.777 -55.110  1.00  0.00    -0.221 NA
HETATM   33  C   UNL     1     -40.234  51.565 -54.212  1.00  0.00     0.041 A 
HETATM   34  C   UNL     1     -39.796  50.927 -53.034  1.00  0.00    -0.059 A 
HETATM   35  C   UNL     1     -39.681  51.654 -51.835  1.00  0.00     0.016 A 
HETATM   36  C   UNL     1     -39.426  49.471 -53.078  1.00  0.00     0.048 C 
HETATM   37  C   UNL     1     -39.909  53.766 -50.457  1.00  0.00     0.051 C 
ENDBRANCH   4  27
TORSDOF 9
ENDMDL
MODEL 6
REMARK VINA RESULT:      -7.9      4.215      8.280
REMARK  9 active torsions:
REMARK  status: ('A' for Active; 'I' for Inactive)
REMARK    1  A    between atoms: C_2  and  C_3 
REMARK    2  A    between atoms: C_3  and  O_4 
REMARK    3  A    between atoms: O_4  and  C_5 
REMARK    4  A    between atoms: C_7  and  C_8 
REMARK       I    between atoms: C_8  and  N_9 
REMARK    5  A    between atoms: N_9  and  C_10 
REMARK    6  A    between atoms: C_10  and  N_11 
REMARK    7  A    between atoms: N_11  and  C_12 
REMARK    8  A    between atoms: C_14  and  O_15 
REMARK    9  A    between atoms: C_16  and  C_17 
ROOT
HETATM    1  C   UNL     1     -42.248  59.174 -54.012  1.00  0.00     0.036 A 
HETATM    2  C   UNL     1     -43.596  59.527 -54.060  1.00  0.00     0.067 A 
HETATM    3  C   UNL     1     -44.396  59.152 -55.146  1.00  0.00     0.082 A 
HETATM    4  C   UNL     1     -43.871  58.405 -56.210  1.00  0.00     0.050 A 
HETATM    5  C   UNL     1     -42.527  57.999 -56.114  1.00  0.00     0.021 A 
HETATM    6  C   UNL     1     -41.729  58.359 -55.017  1.00  0.00     0.030 A 
ENDROOT
BRANCH   1   7
HETATM    7  N   UNL     1     -41.396  59.572 -52.960  1.00  0.00    -0.333 N 
HETATM    8  H   UNL     1     -40.838  60.412 -53.121  1.00  0.00     0.168 HD
BRANCH   7   9
HETATM    9  C   UNL     1     -41.366  59.125 -51.659  1.00  0.00     0.179 C 
HETATM   10  S   UNL     1     -41.528  60.004 -50.241  1.00  0.00    -0.040 SA
BRANCH   9  11
HETATM   11  N   UNL     1     -41.159  57.772 -51.498  1.00  0.00    -0.299 N 
HETATM   12  C   UNL     1     -42.064  56.774 -51.167  1.00  0.00     0.257 C 
HETATM   13  O   UNL     1     -43.275  56.866 -51.332  1.00  0.00    -0.267 OA
HETATM   14  H   UNL     1     -40.179  57.527 -51.543  1.00  0.00     0.171 HD
BRANCH  12  15
HETATM   15  C   UNL     1     -41.441  55.509 -50.687  1.00  0.00     0.035 A 
HETATM   16  C   UNL     1     -41.062  54.507 -51.589  1.00  0.00     0.053 A 
HETATM   17  C   UNL     1     -40.539  53.297 -51.132  1.00  0.00     0.069 A 
HETATM   18  C   UNL     1     -40.346  53.106 -49.764  1.00  0.00     0.037 A 
HETATM   19  C   UNL     1     -40.686  54.121 -48.861  1.00  0.00     0.004 A 
HETATM   20  C   UNL     1     -41.232  55.321 -49.319  1.00  0.00     0.017 A 
BRANCH  17  21
HETATM   21  O   UNL     1     -40.243  52.403 -52.120  1.00  0.00    -0.351 OA
BRANCH  21  22
HETATM   22  C   UNL     1     -40.524  52.804 -53.462  1.00  0.00     0.175 C 
BRANCH  22  23
HETATM   23  C   UNL     1     -40.429  51.557 -54.337  1.00  0.00     0.022 C 
HETATM   24  C   UNL     1     -39.706  50.421 -53.637  1.00  0.00     0.007 C 
ENDBRANCH  22  23
ENDBRANCH  21  22
ENDBRANCH  17  21
ENDBRANCH  12  15
ENDBRANCH   9  11
ENDBRANCH   7   9
ENDBRANCH   1   7
BRANCH   3  25
HETATM   25  O   UNL     1     -45.705  59.554 -55.145  1.00  0.00    -0.360 OA
HETATM   26  H   UNL     1     -46.285  58.779 -55.219  1.00  0.00     0.217 HD
ENDBRANCH   3  25
BRANCH   4  27
HETATM   27  C   UNL     1     -44.620  58.072 -57.425  1.00  0.00     0.183 A 
HETATM   28  O   UNL     1     -44.283  56.912 -58.074  1.00  0.00    -0.288 OA
HETATM   29  C   UNL     1     -45.190  56.807 -59.084  1.00  0.00     0.112 A 
HETATM   30  C   UNL     1     -46.013  57.917 -59.020  1.00  0.00     0.094 A 
HETATM   31  C   UNL     1     -45.297  55.773 -60.012  1.00  0.00    -0.025 A 
HETATM   32  N   UNL     1     -45.627  58.729 -57.980  1.00  0.00    -0.221 NA
HETATM   33  C   UNL     1     -47.057  58.039 -59.946  1.00  0.00     0.041 A 
HETATM   34  C   UNL     1     -47.237  57.014 -60.896  1.00  0.00    -0.059 A 
HETATM   35  C   UNL     1     -46.361  55.914 -60.925  1.00  0.00     0.016 A 
HETATM   36  C   UNL     1     -48.355  57.120 -61.893  1.00  0.00     0.048 C 
HETATM   37  C   UNL     1     -44.396  54.582 -60.044  1.00  0.00     0.051 C 
ENDBRANCH   4  27
TORSDOF 9
ENDMDL
MODEL 7
REMARK VINA RESULT:      -7.6      4.688      9.055
REMARK  9 active torsions:
REMARK  status: ('A' for Active; 'I' for Inactive)
REMARK    1  A    between atoms: C_2  and  C_3 
REMARK    2  A    between atoms: C_3  and  O_4 
REMARK    3  A    between atoms: O_4  and  C_5 
REMARK    4  A    between atoms: C_7  and  C_8 
REMARK       I    between atoms: C_8  and  N_9 
REMARK    5  A    between atoms: N_9  and  C_10 
REMARK    6  A    between atoms: C_10  and  N_11 
REMARK    7  A    between atoms: N_11  and  C_12 
REMARK    8  A    between atoms: C_14  and  O_15 
REMARK    9  A    between atoms: C_16  and  C_17 
ROOT
HETATM    1  C   UNL     1     -44.149  58.849 -54.341  1.00  0.00     0.036 A 
HETATM    2  C   UNL     1     -44.813  57.630 -54.469  1.00  0.00     0.067 A 
HETATM    3  C   UNL     1     -44.132  56.420 -54.287  1.00  0.00     0.082 A 
HETATM    4  C   UNL     1     -42.768  56.398 -53.961  1.00  0.00     0.050 A 
HETATM    5  C   UNL     1     -42.129  57.637 -53.768  1.00  0.00     0.021 A 
HETATM    6  C   UNL     1     -42.816  58.850 -53.934  1.00  0.00     0.030 A 
ENDROOT
BRANCH   1   7
HETATM    7  N   UNL     1     -44.787  60.088 -54.564  1.00  0.00    -0.333 N 
HETATM    8  H   UNL     1     -44.855  60.715 -53.760  1.00  0.00     0.168 HD
BRANCH   7   9
HETATM    9  C   UNL     1     -45.137  60.674 -55.758  1.00  0.00     0.179 C 
HETATM   10  S   UNL     1     -46.231  61.912 -56.041  1.00  0.00    -0.040 SA
BRANCH   9  11
HETATM   11  N   UNL     1     -44.516  60.164 -56.878  1.00  0.00    -0.299 N 
HETATM   12  C   UNL     1     -44.968  59.212 -57.780  1.00  0.00     0.257 C 
HETATM   13  O   UNL     1     -46.151  58.937 -57.951  1.00  0.00    -0.267 OA
HETATM   14  H   UNL     1     -43.562  60.485 -56.966  1.00  0.00     0.171 HD
BRANCH  12  15
HETATM   15  C   UNL     1     -43.901  58.607 -58.626  1.00  0.00     0.035 A 
HETATM   16  C   UNL     1     -43.181  59.387 -59.541  1.00  0.00     0.053 A 
HETATM   17  C   UNL     1     -42.229  58.805 -60.378  1.00  0.00     0.069 A 
HETATM   18  C   UNL     1     -41.956  57.442 -60.265  1.00  0.00     0.037 A 
HETATM   19  C   UNL     1     -42.644  56.666 -59.323  1.00  0.00     0.004 A 
HETATM   20  C   UNL     1     -43.615  57.245 -58.504  1.00  0.00     0.017 A 
BRANCH  17  21
HETATM   21  O   UNL     1     -41.629  59.677 -61.239  1.00  0.00    -0.351 OA
BRANCH  21  22
HETATM   22  C   UNL     1     -42.486  60.541 -61.988  1.00  0.00     0.175 C 
BRANCH  22  23
HETATM   23  C   UNL     1     -41.728  61.846 -62.214  1.00  0.00     0.022 C 
HETATM   24  C   UNL     1     -40.887  62.235 -61.013  1.00  0.00     0.007 C 
ENDBRANCH  22  23
ENDBRANCH  21  22
ENDBRANCH  17  21
ENDBRANCH  12  15
ENDBRANCH   9  11
ENDBRANCH   7   9
ENDBRANCH   1   7
BRANCH   3  25
HETATM   25  O   UNL     1     -44.836  55.258 -54.453  1.00  0.00    -0.360 OA
HETATM   26  H   UNL     1     -45.785  55.430 -54.340  1.00  0.00     0.217 HD
ENDBRANCH   3  25
BRANCH   4  27
HETATM   27  C   UNL     1     -41.970  55.173 -53.862  1.00  0.00     0.183 A 
HETATM   28  O   UNL     1     -41.346  54.924 -52.668  1.00  0.00    -0.288 OA
HETATM   29  C   UNL     1     -40.777  53.697 -52.826  1.00  0.00     0.112 A 
HETATM   30  C   UNL     1     -41.056  53.274 -54.113  1.00  0.00     0.094 A 
HETATM   31  C   UNL     1     -40.056  52.976 -51.876  1.00  0.00    -0.025 A 
HETATM   32  N   UNL     1     -41.791  54.229 -54.774  1.00  0.00    -0.221 NA
HETATM   33  C   UNL     1     -40.597  52.016 -54.526  1.00  0.00     0.041 A 
HETATM   34  C   UNL     1     -39.883  51.224 -53.603  1.00  0.00    -0.059 A 
HETATM   35  C   UNL     1     -39.615  51.711 -52.311  1.00  0.00     0.016 A 
HETATM   36  C   UNL     1     -39.389  49.869 -54.022  1.00  0.00     0.048 C 
HETATM   37  C   UNL     1     -39.783  53.461 -50.489  1.00  0.00     0.051 C 
ENDBRANCH   4  27
TORSDOF 9
ENDMDL
MODEL 8
REMARK VINA RESULT:      -7.6      2.597      9.836
REMARK  9 active torsions:
REMARK  status: ('A' for Active; 'I' for Inactive)
REMARK    1  A    between atoms: C_2  and  C_3 
REMARK    2  A    between atoms: C_3  and  O_4 
REMARK    3  A    between atoms: O_4  and  C_5 
REMARK    4  A    between atoms: C_7  and  C_8 
REMARK       I    between atoms: C_8  and  N_9 
REMARK    5  A    between atoms: N_9  and  C_10 
REMARK    6  A    between atoms: C_10  and  N_11 
REMARK    7  A    between atoms: N_11  and  C_12 
REMARK    8  A    between atoms: C_14  and  O_15 
REMARK    9  A    between atoms: C_16  and  C_17 
ROOT
HETATM    1  C   UNL     1     -43.282  60.290 -51.902  1.00  0.00     0.036 A 
HETATM    2  C   UNL     1     -42.544  59.691 -50.883  1.00  0.00     0.067 A 
HETATM    3  C   UNL     1     -41.914  58.457 -51.084  1.00  0.00     0.082 A 
HETATM    4  C   UNL     1     -41.999  57.792 -52.316  1.00  0.00     0.050 A 
HETATM    5  C   UNL     1     -42.691  58.441 -53.355  1.00  0.00     0.021 A 
HETATM    6  C   UNL     1     -43.307  59.687 -53.159  1.00  0.00     0.030 A 
ENDROOT
BRANCH   1   7
HETATM    7  N   UNL     1     -43.971  61.509 -51.725  1.00  0.00    -0.333 N 
HETATM    8  H   UNL     1     -43.568  62.329 -52.181  1.00  0.00     0.168 HD
BRANCH   7   9
HETATM    9  C   UNL     1     -45.230  61.720 -51.212  1.00  0.00     0.179 C 
HETATM   10  S   UNL     1     -46.716  61.315 -51.872  1.00  0.00    -0.040 SA
BRANCH   9  11
HETATM   11  N   UNL     1     -45.278  62.368 -49.997  1.00  0.00    -0.299 N 
HETATM   12  C   UNL     1     -45.214  61.844 -48.714  1.00  0.00     0.257 C 
HETATM   13  O   UNL     1     -44.723  60.753 -48.444  1.00  0.00    -0.267 OA
HETATM   14  H   UNL     1     -45.484  63.353 -50.096  1.00  0.00     0.171 HD
BRANCH  12  15
HETATM   15  C   UNL     1     -45.694  62.763 -47.645  1.00  0.00     0.035 A 
HETATM   16  C   UNL     1     -45.057  62.810 -46.398  1.00  0.00     0.053 A 
HETATM   17  C   UNL     1     -45.550  63.624 -45.378  1.00  0.00     0.069 A 
HETATM   18  C   UNL     1     -46.656  64.437 -45.620  1.00  0.00     0.037 A 
HETATM   19  C   UNL     1     -47.271  64.424 -46.878  1.00  0.00     0.004 A 
HETATM   20  C   UNL     1     -46.793  63.590 -47.891  1.00  0.00     0.017 A 
BRANCH  17  21
HETATM   21  O   UNL     1     -44.850  63.545 -44.208  1.00  0.00    -0.351 OA
BRANCH  21  22
HETATM   22  C   UNL     1     -44.276  62.278 -43.880  1.00  0.00     0.175 C 
BRANCH  22  23
HETATM   23  C   UNL     1     -43.163  62.533 -42.868  1.00  0.00     0.022 C 
HETATM   24  C   UNL     1     -43.134  63.976 -42.400  1.00  0.00     0.007 C 
ENDBRANCH  22  23
ENDBRANCH  21  22
ENDBRANCH  17  21
ENDBRANCH  12  15
ENDBRANCH   9  11
ENDBRANCH   7   9
ENDBRANCH   1   7
BRANCH   3  25
HETATM   25  O   UNL     1     -41.227  57.910 -50.033  1.00  0.00    -0.360 OA
HETATM   26  H   UNL     1     -41.655  57.085 -49.755  1.00  0.00     0.217 HD
ENDBRANCH   3  25
BRANCH   4  27
HETATM   27  C   UNL     1     -41.458  56.453 -52.561  1.00  0.00     0.183 A 
HETATM   28  O   UNL     1     -41.156  55.686 -51.466  1.00  0.00    -0.288 OA
HETATM   29  C   UNL     1     -40.781  54.482 -51.981  1.00  0.00     0.112 A 
HETATM   30  C   UNL     1     -40.845  54.583 -53.359  1.00  0.00     0.094 A 
HETATM   31  C   UNL     1     -40.413  53.342 -51.269  1.00  0.00    -0.025 A 
HETATM   32  N   UNL     1     -41.249  55.846 -53.720  1.00  0.00    -0.221 NA
HETATM   33  C   UNL     1     -40.526  53.460 -54.134  1.00  0.00     0.041 A 
HETATM   34  C   UNL     1     -40.171  52.266 -53.475  1.00  0.00    -0.059 A 
HETATM   35  C   UNL     1     -40.108  52.225 -52.071  1.00  0.00     0.016 A 
HETATM   36  C   UNL     1     -39.833  51.048 -54.287  1.00  0.00     0.048 C 
HETATM   37  C   UNL     1     -40.366  53.267 -49.777  1.00  0.00     0.051 C 
ENDBRANCH   4  27
TORSDOF 9
ENDMDL
MODEL 9
REMARK VINA RESULT:      -7.4      4.510     10.407
REMARK  9 active torsions:
REMARK  status: ('A' for Active; 'I' for Inactive)
REMARK    1  A    between atoms: C_2  and  C_3 
REMARK    2  A    between atoms: C_3  and  O_4 
REMARK    3  A    between atoms: O_4  and  C_5 
REMARK    4  A    between atoms: C_7  and  C_8 
REMARK       I    between atoms: C_8  and  N_9 
REMARK    5  A    between atoms: N_9  and  C_10 
REMARK    6  A    between atoms: C_10  and  N_11 
REMARK    7  A    between atoms: N_11  and  C_12 
REMARK    8  A    between atoms: C_14  and  O_15 
REMARK    9  A    between atoms: C_16  and  C_17 
ROOT
HETATM    1  C   UNL     1     -45.086  59.291 -52.783  1.00  0.00     0.036 A 
HETATM    2  C   UNL     1     -45.234  58.467 -53.897  1.00  0.00     0.067 A 
HETATM    3  C   UNL     1     -44.487  57.290 -54.023  1.00  0.00     0.082 A 
HETATM    4  C   UNL     1     -43.576  56.900 -53.030  1.00  0.00     0.050 A 
HETATM    5  C   UNL     1     -43.488  57.707 -51.881  1.00  0.00     0.021 A 
HETATM    6  C   UNL     1     -44.250  58.878 -51.746  1.00  0.00     0.030 A 
ENDROOT
BRANCH   1   7
HETATM    7  N   UNL     1     -45.784  60.509 -52.640  1.00  0.00    -0.333 N 
HETATM    8  H   UNL     1     -45.835  60.896 -51.696  1.00  0.00     0.168 HD
BRANCH   7   9
HETATM    9  C   UNL     1     -46.220  61.372 -53.620  1.00  0.00     0.179 C 
HETATM   10  S   UNL     1     -45.348  62.071 -54.869  1.00  0.00    -0.040 SA
BRANCH   9  11
HETATM   11  N   UNL     1     -47.551  61.723 -53.557  1.00  0.00    -0.299 N 
HETATM   12  C   UNL     1     -48.153  62.783 -52.894  1.00  0.00     0.257 C 
HETATM   13  O   UNL     1     -47.565  63.806 -52.562  1.00  0.00    -0.267 OA
HETATM   14  H   UNL     1     -48.150  61.032 -53.989  1.00  0.00     0.171 HD
BRANCH  12  15
HETATM   15  C   UNL     1     -49.623  62.637 -52.702  1.00  0.00     0.035 A 
HETATM   16  C   UNL     1     -50.387  61.855 -53.578  1.00  0.00     0.053 A 
HETATM   17  C   UNL     1     -51.773  61.773 -53.435  1.00  0.00     0.069 A 
HETATM   18  C   UNL     1     -52.395  62.436 -52.379  1.00  0.00     0.037 A 
HETATM   19  C   UNL     1     -51.630  63.186 -51.476  1.00  0.00     0.004 A 
HETATM   20  C   UNL     1     -50.246  63.287 -51.635  1.00  0.00     0.017 A 
BRANCH  17  21
HETATM   21  O   UNL     1     -52.391  61.001 -54.377  1.00  0.00    -0.351 OA
BRANCH  21  22
HETATM   22  C   UNL     1     -53.413  61.625 -55.156  1.00  0.00     0.175 C 
BRANCH  22  23
HETATM   23  C   UNL     1     -53.296  61.081 -56.577  1.00  0.00     0.022 C 
HETATM   24  C   UNL     1     -52.628  59.719 -56.615  1.00  0.00     0.007 C 
ENDBRANCH  22  23
ENDBRANCH  21  22
ENDBRANCH  17  21
ENDBRANCH  12  15
ENDBRANCH   9  11
ENDBRANCH   7   9
ENDBRANCH   1   7
BRANCH   3  25
HETATM   25  O   UNL     1     -44.660  56.539 -55.155  1.00  0.00    -0.360 OA
HETATM   26  H   UNL     1     -45.245  55.788 -54.964  1.00  0.00     0.217 HD
ENDBRANCH   3  25
BRANCH   4  27
HETATM   27  C   UNL     1     -42.685  55.743 -53.146  1.00  0.00     0.183 A 
HETATM   28  O   UNL     1     -41.910  55.434 -52.059  1.00  0.00    -0.288 OA
HETATM   29  C   UNL     1     -41.275  54.280 -52.404  1.00  0.00     0.112 A 
HETATM   30  C   UNL     1     -41.671  53.959 -53.690  1.00  0.00     0.094 A 
HETATM   31  C   UNL     1     -40.399  53.536 -51.617  1.00  0.00    -0.025 A 
HETATM   32  N   UNL     1     -42.545  54.907 -54.165  1.00  0.00    -0.221 NA
HETATM   33  C   UNL     1     -41.172  52.789 -54.278  1.00  0.00     0.041 A 
HETATM   34  C   UNL     1     -40.301  51.976 -53.525  1.00  0.00    -0.059 A 
HETATM   35  C   UNL     1     -39.920  52.359 -52.226  1.00  0.00     0.016 A 
HETATM   36  C   UNL     1     -39.761  50.712 -54.133  1.00  0.00     0.048 C 
HETATM   37  C   UNL     1     -40.002  53.909 -50.225  1.00  0.00     0.051 C 
ENDBRANCH   4  27
TORSDOF 9
ENDMDL
MODEL 10
REMARK VINA RESULT:      -7.3      3.759      8.508
REMARK  9 active torsions:
REMARK  status: ('A' for Active; 'I' for Inactive)
REMARK    1  A    between atoms: C_2  and  C_3 
REMARK    2  A    between atoms: C_3  and  O_4 
REMARK    3  A    between atoms: O_4  and  C_5 
REMARK    4  A    between atoms: C_7  and  C_8 
REMARK       I    between atoms: C_8  and  N_9 
REMARK    5  A    between atoms: N_9  and  C_10 
REMARK    6  A    between atoms: C_10  and  N_11 
REMARK    7  A    between atoms: N_11  and  C_12 
REMARK    8  A    between atoms: C_14  and  O_15 
REMARK    9  A    between atoms: C_16  and  C_17 
ROOT
HETATM    1  C   UNL     1     -42.306  59.690 -52.323  1.00  0.00     0.036 A 
HETATM    2  C   UNL     1     -43.103  58.877 -51.518  1.00  0.00     0.067 A 
HETATM    3  C   UNL     1     -42.775  57.532 -51.309  1.00  0.00     0.082 A 
HETATM    4  C   UNL     1     -41.633  56.966 -51.892  1.00  0.00     0.050 A 
HETATM    5  C   UNL     1     -40.802  57.816 -52.647  1.00  0.00     0.021 A 
HETATM    6  C   UNL     1     -41.122  59.168 -52.842  1.00  0.00     0.030 A 
ENDROOT
BRANCH   1   7
HETATM    7  N   UNL     1     -42.628  61.035 -52.598  1.00  0.00    -0.333 N 
HETATM    8  H   UNL     1     -42.236  61.734 -51.964  1.00  0.00     0.168 HD
BRANCH   7   9
HETATM    9  C   UNL     1     -43.211  61.570 -53.724  1.00  0.00     0.179 C 
HETATM   10  S   UNL     1     -43.867  63.096 -53.945  1.00  0.00    -0.040 SA
BRANCH   9  11
HETATM   11  N   UNL     1     -43.280  60.731 -54.815  1.00  0.00    -0.299 N 
HETATM   12  C   UNL     1     -44.223  59.761 -55.124  1.00  0.00     0.257 C 
HETATM   13  O   UNL     1     -45.362  59.744 -54.670  1.00  0.00    -0.267 OA
HETATM   14  H   UNL     1     -42.459  60.797 -55.401  1.00  0.00     0.171 HD
BRANCH  12  15
HETATM   15  C   UNL     1     -43.784  58.778 -56.153  1.00  0.00     0.035 A 
HETATM   16  C   UNL     1     -43.721  59.134 -57.506  1.00  0.00     0.053 A 
HETATM   17  C   UNL     1     -43.373  58.192 -58.475  1.00  0.00     0.069 A 
HETATM   18  C   UNL     1     -43.036  56.897 -58.084  1.00  0.00     0.037 A 
HETATM   19  C   UNL     1     -43.058  56.547 -56.729  1.00  0.00     0.004 A 
HETATM   20  C   UNL     1     -43.431  57.484 -55.762  1.00  0.00     0.017 A 
BRANCH  17  21
HETATM   21  O   UNL     1     -43.383  58.671 -59.754  1.00  0.00    -0.351 OA
BRANCH  21  22
HETATM   22  C   UNL     1     -42.191  58.495 -60.521  1.00  0.00     0.175 C 
BRANCH  22  23
HETATM   23  C   UNL     1     -41.833  59.852 -61.121  1.00  0.00     0.022 C 
HETATM   24  C   UNL     1     -43.034  60.777 -61.199  1.00  0.00     0.007 C 
ENDBRANCH  22  23
ENDBRANCH  21  22
ENDBRANCH  17  21
ENDBRANCH  12  15
ENDBRANCH   9  11
ENDBRANCH   7   9
ENDBRANCH   1   7
BRANCH   3  25
HETATM   25  O   UNL     1     -43.615  56.782 -50.529  1.00  0.00    -0.360 OA
HETATM   26  H   UNL     1     -43.164  56.535 -49.706  1.00  0.00     0.217 HD
ENDBRANCH   3  25
BRANCH   4  27
HETATM   27  C   UNL     1     -41.289  55.544 -51.805  1.00  0.00     0.183 A 
HETATM   28  O   UNL     1     -41.000  54.894 -52.977  1.00  0.00    -0.288 OA
HETATM   29  C   UNL     1     -40.623  53.643 -52.593  1.00  0.00     0.112 A 
HETATM   30  C   UNL     1     -40.729  53.583 -51.215  1.00  0.00     0.094 A 
HETATM   31  C   UNL     1     -40.192  52.605 -53.417  1.00  0.00    -0.025 A 
HETATM   32  N   UNL     1     -41.178  54.786 -50.725  1.00  0.00    -0.221 NA
HETATM   33  C   UNL     1     -40.373  52.396 -50.561  1.00  0.00     0.041 A 
HETATM   34  C   UNL     1     -39.903  51.316 -51.334  1.00  0.00    -0.059 A 
HETATM   35  C   UNL     1     -39.831  51.427 -52.735  1.00  0.00     0.016 A 
HETATM   36  C   UNL     1     -39.508  50.037 -50.653  1.00  0.00     0.048 C 
HETATM   37  C   UNL     1     -40.081  52.710 -54.904  1.00  0.00     0.051 C 
ENDBRANCH   4  27
TORSDOF 9
ENDMDL
