MODEL 1
REMARK VINA RESULT:      -9.1      0.000      0.000
REMARK  7 active torsions:
REMARK  status: ('A' for Active; 'I' for Inactive)
REMARK    1  A    between atoms: C_4  and  C_5 
REMARK    2  A    between atoms: C_9  and  C_10 
REMARK       I    between atoms: C_10  and  N_11 
REMARK    3  A    between atoms: N_11  and  N_12 
REMARK       I    between atoms: N_12  and  C_13 
REMARK    4  A    between atoms: C_13  and  C_14 
REMARK    5  A    between atoms: C_14  and  C_15 
REMARK    6  A    between atoms: C_15  and  N_16 
REMARK    7  A    between atoms: C_15  and  C_20 
REMARK       I    between atoms: N_16  and  C_17 
REMARK       I    between atoms: C_17  and  N_18 
ROOT
HETATM    1  N   UNL     1     -43.640  60.832 -49.398  1.00  0.00    -0.267 N 
HETATM    2  C   UNL     1     -44.922  60.922 -48.902  1.00  0.00     0.238 C 
HETATM    3  O   UNL     1     -45.814  60.134 -49.218  1.00  0.00    -0.272 OA
HETATM    4  H   UNL     1     -42.853  61.312 -48.944  1.00  0.00     0.190 HD
ENDROOT
BRANCH   1   5
HETATM    5  N   UNL     1     -43.351  59.734 -50.217  1.00  0.00    -0.262 N 
HETATM    6  C   UNL     1     -42.053  59.485 -50.605  1.00  0.00     0.288 C 
HETATM    7  O   UNL     1     -41.092  60.101 -50.151  1.00  0.00    -0.264 OA
HETATM    8  H   UNL     1     -44.154  59.289 -50.652  1.00  0.00     0.190 HD
BRANCH   6   9
HETATM    9  C   UNL     1     -41.906  58.448 -51.591  1.00  0.00     0.121 A 
HETATM   10  N   UNL     1     -42.476  58.545 -52.829  1.00  0.00    -0.272 N 
HETATM   11  N   UNL     1     -42.265  57.481 -53.618  1.00  0.00    -0.174 NA
HETATM   12  H   UNL     1     -43.032  59.318 -53.184  1.00  0.00     0.189 HD
HETATM   13  C   UNL     1     -41.513  56.649 -52.878  1.00  0.00     0.089 A 
HETATM   14  C   UNL     1     -41.265  57.225 -51.599  1.00  0.00     0.071 A 
BRANCH  13  15
HETATM   15  C   UNL     1     -41.068  55.346 -53.387  1.00  0.00    -0.006 A 
HETATM   16  C   UNL     1     -40.619  55.196 -54.708  1.00  0.00     0.014 A 
HETATM   17  C   UNL     1     -40.185  53.953 -55.178  1.00  0.00     0.001 A 
HETATM   18  C   UNL     1     -40.193  52.845 -54.336  1.00  0.00     0.000 A 
HETATM   19  C   UNL     1     -40.640  52.975 -53.023  1.00  0.00     0.001 A 
HETATM   20  C   UNL     1     -41.076  54.217 -52.553  1.00  0.00     0.014 A 
ENDBRANCH  13  15
ENDBRANCH   6   9
ENDBRANCH   1   5
BRANCH   2  21
HETATM   21  C   UNL     1     -45.154  62.057 -47.941  1.00  0.00     0.134 C 
BRANCH  21  22
HETATM   22  C   UNL     1     -45.740  61.533 -46.626  1.00  0.00     0.128 C 
BRANCH  22  23
HETATM   23  N   UNL     1     -45.782  60.084 -46.431  1.00  0.00    -0.334 N 
HETATM   24  C   UNL     1     -46.853  59.347 -46.046  1.00  0.00     0.314 C 
HETATM   25  N   UNL     1     -46.621  58.014 -46.099  1.00  0.00    -0.352 N 
HETATM   26  O   UNL     1     -47.915  59.789 -45.635  1.00  0.00    -0.248 OA
HETATM   27  H   UNL     1     -46.049  57.655 -46.849  1.00  0.00     0.160 HD
HETATM   28  H   UNL     1     -47.434  57.450 -45.879  1.00  0.00     0.160 HD
HETATM   29  H   UNL     1     -44.969  59.571 -46.737  1.00  0.00     0.165 HD
ENDBRANCH  22  23
BRANCH  22  30
HETATM   30  C   UNL     1     -45.055  62.195 -45.438  1.00  0.00    -0.035 A 
HETATM   31  C   UNL     1     -44.282  61.422 -44.555  1.00  0.00     0.011 A 
HETATM   32  C   UNL     1     -43.666  62.010 -43.448  1.00  0.00     0.024 A 
HETATM   33  C   UNL     1     -43.818  63.374 -43.213  1.00  0.00     0.034 A 
HETATM   34 CL   UNL     1     -43.061  64.095 -41.847  1.00  0.00    -0.084 Cl
HETATM   35  C   UNL     1     -44.582  64.156 -44.075  1.00  0.00     0.024 A 
HETATM   36  C   UNL     1     -45.201  63.568 -45.182  1.00  0.00     0.011 A 
ENDBRANCH  22  30
ENDBRANCH  21  22
ENDBRANCH   2  21
TORSDOF 7
ENDMDL
MODEL 2
REMARK VINA RESULT:      -9.1      9.531     11.311
REMARK  7 active torsions:
REMARK  status: ('A' for Active; 'I' for Inactive)
REMARK    1  A    between atoms: C_4  and  C_5 
REMARK    2  A    between atoms: C_9  and  C_10 
REMARK       I    between atoms: C_10  and  N_11 
REMARK    3  A    between atoms: N_11  and  N_12 
REMARK       I    between atoms: N_12  and  C_13 
REMARK    4  A    between atoms: C_13  and  C_14 
REMARK    5  A    between atoms: C_14  and  C_15 
REMARK    6  A    between atoms: C_15  and  N_16 
REMARK    7  A    between atoms: C_15  and  C_20 
REMARK       I    between atoms: N_16  and  C_17 
REMARK       I    between atoms: C_17  and  N_18 
ROOT
HETATM    1  N   UNL     1     -42.990  56.892 -58.087  1.00  0.00    -0.267 N 
HETATM    2  C   UNL     1     -42.885  56.874 -59.460  1.00  0.00     0.238 C 
HETATM    3  O   UNL     1     -42.138  56.101 -60.060  1.00  0.00    -0.272 OA
HETATM    4  H   UNL     1     -43.786  57.339 -57.614  1.00  0.00     0.190 HD
ENDROOT
BRANCH   1   5
HETATM    5  N   UNL     1     -42.276  55.916 -57.383  1.00  0.00    -0.262 N 
HETATM    6  C   UNL     1     -42.635  55.594 -56.092  1.00  0.00     0.288 C 
HETATM    7  O   UNL     1     -43.655  56.023 -55.558  1.00  0.00    -0.264 OA
HETATM    8  H   UNL     1     -41.392  55.634 -57.798  1.00  0.00     0.190 HD
BRANCH   6   9
HETATM    9  C   UNL     1     -41.719  54.720 -55.410  1.00  0.00     0.121 A 
HETATM   10  N   UNL     1     -40.369  54.933 -55.430  1.00  0.00    -0.272 N 
HETATM   11  N   UNL     1     -39.656  54.011 -54.768  1.00  0.00    -0.174 NA
HETATM   12  H   UNL     1     -39.881  55.693 -55.894  1.00  0.00     0.189 HD
HETATM   13  C   UNL     1     -40.570  53.158 -54.277  1.00  0.00     0.089 A 
HETATM   14  C   UNL     1     -41.878  53.573 -54.658  1.00  0.00     0.071 A 
BRANCH  13  15
HETATM   15  C   UNL     1     -40.187  51.982 -53.485  1.00  0.00    -0.006 A 
HETATM   16  C   UNL     1     -39.952  52.081 -52.105  1.00  0.00     0.014 A 
HETATM   17  C   UNL     1     -39.601  50.952 -51.358  1.00  0.00     0.001 A 
HETATM   18  C   UNL     1     -39.480  49.713 -51.978  1.00  0.00     0.000 A 
HETATM   19  C   UNL     1     -39.705  49.598 -53.348  1.00  0.00     0.001 A 
HETATM   20  C   UNL     1     -40.055  50.726 -54.095  1.00  0.00     0.014 A 
ENDBRANCH  13  15
ENDBRANCH   6   9
ENDBRANCH   1   5
BRANCH   2  21
HETATM   21  C   UNL     1     -43.755  57.871 -60.178  1.00  0.00     0.134 C 
BRANCH  21  22
HETATM   22  C   UNL     1     -45.163  57.305 -60.382  1.00  0.00     0.128 C 
BRANCH  22  23
HETATM   23  N   UNL     1     -45.404  55.921 -59.975  1.00  0.00    -0.334 N 
HETATM   24  C   UNL     1     -45.191  54.807 -60.717  1.00  0.00     0.314 C 
HETATM   25  N   UNL     1     -45.367  53.664 -60.013  1.00  0.00    -0.352 N 
HETATM   26  O   UNL     1     -44.921  54.782 -61.908  1.00  0.00    -0.248 OA
HETATM   27  H   UNL     1     -45.079  53.645 -59.046  1.00  0.00     0.160 HD
HETATM   28  H   UNL     1     -45.144  52.825 -60.536  1.00  0.00     0.160 HD
HETATM   29  H   UNL     1     -45.630  55.777 -59.002  1.00  0.00     0.165 HD
ENDBRANCH  22  23
BRANCH  22  30
HETATM   30  C   UNL     1     -46.202  58.219 -59.745  1.00  0.00    -0.035 A 
HETATM   31  C   UNL     1     -46.474  58.120 -58.370  1.00  0.00     0.011 A 
HETATM   32  C   UNL     1     -47.440  58.935 -57.775  1.00  0.00     0.024 A 
HETATM   33  C   UNL     1     -48.142  59.855 -58.549  1.00  0.00     0.034 A 
HETATM   34 CL   UNL     1     -49.333  60.856 -57.815  1.00  0.00    -0.084 Cl
HETATM   35  C   UNL     1     -47.887  59.967 -59.913  1.00  0.00     0.024 A 
HETATM   36  C   UNL     1     -46.924  59.150 -60.510  1.00  0.00     0.011 A 
ENDBRANCH  22  30
ENDBRANCH  21  22
ENDBRANCH   2  21
TORSDOF 7
ENDMDL
MODEL 3
REMARK VINA RESULT:      -8.9      7.488     11.351
REMARK  7 active torsions:
REMARK  status: ('A' for Active; 'I' for Inactive)
REMARK    1  A    between atoms: C_4  and  C_5 
REMARK    2  A    between atoms: C_9  and  C_10 
REMARK       I    between atoms: C_10  and  N_11 
REMARK    3  A    between atoms: N_11  and  N_12 
REMARK       I    between atoms: N_12  and  C_13 
REMARK    4  A    between atoms: C_13  and  C_14 
REMARK    5  A    between atoms: C_14  and  C_15 
REMARK    6  A    between atoms: C_15  and  N_16 
REMARK    7  A    between atoms: C_15  and  C_20 
REMARK       I    between atoms: N_16  and  C_17 
REMARK       I    between atoms: C_17  and  N_18 
ROOT
HETATM    1  N   UNL     1     -42.393  55.804 -56.898  1.00  0.00    -0.267 N 
HETATM    2  C   UNL     1     -42.307  54.806 -55.953  1.00  0.00     0.238 C 
HETATM    3  O   UNL     1     -43.253  54.066 -55.680  1.00  0.00    -0.272 OA
HETATM    4  H   UNL     1     -41.552  56.234 -57.303  1.00  0.00     0.190 HD
ENDROOT
BRANCH   1   5
HETATM    5  N   UNL     1     -43.586  55.891 -57.624  1.00  0.00    -0.262 N 
HETATM    6  C   UNL     1     -43.552  56.070 -58.990  1.00  0.00     0.288 C 
HETATM    7  O   UNL     1     -42.513  56.017 -59.643  1.00  0.00    -0.264 OA
HETATM    8  H   UNL     1     -44.428  56.020 -57.070  1.00  0.00     0.190 HD
BRANCH   6   9
HETATM    9  C   UNL     1     -44.830  56.332 -59.597  1.00  0.00     0.121 A 
HETATM   10  N   UNL     1     -45.765  55.349 -59.758  1.00  0.00    -0.272 N 
HETATM   11  N   UNL     1     -46.890  55.754 -60.364  1.00  0.00    -0.174 NA
HETATM   12  H   UNL     1     -45.679  54.376 -59.480  1.00  0.00     0.189 HD
HETATM   13  C   UNL     1     -46.699  57.062 -60.604  1.00  0.00     0.089 A 
HETATM   14  C   UNL     1     -45.416  57.461 -60.131  1.00  0.00     0.071 A 
BRANCH  13  15
HETATM   15  C   UNL     1     -47.715  57.884 -61.274  1.00  0.00    -0.006 A 
HETATM   16  C   UNL     1     -47.850  59.251 -60.986  1.00  0.00     0.014 A 
HETATM   17  C   UNL     1     -48.812  60.027 -61.641  1.00  0.00     0.001 A 
HETATM   18  C   UNL     1     -49.649  59.448 -62.590  1.00  0.00     0.000 A 
HETATM   19  C   UNL     1     -49.531  58.092 -62.885  1.00  0.00     0.001 A 
HETATM   20  C   UNL     1     -48.571  57.316 -62.229  1.00  0.00     0.014 A 
ENDBRANCH  13  15
ENDBRANCH   6   9
ENDBRANCH   1   5
BRANCH   2  21
HETATM   21  C   UNL     1     -40.969  54.684 -55.275  1.00  0.00     0.134 C 
BRANCH  21  22
HETATM   22  C   UNL     1     -41.125  54.802 -53.756  1.00  0.00     0.128 C 
BRANCH  22  23
HETATM   23  N   UNL     1     -42.441  55.171 -53.235  1.00  0.00    -0.334 N 
HETATM   24  C   UNL     1     -42.802  56.369 -52.713  1.00  0.00     0.314 C 
HETATM   25  N   UNL     1     -44.129  56.452 -52.455  1.00  0.00    -0.352 N 
HETATM   26  O   UNL     1     -42.044  57.285 -52.435  1.00  0.00    -0.248 OA
HETATM   27  H   UNL     1     -44.772  56.005 -53.092  1.00  0.00     0.160 HD
HETATM   28  H   UNL     1     -44.424  57.365 -52.128  1.00  0.00     0.160 HD
HETATM   29  H   UNL     1     -43.185  54.509 -53.400  1.00  0.00     0.165 HD
ENDBRANCH  22  23
BRANCH  22  30
HETATM   30  C   UNL     1     -40.634  53.534 -53.070  1.00  0.00    -0.035 A 
HETATM   31  C   UNL     1     -40.614  53.460 -51.667  1.00  0.00     0.011 A 
HETATM   32  C   UNL     1     -40.145  52.312 -51.023  1.00  0.00     0.024 A 
HETATM   33  C   UNL     1     -39.694  51.231 -51.774  1.00  0.00     0.034 A 
HETATM   34 CL   UNL     1     -39.114  49.820 -50.979  1.00  0.00    -0.084 Cl
HETATM   35  C   UNL     1     -39.704  51.287 -53.165  1.00  0.00     0.024 A 
HETATM   36  C   UNL     1     -40.169  52.436 -53.811  1.00  0.00     0.011 A 
ENDBRANCH  22  30
ENDBRANCH  21  22
ENDBRANCH   2  21
TORSDOF 7
ENDMDL
MODEL 4
REMARK VINA RESULT:      -8.7      2.917      4.379
REMARK  7 active torsions:
REMARK  status: ('A' for Active; 'I' for Inactive)
REMARK    1  A    between atoms: C_4  and  C_5 
REMARK    2  A    between atoms: C_9  and  C_10 
REMARK       I    between atoms: C_10  and  N_11 
REMARK    3  A    between atoms: N_11  and  N_12 
REMARK       I    between atoms: N_12  and  C_13 
REMARK    4  A    between atoms: C_13  and  C_14 
REMARK    5  A    between atoms: C_14  and  C_15 
REMARK    6  A    between atoms: C_15  and  N_16 
REMARK    7  A    between atoms: C_15  and  C_20 
REMARK       I    between atoms: N_16  and  C_17 
REMARK       I    between atoms: C_17  and  N_18 
ROOT
HETATM    1  N   UNL     1     -41.326  58.819 -50.010  1.00  0.00    -0.267 N 
HETATM    2  C   UNL     1     -41.653  59.730 -50.989  1.00  0.00     0.238 C 
HETATM    3  O   UNL     1     -41.461  59.517 -52.187  1.00  0.00    -0.272 OA
HETATM    4  H   UNL     1     -41.718  58.883 -49.063  1.00  0.00     0.190 HD
ENDROOT
BRANCH   1   5
HETATM    5  N   UNL     1     -40.845  57.575 -50.434  1.00  0.00    -0.262 N 
HETATM    6  C   UNL     1     -41.717  56.522 -50.613  1.00  0.00     0.288 C 
HETATM    7  O   UNL     1     -42.937  56.650 -50.556  1.00  0.00    -0.264 OA
HETATM    8  H   UNL     1     -39.837  57.457 -50.395  1.00  0.00     0.190 HD
BRANCH   6   9
HETATM    9  C   UNL     1     -41.087  55.254 -50.867  1.00  0.00     0.121 A 
HETATM   10  N   UNL     1     -40.093  54.769 -50.064  1.00  0.00    -0.272 N 
HETATM   11  N   UNL     1     -39.597  53.587 -50.456  1.00  0.00    -0.174 NA
HETATM   12  H   UNL     1     -39.707  55.215 -49.237  1.00  0.00     0.189 HD
HETATM   13  C   UNL     1     -40.298  53.267 -51.556  1.00  0.00     0.089 A 
HETATM   14  C   UNL     1     -41.247  54.290 -51.843  1.00  0.00     0.071 A 
BRANCH  13  15
HETATM   15  C   UNL     1     -40.047  52.028 -52.303  1.00  0.00    -0.006 A 
HETATM   16  C   UNL     1     -39.663  50.848 -51.646  1.00  0.00     0.014 A 
HETATM   17  C   UNL     1     -39.440  49.671 -52.367  1.00  0.00     0.001 A 
HETATM   18  C   UNL     1     -39.598  49.656 -53.749  1.00  0.00     0.000 A 
HETATM   19  C   UNL     1     -39.974  50.819 -54.417  1.00  0.00     0.001 A 
HETATM   20  C   UNL     1     -40.196  51.997 -53.698  1.00  0.00     0.014 A 
ENDBRANCH  13  15
ENDBRANCH   6   9
ENDBRANCH   1   5
BRANCH   2  21
HETATM   21  C   UNL     1     -42.266  61.010 -50.489  1.00  0.00     0.134 C 
BRANCH  21  22
HETATM   22  C   UNL     1     -43.792  60.887 -50.434  1.00  0.00     0.128 C 
BRANCH  22  23
HETATM   23  N   UNL     1     -44.369  59.545 -50.514  1.00  0.00    -0.334 N 
HETATM   24  C   UNL     1     -45.225  59.084 -51.458  1.00  0.00     0.314 C 
HETATM   25  N   UNL     1     -45.464  57.755 -51.348  1.00  0.00    -0.352 N 
HETATM   26  O   UNL     1     -45.789  59.760 -52.304  1.00  0.00    -0.248 OA
HETATM   27  H   UNL     1     -44.705  57.152 -51.067  1.00  0.00     0.160 HD
HETATM   28  H   UNL     1     -46.048  57.384 -52.088  1.00  0.00     0.160 HD
HETATM   29  H   UNL     1     -43.991  58.861 -49.876  1.00  0.00     0.165 HD
ENDBRANCH  22  23
BRANCH  22  30
HETATM   30  C   UNL     1     -44.341  61.613 -49.213  1.00  0.00    -0.035 A 
HETATM   31  C   UNL     1     -44.209  63.008 -49.109  1.00  0.00     0.011 A 
HETATM   32  C   UNL     1     -44.687  63.686 -47.985  1.00  0.00     0.024 A 
HETATM   33  C   UNL     1     -45.300  62.976 -46.956  1.00  0.00     0.034 A 
HETATM   34 CL   UNL     1     -45.886  63.812 -45.571  1.00  0.00    -0.084 Cl
HETATM   35  C   UNL     1     -45.438  61.593 -47.040  1.00  0.00     0.024 A 
HETATM   36  C   UNL     1     -44.958  60.914 -48.163  1.00  0.00     0.011 A 
ENDBRANCH  22  30
ENDBRANCH  21  22
ENDBRANCH   2  21
TORSDOF 7
ENDMDL
MODEL 5
REMARK VINA RESULT:      -8.4      9.718     11.804
REMARK  7 active torsions:
REMARK  status: ('A' for Active; 'I' for Inactive)
REMARK    1  A    between atoms: C_4  and  C_5 
REMARK    2  A    between atoms: C_9  and  C_10 
REMARK       I    between atoms: C_10  and  N_11 
REMARK    3  A    between atoms: N_11  and  N_12 
REMARK       I    between atoms: N_12  and  C_13 
REMARK    4  A    between atoms: C_13  and  C_14 
REMARK    5  A    between atoms: C_14  and  C_15 
REMARK    6  A    between atoms: C_15  and  N_16 
REMARK    7  A    between atoms: C_15  and  C_20 
REMARK       I    between atoms: N_16  and  C_17 
REMARK       I    between atoms: C_17  and  N_18 
ROOT
HETATM    1  N   UNL     1     -43.313  56.780 -58.162  1.00  0.00    -0.267 N 
HETATM    2  C   UNL     1     -43.363  56.647 -59.531  1.00  0.00     0.238 C 
HETATM    3  O   UNL     1     -42.728  55.785 -60.140  1.00  0.00    -0.272 OA
HETATM    4  H   UNL     1     -44.026  57.310 -57.647  1.00  0.00     0.190 HD
ENDROOT
BRANCH   1   5
HETATM    5  N   UNL     1     -42.576  55.821 -57.457  1.00  0.00    -0.262 N 
HETATM    6  C   UNL     1     -42.793  55.637 -56.109  1.00  0.00     0.288 C 
HETATM    7  O   UNL     1     -43.714  56.178 -55.502  1.00  0.00    -0.264 OA
HETATM    8  H   UNL     1     -41.767  55.445 -57.943  1.00  0.00     0.190 HD
BRANCH   6   9
HETATM    9  C   UNL     1     -41.852  54.763 -55.459  1.00  0.00     0.121 A 
HETATM   10  N   UNL     1     -40.509  55.011 -55.476  1.00  0.00    -0.272 N 
HETATM   11  N   UNL     1     -39.771  54.086 -54.847  1.00  0.00    -0.174 NA
HETATM   12  H   UNL     1     -40.041  55.798 -55.916  1.00  0.00     0.189 HD
HETATM   13  C   UNL     1     -40.661  53.194 -54.382  1.00  0.00     0.089 A 
HETATM   14  C   UNL     1     -41.981  53.589 -54.746  1.00  0.00     0.071 A 
BRANCH  13  15
HETATM   15  C   UNL     1     -40.246  52.003 -53.631  1.00  0.00    -0.006 A 
HETATM   16  C   UNL     1     -39.918  52.080 -52.268  1.00  0.00     0.014 A 
HETATM   17  C   UNL     1     -39.536  50.937 -51.560  1.00  0.00     0.001 A 
HETATM   18  C   UNL     1     -39.478  49.703 -52.201  1.00  0.00     0.000 A 
HETATM   19  C   UNL     1     -39.796  49.609 -53.554  1.00  0.00     0.001 A 
HETATM   20  C   UNL     1     -40.176  50.752 -54.263  1.00  0.00     0.014 A 
ENDBRANCH  13  15
ENDBRANCH   6   9
ENDBRANCH   1   5
BRANCH   2  21
HETATM   21  C   UNL     1     -44.254  57.635 -60.235  1.00  0.00     0.134 C 
BRANCH  21  22
HETATM   22  C   UNL     1     -45.611  57.729 -59.530  1.00  0.00     0.128 C 
BRANCH  22  23
HETATM   23  N   UNL     1     -45.764  58.739 -58.483  1.00  0.00    -0.334 N 
HETATM   24  C   UNL     1     -46.525  58.641 -57.365  1.00  0.00     0.314 C 
HETATM   25  N   UNL     1     -46.343  59.678 -56.513  1.00  0.00    -0.352 N 
HETATM   26  O   UNL     1     -47.340  57.762 -57.129  1.00  0.00    -0.248 OA
HETATM   27  H   UNL     1     -45.417  60.066 -56.418  1.00  0.00     0.160 HD
HETATM   28  H   UNL     1     -46.854  59.583 -55.643  1.00  0.00     0.160 HD
HETATM   29  H   UNL     1     -45.143  59.532 -58.537  1.00  0.00     0.165 HD
ENDBRANCH  22  23
BRANCH  22  30
HETATM   30  C   UNL     1     -46.732  57.870 -60.551  1.00  0.00    -0.035 A 
HETATM   31  C   UNL     1     -47.356  56.723 -61.070  1.00  0.00     0.011 A 
HETATM   32  C   UNL     1     -48.370  56.834 -62.024  1.00  0.00     0.024 A 
HETATM   33  C   UNL     1     -48.769  58.092 -62.467  1.00  0.00     0.034 A 
HETATM   34 CL   UNL     1     -50.017  58.228 -63.644  1.00  0.00    -0.084 Cl
HETATM   35  C   UNL     1     -48.162  59.241 -61.966  1.00  0.00     0.024 A 
HETATM   36  C   UNL     1     -47.145  59.130 -61.014  1.00  0.00     0.011 A 
ENDBRANCH  22  30
ENDBRANCH  21  22
ENDBRANCH   2  21
TORSDOF 7
ENDMDL
MODEL 6
REMARK VINA RESULT:      -8.3      3.364      5.137
REMARK  7 active torsions:
REMARK  status: ('A' for Active; 'I' for Inactive)
REMARK    1  A    between atoms: C_4  and  C_5 
REMARK    2  A    between atoms: C_9  and  C_10 
REMARK       I    between atoms: C_10  and  N_11 
REMARK    3  A    between atoms: N_11  and  N_12 
REMARK       I    between atoms: N_12  and  C_13 
REMARK    4  A    between atoms: C_13  and  C_14 
REMARK    5  A    between atoms: C_14  and  C_15 
REMARK    6  A    between atoms: C_15  and  N_16 
REMARK    7  A    between atoms: C_15  and  C_20 
REMARK       I    between atoms: N_16  and  C_17 
REMARK       I    between atoms: C_17  and  N_18 
ROOT
HETATM    1  N   UNL     1     -43.341  58.166 -50.721  1.00  0.00    -0.267 N 
HETATM    2  C   UNL     1     -44.204  58.451 -51.755  1.00  0.00     0.238 C 
HETATM    3  O   UNL     1     -44.409  57.670 -52.685  1.00  0.00    -0.272 OA
HETATM    4  H   UNL     1     -43.371  58.687 -49.836  1.00  0.00     0.190 HD
ENDROOT
BRANCH   1   5
HETATM    5  N   UNL     1     -42.762  56.891 -50.709  1.00  0.00    -0.262 N 
HETATM    6  C   UNL     1     -41.391  56.755 -50.717  1.00  0.00     0.288 C 
HETATM    7  O   UNL     1     -40.626  57.707 -50.590  1.00  0.00    -0.264 OA
HETATM    8  H   UNL     1     -43.397  56.120 -50.900  1.00  0.00     0.190 HD
BRANCH   6   9
HETATM    9  C   UNL     1     -40.920  55.407 -50.893  1.00  0.00     0.121 A 
HETATM   10  N   UNL     1     -40.244  54.745 -49.907  1.00  0.00    -0.272 N 
HETATM   11  N   UNL     1     -39.853  53.508 -50.243  1.00  0.00    -0.174 NA
HETATM   12  H   UNL     1     -40.013  55.101 -48.984  1.00  0.00     0.189 HD
HETATM   13  C   UNL     1     -40.298  53.335 -51.498  1.00  0.00     0.089 A 
HETATM   14  C   UNL     1     -40.977  54.508 -51.939  1.00  0.00     0.071 A 
BRANCH  13  15
HETATM   15  C   UNL     1     -40.062  52.091 -52.241  1.00  0.00    -0.006 A 
HETATM   16  C   UNL     1     -39.674  50.914 -51.584  1.00  0.00     0.014 A 
HETATM   17  C   UNL     1     -39.464  49.731 -52.300  1.00  0.00     0.001 A 
HETATM   18  C   UNL     1     -39.641  49.709 -53.680  1.00  0.00     0.000 A 
HETATM   19  C   UNL     1     -40.022  50.870 -54.349  1.00  0.00     0.001 A 
HETATM   20  C   UNL     1     -40.229  52.053 -53.634  1.00  0.00     0.014 A 
ENDBRANCH  13  15
ENDBRANCH   6   9
ENDBRANCH   1   5
BRANCH   2  21
HETATM   21  C   UNL     1     -44.884  59.791 -51.665  1.00  0.00     0.134 C 
BRANCH  21  22
HETATM   22  C   UNL     1     -43.855  60.898 -51.415  1.00  0.00     0.128 C 
BRANCH  22  23
HETATM   23  N   UNL     1     -43.593  61.840 -52.502  1.00  0.00    -0.334 N 
HETATM   24  C   UNL     1     -42.866  61.606 -53.623  1.00  0.00     0.314 C 
HETATM   25  N   UNL     1     -42.929  62.624 -54.513  1.00  0.00    -0.352 N 
HETATM   26  O   UNL     1     -42.169  60.625 -53.831  1.00  0.00    -0.248 OA
HETATM   27  H   UNL     1     -43.802  63.120 -54.615  1.00  0.00     0.160 HD
HETATM   28  H   UNL     1     -42.447  62.434 -55.384  1.00  0.00     0.160 HD
HETATM   29  H   UNL     1     -44.110  62.706 -52.475  1.00  0.00     0.165 HD
ENDBRANCH  22  23
BRANCH  22  30
HETATM   30  C   UNL     1     -44.194  61.661 -50.141  1.00  0.00    -0.035 A 
HETATM   31  C   UNL     1     -44.954  61.043 -49.134  1.00  0.00     0.011 A 
HETATM   32  C   UNL     1     -45.292  61.737 -47.970  1.00  0.00     0.024 A 
HETATM   33  C   UNL     1     -44.875  63.055 -47.803  1.00  0.00     0.034 A 
HETATM   34 CL   UNL     1     -45.294  63.909 -46.370  1.00  0.00    -0.084 Cl
HETATM   35  C   UNL     1     -44.123  63.685 -48.791  1.00  0.00     0.024 A 
HETATM   36  C   UNL     1     -43.786  62.993 -49.957  1.00  0.00     0.011 A 
ENDBRANCH  22  30
ENDBRANCH  21  22
ENDBRANCH   2  21
TORSDOF 7
ENDMDL
MODEL 7
REMARK VINA RESULT:      -8.3      7.743     10.182
REMARK  7 active torsions:
REMARK  status: ('A' for Active; 'I' for Inactive)
REMARK    1  A    between atoms: C_4  and  C_5 
REMARK    2  A    between atoms: C_9  and  C_10 
REMARK       I    between atoms: C_10  and  N_11 
REMARK    3  A    between atoms: N_11  and  N_12 
REMARK       I    between atoms: N_12  and  C_13 
REMARK    4  A    between atoms: C_13  and  C_14 
REMARK    5  A    between atoms: C_14  and  C_15 
REMARK    6  A    between atoms: C_15  and  N_16 
REMARK    7  A    between atoms: C_15  and  C_20 
REMARK       I    between atoms: N_16  and  C_17 
REMARK       I    between atoms: C_17  and  N_18 
ROOT
HETATM    1  N   UNL     1     -43.790  55.030 -53.804  1.00  0.00    -0.267 N 
HETATM    2  C   UNL     1     -42.952  55.388 -52.772  1.00  0.00     0.238 C 
HETATM    3  O   UNL     1     -42.256  56.404 -52.802  1.00  0.00    -0.272 OA
HETATM    4  H   UNL     1     -44.546  54.347 -53.670  1.00  0.00     0.190 HD
ENDROOT
BRANCH   1   5
HETATM    5  N   UNL     1     -43.902  55.927 -54.872  1.00  0.00    -0.262 N 
HETATM    6  C   UNL     1     -43.154  55.738 -56.014  1.00  0.00     0.288 C 
HETATM    7  O   UNL     1     -42.482  54.728 -56.211  1.00  0.00    -0.264 OA
HETATM    8  H   UNL     1     -44.388  56.795 -54.667  1.00  0.00     0.190 HD
BRANCH   6   9
HETATM    9  C   UNL     1     -43.213  56.820 -56.960  1.00  0.00     0.121 A 
HETATM   10  N   UNL     1     -44.368  57.144 -57.613  1.00  0.00    -0.272 N 
HETATM   11  N   UNL     1     -44.245  58.159 -58.479  1.00  0.00    -0.174 NA
HETATM   12  H   UNL     1     -45.272  56.692 -57.509  1.00  0.00     0.189 HD
HETATM   13  C   UNL     1     -42.958  58.533 -58.389  1.00  0.00     0.089 A 
HETATM   14  C   UNL     1     -42.279  57.715 -57.441  1.00  0.00     0.071 A 
BRANCH  13  15
HETATM   15  C   UNL     1     -42.410  59.628 -59.199  1.00  0.00    -0.006 A 
HETATM   16  C   UNL     1     -41.745  60.712 -58.603  1.00  0.00     0.014 A 
HETATM   17  C   UNL     1     -41.216  61.742 -59.386  1.00  0.00     0.001 A 
HETATM   18  C   UNL     1     -41.342  61.704 -60.772  1.00  0.00     0.000 A 
HETATM   19  C   UNL     1     -42.003  60.639 -61.378  1.00  0.00     0.001 A 
HETATM   20  C   UNL     1     -42.534  59.609 -60.597  1.00  0.00     0.014 A 
ENDBRANCH  13  15
ENDBRANCH   6   9
ENDBRANCH   1   5
BRANCH   2  21
HETATM   21  C   UNL     1     -42.948  54.446 -51.598  1.00  0.00     0.134 C 
BRANCH  21  22
HETATM   22  C   UNL     1     -41.515  54.183 -51.127  1.00  0.00     0.128 C 
BRANCH  22  23
HETATM   23  N   UNL     1     -41.303  53.929 -49.702  1.00  0.00    -0.334 N 
HETATM   24  C   UNL     1     -40.195  54.224 -48.980  1.00  0.00     0.314 C 
HETATM   25  N   UNL     1     -40.357  54.005 -47.654  1.00  0.00    -0.352 N 
HETATM   26  O   UNL     1     -39.124  54.598 -49.434  1.00  0.00    -0.248 OA
HETATM   27  H   UNL     1     -41.255  54.207 -47.239  1.00  0.00     0.160 HD
HETATM   28  H   UNL     1     -39.560  54.287 -47.094  1.00  0.00     0.160 HD
HETATM   29  H   UNL     1     -42.111  53.621 -49.181  1.00  0.00     0.165 HD
ENDBRANCH  22  23
BRANCH  22  30
HETATM   30  C   UNL     1     -40.881  53.068 -51.950  1.00  0.00    -0.035 A 
HETATM   31  C   UNL     1     -41.025  53.059 -53.347  1.00  0.00     0.011 A 
HETATM   32  C   UNL     1     -40.469  52.032 -54.113  1.00  0.00     0.024 A 
HETATM   33  C   UNL     1     -39.765  51.006 -53.489  1.00  0.00     0.034 A 
HETATM   34 CL   UNL     1     -39.083  49.740 -54.434  1.00  0.00    -0.084 Cl
HETATM   35  C   UNL     1     -39.612  50.997 -52.105  1.00  0.00     0.024 A 
HETATM   36  C   UNL     1     -40.171  52.022 -51.338  1.00  0.00     0.011 A 
ENDBRANCH  22  30
ENDBRANCH  21  22
ENDBRANCH   2  21
TORSDOF 7
ENDMDL
MODEL 8
REMARK VINA RESULT:      -8.3      4.665     10.682
REMARK  7 active torsions:
REMARK  status: ('A' for Active; 'I' for Inactive)
REMARK    1  A    between atoms: C_4  and  C_5 
REMARK    2  A    between atoms: C_9  and  C_10 
REMARK       I    between atoms: C_10  and  N_11 
REMARK    3  A    between atoms: N_11  and  N_12 
REMARK       I    between atoms: N_12  and  C_13 
REMARK    4  A    between atoms: C_13  and  C_14 
REMARK    5  A    between atoms: C_14  and  C_15 
REMARK    6  A    between atoms: C_15  and  N_16 
REMARK    7  A    between atoms: C_15  and  C_20 
REMARK       I    between atoms: N_16  and  C_17 
REMARK       I    between atoms: C_17  and  N_18 
ROOT
HETATM    1  N   UNL     1     -44.372  56.548 -51.381  1.00  0.00    -0.267 N 
HETATM    2  C   UNL     1     -43.047  56.194 -51.258  1.00  0.00     0.238 C 
HETATM    3  O   UNL     1     -42.219  56.905 -50.686  1.00  0.00    -0.272 OA
HETATM    4  H   UNL     1     -45.093  55.855 -51.616  1.00  0.00     0.190 HD
ENDROOT
BRANCH   1   5
HETATM    5  N   UNL     1     -44.779  57.722 -50.738  1.00  0.00    -0.262 N 
HETATM    6  C   UNL     1     -45.064  58.851 -51.475  1.00  0.00     0.288 C 
HETATM    7  O   UNL     1     -45.120  58.848 -52.702  1.00  0.00    -0.264 OA
HETATM    8  H   UNL     1     -44.647  57.738 -49.730  1.00  0.00     0.190 HD
BRANCH   6   9
HETATM    9  C   UNL     1     -45.288  60.040 -50.697  1.00  0.00     0.121 A 
HETATM   10  N   UNL     1     -45.370  61.275 -51.275  1.00  0.00    -0.272 N 
HETATM   11  N   UNL     1     -45.555  62.279 -50.406  1.00  0.00    -0.174 NA
HETATM   12  H   UNL     1     -45.296  61.489 -52.266  1.00  0.00     0.189 HD
HETATM   13  C   UNL     1     -45.610  61.685 -49.202  1.00  0.00     0.089 A 
HETATM   14  C   UNL     1     -45.449  60.277 -49.346  1.00  0.00     0.071 A 
BRANCH  13  15
HETATM   15  C   UNL     1     -45.797  62.454 -47.966  1.00  0.00    -0.006 A 
HETATM   16  C   UNL     1     -44.887  63.453 -47.586  1.00  0.00     0.014 A 
HETATM   17  C   UNL     1     -45.083  64.188 -46.413  1.00  0.00     0.001 A 
HETATM   18  C   UNL     1     -46.188  63.937 -45.606  1.00  0.00     0.000 A 
HETATM   19  C   UNL     1     -47.098  62.946 -45.966  1.00  0.00     0.001 A 
HETATM   20  C   UNL     1     -46.902  62.209 -47.137  1.00  0.00     0.014 A 
ENDBRANCH  13  15
ENDBRANCH   6   9
ENDBRANCH   1   5
BRANCH   2  21
HETATM   21  C   UNL     1     -42.681  54.871 -51.874  1.00  0.00     0.134 C 
BRANCH  21  22
HETATM   22  C   UNL     1     -41.340  54.376 -51.323  1.00  0.00     0.128 C 
BRANCH  22  23
HETATM   23  N   UNL     1     -41.274  54.030 -49.904  1.00  0.00    -0.334 N 
HETATM   24  C   UNL     1     -40.228  54.231 -49.065  1.00  0.00     0.314 C 
HETATM   25  N   UNL     1     -40.524  53.943 -47.776  1.00  0.00    -0.352 N 
HETATM   26  O   UNL     1     -39.104  54.580 -49.395  1.00  0.00    -0.248 OA
HETATM   27  H   UNL     1     -41.447  54.162 -47.434  1.00  0.00     0.160 HD
HETATM   28  H   UNL     1     -39.772  54.154 -47.129  1.00  0.00     0.160 HD
HETATM   29  H   UNL     1     -42.139  53.731 -49.479  1.00  0.00     0.165 HD
ENDBRANCH  22  23
BRANCH  22  30
HETATM   30  C   UNL     1     -40.814  53.218 -52.161  1.00  0.00    -0.035 A 
HETATM   31  C   UNL     1     -41.171  53.115 -53.516  1.00  0.00     0.011 A 
HETATM   32  C   UNL     1     -40.716  52.046 -54.292  1.00  0.00     0.024 A 
HETATM   33  C   UNL     1     -39.901  51.073 -53.721  1.00  0.00     0.034 A 
HETATM   34 CL   UNL     1     -39.344  49.756 -54.678  1.00  0.00    -0.084 Cl
HETATM   35  C   UNL     1     -39.538  51.157 -52.379  1.00  0.00     0.024 A 
HETATM   36  C   UNL     1     -39.996  52.224 -51.601  1.00  0.00     0.011 A 
ENDBRANCH  22  30
ENDBRANCH  21  22
ENDBRANCH   2  21
TORSDOF 7
ENDMDL
MODEL 9
REMARK VINA RESULT:      -8.3     19.759     22.679
REMARK  7 active torsions:
REMARK  status: ('A' for Active; 'I' for Inactive)
REMARK    1  A    between atoms: C_4  and  C_5 
REMARK    2  A    between atoms: C_9  and  C_10 
REMARK       I    between atoms: C_10  and  N_11 
REMARK    3  A    between atoms: N_11  and  N_12 
REMARK       I    between atoms: N_12  and  C_13 
REMARK    4  A    between atoms: C_13  and  C_14 
REMARK    5  A    between atoms: C_14  and  C_15 
REMARK    6  A    between atoms: C_15  and  N_16 
REMARK    7  A    between atoms: C_15  and  C_20 
REMARK       I    between atoms: N_16  and  C_17 
REMARK       I    between atoms: C_17  and  N_18 
ROOT
HETATM    1  N   UNL     1     -34.925  40.673 -52.714  1.00  0.00    -0.267 N 
HETATM    2  C   UNL     1     -35.267  41.989 -52.929  1.00  0.00     0.238 C 
HETATM    3  O   UNL     1     -35.108  42.865 -52.077  1.00  0.00    -0.272 OA
HETATM    4  H   UNL     1     -34.813  40.013 -53.494  1.00  0.00     0.190 HD
ENDROOT
BRANCH   1   5
HETATM    5  N   UNL     1     -34.287  40.371 -51.506  1.00  0.00    -0.262 N 
HETATM    6  C   UNL     1     -32.984  39.921 -51.506  1.00  0.00     0.288 C 
HETATM    7  O   UNL     1     -32.286  39.901 -52.516  1.00  0.00    -0.264 OA
HETATM    8  H   UNL     1     -34.894  40.308 -50.693  1.00  0.00     0.190 HD
BRANCH   6   9
HETATM    9  C   UNL     1     -32.502  39.467 -50.228  1.00  0.00     0.121 A 
HETATM   10  N   UNL     1     -32.404  38.139 -49.926  1.00  0.00    -0.272 N 
HETATM   11  N   UNL     1     -31.963  37.888 -48.685  1.00  0.00    -0.174 NA
HETATM   12  H   UNL     1     -32.639  37.358 -50.532  1.00  0.00     0.189 HD
HETATM   13  C   UNL     1     -31.746  39.099 -48.146  1.00  0.00     0.089 A 
HETATM   14  C   UNL     1     -32.071  40.117 -49.089  1.00  0.00     0.071 A 
BRANCH  13  15
HETATM   15  C   UNL     1     -31.257  39.260 -46.771  1.00  0.00    -0.006 A 
HETATM   16  C   UNL     1     -31.697  38.416 -45.739  1.00  0.00     0.014 A 
HETATM   17  C   UNL     1     -31.214  38.571 -44.436  1.00  0.00     0.001 A 
HETATM   18  C   UNL     1     -30.288  39.568 -44.147  1.00  0.00     0.000 A 
HETATM   19  C   UNL     1     -29.844  40.417 -45.158  1.00  0.00     0.001 A 
HETATM   20  C   UNL     1     -30.328  40.265 -46.460  1.00  0.00     0.014 A 
ENDBRANCH  13  15
ENDBRANCH   6   9
ENDBRANCH   1   5
BRANCH   2  21
HETATM   21  C   UNL     1     -35.850  42.283 -54.284  1.00  0.00     0.134 C 
BRANCH  21  22
HETATM   22  C   UNL     1     -36.979  41.300 -54.607  1.00  0.00     0.128 C 
BRANCH  22  23
HETATM   23  N   UNL     1     -38.288  41.546 -54.001  1.00  0.00    -0.334 N 
HETATM   24  C   UNL     1     -38.709  41.131 -52.781  1.00  0.00     0.314 C 
HETATM   25  N   UNL     1     -39.915  41.643 -52.439  1.00  0.00    -0.352 N 
HETATM   26  O   UNL     1     -38.128  40.341 -52.054  1.00  0.00    -0.248 OA
HETATM   27  H   UNL     1     -40.132  42.590 -52.714  1.00  0.00     0.160 HD
HETATM   28  H   UNL     1     -40.211  41.397 -51.502  1.00  0.00     0.160 HD
HETATM   29  H   UNL     1     -38.887  42.196 -54.487  1.00  0.00     0.165 HD
ENDBRANCH  22  23
BRANCH  22  30
HETATM   30  C   UNL     1     -37.130  41.137 -56.113  1.00  0.00    -0.035 A 
HETATM   31  C   UNL     1     -36.370  41.936 -56.984  1.00  0.00     0.011 A 
HETATM   32  C   UNL     1     -36.514  41.814 -58.368  1.00  0.00     0.024 A 
HETATM   33  C   UNL     1     -37.418  40.896 -58.893  1.00  0.00     0.034 A 
HETATM   34 CL   UNL     1     -37.596  40.750 -60.598  1.00  0.00    -0.084 Cl
HETATM   35  C   UNL     1     -38.182  40.097 -58.046  1.00  0.00     0.024 A 
HETATM   36  C   UNL     1     -38.041  40.220 -56.661  1.00  0.00     0.011 A 
ENDBRANCH  22  30
ENDBRANCH  21  22
ENDBRANCH   2  21
TORSDOF 7
ENDMDL
MODEL 10
REMARK VINA RESULT:      -8.2      3.127      4.372
REMARK  7 active torsions:
REMARK  status: ('A' for Active; 'I' for Inactive)
REMARK    1  A    between atoms: C_4  and  C_5 
REMARK    2  A    between atoms: C_9  and  C_10 
REMARK       I    between atoms: C_10  and  N_11 
REMARK    3  A    between atoms: N_11  and  N_12 
REMARK       I    between atoms: N_12  and  C_13 
REMARK    4  A    between atoms: C_13  and  C_14 
REMARK    5  A    between atoms: C_14  and  C_15 
REMARK    6  A    between atoms: C_15  and  N_16 
REMARK    7  A    between atoms: C_15  and  C_20 
REMARK       I    between atoms: N_16  and  C_17 
REMARK       I    between atoms: C_17  and  N_18 
ROOT
HETATM    1  N   UNL     1     -42.672  59.594 -50.267  1.00  0.00    -0.267 N 
HETATM    2  C   UNL     1     -42.447  60.654 -51.115  1.00  0.00     0.238 C 
HETATM    3  O   UNL     1     -41.909  60.524 -52.216  1.00  0.00    -0.272 OA
HETATM    4  H   UNL     1     -43.340  59.659 -49.489  1.00  0.00     0.190 HD
ENDROOT
BRANCH   1   5
HETATM    5  N   UNL     1     -42.350  58.318 -50.745  1.00  0.00    -0.262 N 
HETATM    6  C   UNL     1     -43.288  57.582 -51.436  1.00  0.00     0.288 C 
HETATM    7  O   UNL     1     -44.370  58.044 -51.788  1.00  0.00    -0.264 OA
HETATM    8  H   UNL     1     -41.492  57.916 -50.378  1.00  0.00     0.190 HD
BRANCH   6   9
HETATM    9  C   UNL     1     -42.905  56.223 -51.711  1.00  0.00     0.121 A 
HETATM   10  N   UNL     1     -43.734  55.172 -51.436  1.00  0.00    -0.272 N 
HETATM   11  N   UNL     1     -43.215  53.971 -51.728  1.00  0.00    -0.174 NA
HETATM   12  H   UNL     1     -44.666  55.221 -51.036  1.00  0.00     0.189 HD
HETATM   13  C   UNL     1     -41.997  54.236 -52.230  1.00  0.00     0.089 A 
HETATM   14  C   UNL     1     -41.769  55.642 -52.237  1.00  0.00     0.071 A 
BRANCH  13  15
HETATM   15  C   UNL     1     -41.090  53.168 -52.669  1.00  0.00    -0.006 A 
HETATM   16  C   UNL     1     -40.183  52.572 -51.779  1.00  0.00     0.014 A 
HETATM   17  C   UNL     1     -39.333  51.547 -52.206  1.00  0.00     0.001 A 
HETATM   18  C   UNL     1     -39.380  51.103 -53.524  1.00  0.00     0.000 A 
HETATM   19  C   UNL     1     -40.271  51.686 -54.421  1.00  0.00     0.001 A 
HETATM   20  C   UNL     1     -41.119  52.712 -53.996  1.00  0.00     0.014 A 
ENDBRANCH  13  15
ENDBRANCH   6   9
ENDBRANCH   1   5
BRANCH   2  21
HETATM   21  C   UNL     1     -42.909  61.991 -50.600  1.00  0.00     0.134 C 
BRANCH  21  22
HETATM   22  C   UNL     1     -44.393  62.202 -50.914  1.00  0.00     0.128 C 
BRANCH  22  23
HETATM   23  N   UNL     1     -45.073  61.174 -51.702  1.00  0.00    -0.334 N 
HETATM   24  C   UNL     1     -45.496  61.282 -52.986  1.00  0.00     0.314 C 
HETATM   25  N   UNL     1     -45.956  60.111 -53.487  1.00  0.00    -0.352 N 
HETATM   26  O   UNL     1     -45.531  62.310 -53.644  1.00  0.00    -0.248 OA
HETATM   27  H   UNL     1     -45.494  59.256 -53.216  1.00  0.00     0.160 HD
HETATM   28  H   UNL     1     -46.212  60.160 -54.467  1.00  0.00     0.160 HD
HETATM   29  H   UNL     1     -45.116  60.254 -51.290  1.00  0.00     0.165 HD
ENDBRANCH  22  23
BRANCH  22  30
HETATM   30  C   UNL     1     -45.174  62.475 -49.636  1.00  0.00    -0.035 A 
HETATM   31  C   UNL     1     -44.568  62.266 -48.386  1.00  0.00     0.011 A 
HETATM   32  C   UNL     1     -45.279  62.489 -47.204  1.00  0.00     0.024 A 
HETATM   33  C   UNL     1     -46.601  62.922 -47.262  1.00  0.00     0.034 A 
HETATM   34 CL   UNL     1     -47.476  63.194 -45.806  1.00  0.00    -0.084 Cl
HETATM   35  C   UNL     1     -47.219  63.133 -48.492  1.00  0.00     0.024 A 
HETATM   36  C   UNL     1     -46.510  62.907 -49.675  1.00  0.00     0.011 A 
ENDBRANCH  22  30
ENDBRANCH  21  22
ENDBRANCH   2  21
TORSDOF 7
ENDMDL
