MODEL 1
REMARK VINA RESULT:      -8.6      0.000      0.000
REMARK  4 active torsions:
REMARK  status: ('A' for Active; 'I' for Inactive)
REMARK    1  A    between atoms: O_1  and  C_2 
REMARK    2  A    between atoms: C_2  and  C_3 
REMARK    3  A    between atoms: N_5  and  C_17 
REMARK    4  A    between atoms: C_20  and  C_23 
ROOT
HETATM    1  C   UNL     1     -41.470  59.367 -53.487  1.00  0.00     0.060 C 
HETATM    2  C   UNL     1     -40.601  58.123 -53.294  1.00  0.00     0.141 C 
HETATM    3  N   UNL     1     -41.532  57.042 -53.038  1.00  0.00    -0.316 N 
HETATM    4  C   UNL     1     -42.792  57.551 -52.687  1.00  0.00     0.248 C 
HETATM    5  O   UNL     1     -43.839  56.950 -52.481  1.00  0.00    -0.271 OA
HETATM    6  C   UNL     1     -42.666  59.077 -52.571  1.00  0.00     0.108 A 
HETATM    7  C   UNL     1     -42.386  59.449 -51.089  1.00  0.00     0.076 A 
HETATM    8  C   UNL     1     -43.451  60.455 -50.826  1.00  0.00    -0.035 A 
HETATM    9  C   UNL     1     -43.693  61.166 -49.662  1.00  0.00     0.009 A 
HETATM   10  C   UNL     1     -44.797  62.023 -49.628  1.00  0.00     0.001 A 
HETATM   11  C   UNL     1     -45.636  62.147 -50.745  1.00  0.00     0.002 A 
HETATM   12  C   UNL     1     -45.378  61.419 -51.909  1.00  0.00     0.024 A 
HETATM   13  C   UNL     1     -44.274  60.586 -51.937  1.00  0.00     0.015 A 
HETATM   14  N   UNL     1     -43.917  59.756 -53.029  1.00  0.00    -0.274 NA
HETATM   15  H   UNL     1     -44.669  59.064 -53.133  1.00  0.00     0.129 HD
ENDROOT
BRANCH   3  16
HETATM   16  C   UNL     1     -41.160  55.670 -53.100  1.00  0.00     0.037 A 
HETATM   17  C   UNL     1     -41.105  54.866 -51.955  1.00  0.00     0.030 A 
HETATM   18  C   UNL     1     -40.733  53.515 -52.024  1.00  0.00     0.014 A 
HETATM   19  C   UNL     1     -40.408  52.923 -53.245  1.00  0.00    -0.023 A 
HETATM   20  C   UNL     1     -40.458  53.714 -54.395  1.00  0.00     0.014 A 
HETATM   21  C   UNL     1     -40.820  55.068 -54.321  1.00  0.00     0.030 A 
BRANCH  19  22
HETATM   22  C   UNL     1     -40.037  51.522 -53.330  1.00  0.00     0.010 A 
HETATM   23  C   UNL     1     -39.957  50.651 -54.442  1.00  0.00     0.152 A 
HETATM   24  N   UNL     1     -39.557  49.420 -54.108  1.00  0.00    -0.187 NA
HETATM   25  N   UNL     1     -39.381  49.498 -52.780  1.00  0.00    -0.289 N 
HETATM   26  H   UNL     1     -39.070  48.668 -52.286  1.00  0.00     0.188 HD
HETATM   27  C   UNL     1     -39.652  50.733 -52.266  1.00  0.00     0.123 A 
ENDBRANCH  19  22
ENDBRANCH   3  16
BRANCH   1  28
HETATM   28  C   UNL     1     -41.847  59.553 -54.960  1.00  0.00     0.172 C 
BRANCH  28  29
HETATM   29  O   UNL     1     -42.214  60.914 -55.177  1.00  0.00    -0.400 OA
HETATM   30  H   UNL     1     -41.614  61.258 -55.863  1.00  0.00     0.209 HD
ENDBRANCH  28  29
ENDBRANCH   1  28
TORSDOF 4
ENDMDL
MODEL 2
REMARK VINA RESULT:      -8.0      1.732      1.942
REMARK  4 active torsions:
REMARK  status: ('A' for Active; 'I' for Inactive)
REMARK    1  A    between atoms: O_1  and  C_2 
REMARK    2  A    between atoms: C_2  and  C_3 
REMARK    3  A    between atoms: N_5  and  C_17 
REMARK    4  A    between atoms: C_20  and  C_23 
ROOT
HETATM    1  C   UNL     1     -41.594  58.796 -51.531  1.00  0.00     0.060 C 
HETATM    2  C   UNL     1     -41.169  57.407 -51.050  1.00  0.00     0.141 C 
HETATM    3  N   UNL     1     -41.651  56.488 -52.062  1.00  0.00    -0.316 N 
HETATM    4  C   UNL     1     -42.615  57.109 -52.871  1.00  0.00     0.248 C 
HETATM    5  O   UNL     1     -43.182  56.679 -53.868  1.00  0.00    -0.271 OA
HETATM    6  C   UNL     1     -42.899  58.498 -52.281  1.00  0.00     0.108 A 
HETATM    7  C   UNL     1     -44.125  58.403 -51.333  1.00  0.00     0.076 A 
HETATM    8  C   UNL     1     -45.001  59.481 -51.866  1.00  0.00    -0.035 A 
HETATM    9  C   UNL     1     -46.242  59.890 -51.403  1.00  0.00     0.009 A 
HETATM   10  C   UNL     1     -46.912  60.894 -52.106  1.00  0.00     0.001 A 
HETATM   11  C   UNL     1     -46.340  61.464 -53.253  1.00  0.00     0.002 A 
HETATM   12  C   UNL     1     -45.089  61.038 -53.706  1.00  0.00     0.024 A 
HETATM   13  C   UNL     1     -44.427  60.054 -52.995  1.00  0.00     0.015 A 
HETATM   14  N   UNL     1     -43.178  59.494 -53.362  1.00  0.00    -0.274 NA
HETATM   15  H   UNL     1     -43.324  59.005 -54.254  1.00  0.00     0.129 HD
ENDROOT
BRANCH   3  16
HETATM   16  C   UNL     1     -41.211  55.138 -52.153  1.00  0.00     0.037 A 
HETATM   17  C   UNL     1     -41.063  54.330 -51.020  1.00  0.00     0.030 A 
HETATM   18  C   UNL     1     -40.624  53.001 -51.117  1.00  0.00     0.014 A 
HETATM   19  C   UNL     1     -40.323  52.436 -52.358  1.00  0.00    -0.023 A 
HETATM   20  C   UNL     1     -40.465  53.232 -53.497  1.00  0.00     0.014 A 
HETATM   21  C   UNL     1     -40.894  54.564 -53.394  1.00  0.00     0.030 A 
BRANCH  19  22
HETATM   22  C   UNL     1     -39.883  51.058 -52.472  1.00  0.00     0.010 A 
HETATM   23  C   UNL     1     -39.659  50.248 -53.610  1.00  0.00     0.152 A 
HETATM   24  N   UNL     1     -39.238  49.019 -53.298  1.00  0.00    -0.187 NA
HETATM   25  N   UNL     1     -39.191  49.036 -51.957  1.00  0.00    -0.289 N 
HETATM   26  H   UNL     1     -38.892  48.195 -51.475  1.00  0.00     0.188 HD
HETATM   27  C   UNL     1     -39.566  50.232 -51.414  1.00  0.00     0.123 A 
ENDBRANCH  19  22
ENDBRANCH   3  16
BRANCH   1  28
HETATM   28  C   UNL     1     -40.509  59.434 -52.403  1.00  0.00     0.172 C 
BRANCH  28  29
HETATM   29  O   UNL     1     -39.253  59.325 -51.734  1.00  0.00    -0.400 OA
HETATM   30  H   UNL     1     -39.248  60.007 -51.039  1.00  0.00     0.209 HD
ENDBRANCH  28  29
ENDBRANCH   1  28
TORSDOF 4
ENDMDL
MODEL 3
REMARK VINA RESULT:      -7.6     17.330     19.600
REMARK  4 active torsions:
REMARK  status: ('A' for Active; 'I' for Inactive)
REMARK    1  A    between atoms: O_1  and  C_2 
REMARK    2  A    between atoms: C_2  and  C_3 
REMARK    3  A    between atoms: N_5  and  C_17 
REMARK    4  A    between atoms: C_20  and  C_23 
ROOT
HETATM    1  C   UNL     1     -37.820  41.423 -58.927  1.00  0.00     0.060 C 
HETATM    2  C   UNL     1     -37.548  41.398 -57.421  1.00  0.00     0.141 C 
HETATM    3  N   UNL     1     -36.411  40.516 -57.252  1.00  0.00    -0.316 N 
HETATM    4  C   UNL     1     -36.218  39.736 -58.403  1.00  0.00     0.248 C 
HETATM    5  O   UNL     1     -35.320  38.943 -58.660  1.00  0.00    -0.271 OA
HETATM    6  C   UNL     1     -37.385  40.017 -59.361  1.00  0.00     0.108 A 
HETATM    7  C   UNL     1     -38.493  38.953 -59.134  1.00  0.00     0.076 A 
HETATM    8  C   UNL     1     -38.708  38.443 -60.516  1.00  0.00    -0.035 A 
HETATM    9  C   UNL     1     -39.606  37.481 -60.949  1.00  0.00     0.009 A 
HETATM   10  C   UNL     1     -39.589  37.120 -62.298  1.00  0.00     0.001 A 
HETATM   11  C   UNL     1     -38.678  37.715 -63.183  1.00  0.00     0.002 A 
HETATM   12  C   UNL     1     -37.778  38.682 -62.729  1.00  0.00     0.024 A 
HETATM   13  C   UNL     1     -37.813  39.043 -61.394  1.00  0.00     0.015 A 
HETATM   14  N   UNL     1     -36.933  39.972 -60.786  1.00  0.00    -0.274 NA
HETATM   15  H   UNL     1     -35.991  39.565 -60.838  1.00  0.00     0.129 HD
ENDROOT
BRANCH   3  16
HETATM   16  C   UNL     1     -35.653  40.452 -56.049  1.00  0.00     0.037 A 
HETATM   17  C   UNL     1     -34.314  40.856 -55.997  1.00  0.00     0.030 A 
HETATM   18  C   UNL     1     -33.572  40.785 -54.808  1.00  0.00     0.014 A 
HETATM   19  C   UNL     1     -34.151  40.310 -53.630  1.00  0.00    -0.023 A 
HETATM   20  C   UNL     1     -35.486  39.903 -53.669  1.00  0.00     0.014 A 
HETATM   21  C   UNL     1     -36.222  39.965 -54.862  1.00  0.00     0.030 A 
BRANCH  19  22
HETATM   22  C   UNL     1     -33.397  40.247 -52.391  1.00  0.00     0.010 A 
HETATM   23  C   UNL     1     -32.027  39.990 -52.153  1.00  0.00     0.152 A 
HETATM   24  N   UNL     1     -31.709  40.034 -50.855  1.00  0.00    -0.187 NA
HETATM   25  N   UNL     1     -32.876  40.318 -50.257  1.00  0.00    -0.289 N 
HETATM   26  H   UNL     1     -32.890  40.405 -49.246  1.00  0.00     0.188 HD
HETATM   27  C   UNL     1     -33.916  40.457 -51.131  1.00  0.00     0.123 A 
ENDBRANCH  19  22
ENDBRANCH   3  16
BRANCH   1  28
HETATM   28  C   UNL     1     -37.042  42.552 -59.609  1.00  0.00     0.172 C 
BRANCH  28  29
HETATM   29  O   UNL     1     -37.597  42.782 -60.903  1.00  0.00    -0.400 OA
HETATM   30  H   UNL     1     -38.530  42.506 -60.859  1.00  0.00     0.209 HD
ENDBRANCH  28  29
ENDBRANCH   1  28
TORSDOF 4
ENDMDL
MODEL 4
REMARK VINA RESULT:      -7.6      2.317      8.916
REMARK  4 active torsions:
REMARK  status: ('A' for Active; 'I' for Inactive)
REMARK    1  A    between atoms: O_1  and  C_2 
REMARK    2  A    between atoms: C_2  and  C_3 
REMARK    3  A    between atoms: N_5  and  C_17 
REMARK    4  A    between atoms: C_20  and  C_23 
ROOT
HETATM    1  C   UNL     1     -43.518  54.841 -52.887  1.00  0.00     0.060 C 
HETATM    2  C   UNL     1     -43.839  56.112 -52.099  1.00  0.00     0.141 C 
HETATM    3  N   UNL     1     -42.745  57.021 -52.377  1.00  0.00    -0.316 N 
HETATM    4  C   UNL     1     -41.652  56.326 -52.915  1.00  0.00     0.248 C 
HETATM    5  O   UNL     1     -40.591  56.762 -53.343  1.00  0.00    -0.271 OA
HETATM    6  C   UNL     1     -41.983  54.826 -52.874  1.00  0.00     0.108 A 
HETATM    7  C   UNL     1     -41.404  54.217 -51.569  1.00  0.00     0.076 A 
HETATM    8  C   UNL     1     -40.613  53.072 -52.098  1.00  0.00    -0.035 A 
HETATM    9  C   UNL     1     -39.878  52.134 -51.391  1.00  0.00     0.009 A 
HETATM   10  C   UNL     1     -39.163  51.174 -52.111  1.00  0.00     0.001 A 
HETATM   11  C   UNL     1     -39.187  51.172 -53.514  1.00  0.00     0.002 A 
HETATM   12  C   UNL     1     -39.931  52.128 -54.210  1.00  0.00     0.024 A 
HETATM   13  C   UNL     1     -40.648  53.064 -53.487  1.00  0.00     0.015 A 
HETATM   14  N   UNL     1     -41.407  54.116 -54.058  1.00  0.00    -0.274 NA
HETATM   15  H   UNL     1     -40.742  54.732 -54.541  1.00  0.00     0.129 HD
ENDROOT
BRANCH   3  16
HETATM   16  C   UNL     1     -42.802  58.413 -52.083  1.00  0.00     0.037 A 
HETATM   17  C   UNL     1     -42.116  58.967 -50.996  1.00  0.00     0.030 A 
HETATM   18  C   UNL     1     -42.181  60.340 -50.710  1.00  0.00     0.014 A 
HETATM   19  C   UNL     1     -42.932  61.203 -51.509  1.00  0.00    -0.023 A 
HETATM   20  C   UNL     1     -43.622  60.662 -52.597  1.00  0.00     0.014 A 
HETATM   21  C   UNL     1     -43.563  59.288 -52.873  1.00  0.00     0.030 A 
BRANCH  19  22
HETATM   22  C   UNL     1     -42.993  62.626 -51.232  1.00  0.00     0.010 A 
HETATM   23  C   UNL     1     -42.561  63.370 -50.109  1.00  0.00     0.152 A 
HETATM   24  N   UNL     1     -42.784  64.681 -50.239  1.00  0.00    -0.187 NA
HETATM   25  N   UNL     1     -43.361  64.782 -51.446  1.00  0.00    -0.289 N 
HETATM   26  H   UNL     1     -43.628  65.704 -51.776  1.00  0.00     0.188 HD
HETATM   27  C   UNL     1     -43.507  63.583 -52.081  1.00  0.00     0.123 A 
ENDBRANCH  19  22
ENDBRANCH   3  16
BRANCH   1  28
HETATM   28  C   UNL     1     -44.126  54.894 -54.292  1.00  0.00     0.172 C 
BRANCH  28  29
HETATM   29  O   UNL     1     -45.033  55.993 -54.364  1.00  0.00    -0.400 OA
HETATM   30  H   UNL     1     -45.903  55.620 -54.595  1.00  0.00     0.209 HD
ENDBRANCH  28  29
ENDBRANCH   1  28
TORSDOF 4
ENDMDL
MODEL 5
REMARK VINA RESULT:      -7.6      4.293      8.296
REMARK  4 active torsions:
REMARK  status: ('A' for Active; 'I' for Inactive)
REMARK    1  A    between atoms: O_1  and  C_2 
REMARK    2  A    between atoms: C_2  and  C_3 
REMARK    3  A    between atoms: N_5  and  C_17 
REMARK    4  A    between atoms: C_20  and  C_23 
ROOT
HETATM    1  C   UNL     1     -40.930  56.641 -53.734  1.00  0.00     0.060 C 
HETATM    2  C   UNL     1     -41.311  57.039 -55.161  1.00  0.00     0.141 C 
HETATM    3  N   UNL     1     -42.574  56.377 -55.418  1.00  0.00    -0.316 N 
HETATM    4  C   UNL     1     -42.794  55.356 -54.481  1.00  0.00     0.248 C 
HETATM    5  O   UNL     1     -43.777  54.640 -54.331  1.00  0.00    -0.271 OA
HETATM    6  C   UNL     1     -41.532  55.235 -53.613  1.00  0.00     0.108 A 
HETATM    7  C   UNL     1     -40.611  54.138 -54.212  1.00  0.00     0.076 A 
HETATM    8  C   UNL     1     -40.372  53.267 -53.029  1.00  0.00    -0.035 A 
HETATM    9  C   UNL     1     -39.595  52.124 -52.945  1.00  0.00     0.009 A 
HETATM   10  C   UNL     1     -39.566  51.431 -51.732  1.00  0.00     0.001 A 
HETATM   11  C   UNL     1     -40.313  51.885 -50.635  1.00  0.00     0.002 A 
HETATM   12  C   UNL     1     -41.094  53.039 -50.739  1.00  0.00     0.024 A 
HETATM   13  C   UNL     1     -41.104  53.725 -51.940  1.00  0.00     0.015 A 
HETATM   14  N   UNL     1     -41.881  54.880 -52.203  1.00  0.00    -0.274 NA
HETATM   15  H   UNL     1     -42.866  54.592 -52.152  1.00  0.00     0.129 HD
ENDROOT
BRANCH   3  16
HETATM   16  C   UNL     1     -43.419  56.718 -56.511  1.00  0.00     0.037 A 
HETATM   17  C   UNL     1     -43.331  56.064 -57.746  1.00  0.00     0.030 A 
HETATM   18  C   UNL     1     -44.163  56.410 -58.821  1.00  0.00     0.014 A 
HETATM   19  C   UNL     1     -45.117  57.421 -58.692  1.00  0.00    -0.023 A 
HETATM   20  C   UNL     1     -45.214  58.083 -57.465  1.00  0.00     0.014 A 
HETATM   21  C   UNL     1     -44.372  57.741 -56.396  1.00  0.00     0.030 A 
BRANCH  19  22
HETATM   22  C   UNL     1     -45.994  57.777 -59.792  1.00  0.00     0.010 A 
HETATM   23  C   UNL     1     -47.023  57.044 -60.430  1.00  0.00     0.152 A 
HETATM   24  N   UNL     1     -47.618  57.732 -61.408  1.00  0.00    -0.187 NA
HETATM   25  N   UNL     1     -46.973  58.909 -61.401  1.00  0.00    -0.289 N 
HETATM   26  H   UNL     1     -47.255  59.616 -62.072  1.00  0.00     0.188 HD
HETATM   27  C   UNL     1     -45.994  58.987 -60.453  1.00  0.00     0.123 A 
ENDBRANCH  19  22
ENDBRANCH   3  16
BRANCH   1  28
HETATM   28  C   UNL     1     -41.483  57.643 -52.715  1.00  0.00     0.172 C 
BRANCH  28  29
HETATM   29  O   UNL     1     -40.839  57.433 -51.460  1.00  0.00    -0.400 OA
HETATM   30  H   UNL     1     -40.834  56.471 -51.307  1.00  0.00     0.209 HD
ENDBRANCH  28  29
ENDBRANCH   1  28
TORSDOF 4
ENDMDL
MODEL 6
REMARK VINA RESULT:      -7.5      3.408      4.638
REMARK  4 active torsions:
REMARK  status: ('A' for Active; 'I' for Inactive)
REMARK    1  A    between atoms: O_1  and  C_2 
REMARK    2  A    between atoms: C_2  and  C_3 
REMARK    3  A    between atoms: N_5  and  C_17 
REMARK    4  A    between atoms: C_20  and  C_23 
ROOT
HETATM    1  C   UNL     1     -43.190  58.884 -55.253  1.00  0.00     0.060 C 
HETATM    2  C   UNL     1     -42.935  57.651 -54.384  1.00  0.00     0.141 C 
HETATM    3  N   UNL     1     -42.642  56.580 -55.316  1.00  0.00    -0.316 N 
HETATM    4  C   UNL     1     -43.055  56.929 -56.611  1.00  0.00     0.248 C 
HETATM    5  O   UNL     1     -42.903  56.320 -57.663  1.00  0.00    -0.271 OA
HETATM    6  C   UNL     1     -43.796  58.271 -56.522  1.00  0.00     0.108 A 
HETATM    7  C   UNL     1     -45.319  57.999 -56.385  1.00  0.00     0.076 A 
HETATM    8  C   UNL     1     -45.873  58.833 -57.486  1.00  0.00    -0.035 A 
HETATM    9  C   UNL     1     -47.199  59.013 -57.846  1.00  0.00     0.009 A 
HETATM   10  C   UNL     1     -47.480  59.804 -58.962  1.00  0.00     0.001 A 
HETATM   11  C   UNL     1     -46.441  60.392 -59.698  1.00  0.00     0.002 A 
HETATM   12  C   UNL     1     -45.109  60.198 -59.322  1.00  0.00     0.024 A 
HETATM   13  C   UNL     1     -44.842  59.425 -58.207  1.00  0.00     0.015 A 
HETATM   14  N   UNL     1     -43.544  59.106 -57.738  1.00  0.00    -0.274 NA
HETATM   15  H   UNL     1     -43.099  58.533 -58.465  1.00  0.00     0.129 HD
ENDROOT
BRANCH   3  16
HETATM   16  C   UNL     1     -42.058  55.345 -54.917  1.00  0.00     0.037 A 
HETATM   17  C   UNL     1     -42.721  54.456 -54.062  1.00  0.00     0.030 A 
HETATM   18  C   UNL     1     -42.136  53.242 -53.669  1.00  0.00     0.014 A 
HETATM   19  C   UNL     1     -40.869  52.877 -54.126  1.00  0.00    -0.023 A 
HETATM   20  C   UNL     1     -40.197  53.756 -54.978  1.00  0.00     0.014 A 
HETATM   21  C   UNL     1     -40.780  54.974 -55.360  1.00  0.00     0.030 A 
BRANCH  19  22
HETATM   22  C   UNL     1     -40.262  51.617 -53.739  1.00  0.00     0.010 A 
HETATM   23  C   UNL     1     -40.130  50.398 -54.443  1.00  0.00     0.152 A 
HETATM   24  N   UNL     1     -39.486  49.460 -53.741  1.00  0.00    -0.187 NA
HETATM   25  N   UNL     1     -39.204  50.076 -52.582  1.00  0.00    -0.289 N 
HETATM   26  H   UNL     1     -38.705  49.554 -51.869  1.00  0.00     0.188 HD
HETATM   27  C   UNL     1     -39.645  51.367 -52.531  1.00  0.00     0.123 A 
ENDBRANCH  19  22
ENDBRANCH   3  16
BRANCH   1  28
HETATM   28  C   UNL     1     -41.894  59.663 -55.497  1.00  0.00     0.172 C 
BRANCH  28  29
HETATM   29  O   UNL     1     -42.213  61.035 -55.725  1.00  0.00    -0.400 OA
HETATM   30  H   UNL     1     -41.519  61.389 -56.310  1.00  0.00     0.209 HD
ENDBRANCH  28  29
ENDBRANCH   1  28
TORSDOF 4
ENDMDL
MODEL 7
REMARK VINA RESULT:      -7.5      2.016      3.047
REMARK  4 active torsions:
REMARK  status: ('A' for Active; 'I' for Inactive)
REMARK    1  A    between atoms: O_1  and  C_2 
REMARK    2  A    between atoms: C_2  and  C_3 
REMARK    3  A    between atoms: N_5  and  C_17 
REMARK    4  A    between atoms: C_20  and  C_23 
ROOT
HETATM    1  C   UNL     1     -42.999  58.488 -51.623  1.00  0.00     0.060 C 
HETATM    2  C   UNL     1     -42.967  56.962 -51.525  1.00  0.00     0.141 C 
HETATM    3  N   UNL     1     -42.186  56.522 -52.664  1.00  0.00    -0.316 N 
HETATM    4  C   UNL     1     -42.074  57.552 -53.611  1.00  0.00     0.248 C 
HETATM    5  O   UNL     1     -41.430  57.579 -54.653  1.00  0.00    -0.271 OA
HETATM    6  C   UNL     1     -42.950  58.721 -53.139  1.00  0.00     0.108 A 
HETATM    7  C   UNL     1     -44.348  58.606 -53.805  1.00  0.00     0.076 A 
HETATM    8  C   UNL     1     -44.505  59.957 -54.409  1.00  0.00    -0.035 A 
HETATM    9  C   UNL     1     -45.579  60.460 -55.125  1.00  0.00     0.009 A 
HETATM   10  C   UNL     1     -45.478  61.751 -55.651  1.00  0.00     0.001 A 
HETATM   11  C   UNL     1     -44.313  62.507 -55.460  1.00  0.00     0.002 A 
HETATM   12  C   UNL     1     -43.238  61.983 -54.738  1.00  0.00     0.024 A 
HETATM   13  C   UNL     1     -43.354  60.710 -54.209  1.00  0.00     0.015 A 
HETATM   14  N   UNL     1     -42.332  60.035 -53.497  1.00  0.00    -0.274 NA
HETATM   15  H   UNL     1     -41.560  59.886 -54.158  1.00  0.00     0.129 HD
ENDROOT
BRANCH   3  16
HETATM   16  C   UNL     1     -41.664  55.203 -52.782  1.00  0.00     0.037 A 
HETATM   17  C   UNL     1     -41.826  54.446 -53.949  1.00  0.00     0.030 A 
HETATM   18  C   UNL     1     -41.313  53.144 -54.055  1.00  0.00     0.014 A 
HETATM   19  C   UNL     1     -40.617  52.560 -52.996  1.00  0.00    -0.023 A 
HETATM   20  C   UNL     1     -40.449  53.304 -51.826  1.00  0.00     0.014 A 
HETATM   21  C   UNL     1     -40.973  54.602 -51.719  1.00  0.00     0.030 A 
BRANCH  19  22
HETATM   22  C   UNL     1     -40.069  51.220 -53.102  1.00  0.00     0.010 A 
HETATM   23  C   UNL     1     -39.822  50.407 -54.233  1.00  0.00     0.152 A 
HETATM   24  N   UNL     1     -39.289  49.224 -53.914  1.00  0.00    -0.187 NA
HETATM   25  N   UNL     1     -39.192  49.274 -52.576  1.00  0.00    -0.289 N 
HETATM   26  H   UNL     1     -38.806  48.471 -52.091  1.00  0.00     0.188 HD
HETATM   27  C   UNL     1     -39.643  50.447 -52.042  1.00  0.00     0.123 A 
ENDBRANCH  19  22
ENDBRANCH   3  16
BRANCH   1  28
HETATM   28  C   UNL     1     -41.826  59.114 -50.861  1.00  0.00     0.172 C 
BRANCH  28  29
HETATM   29  O   UNL     1     -41.352  58.181 -49.892  1.00  0.00    -0.400 OA
HETATM   30  H   UNL     1     -41.357  58.644 -49.035  1.00  0.00     0.209 HD
ENDBRANCH  28  29
ENDBRANCH   1  28
TORSDOF 4
ENDMDL
MODEL 8
REMARK VINA RESULT:      -7.4      2.823      9.375
REMARK  4 active torsions:
REMARK  status: ('A' for Active; 'I' for Inactive)
REMARK    1  A    between atoms: O_1  and  C_2 
REMARK    2  A    between atoms: C_2  and  C_3 
REMARK    3  A    between atoms: N_5  and  C_17 
REMARK    4  A    between atoms: C_20  and  C_23 
ROOT
HETATM    1  C   UNL     1     -40.950  59.020 -52.213  1.00  0.00     0.060 C 
HETATM    2  C   UNL     1     -41.930  60.192 -52.154  1.00  0.00     0.141 C 
HETATM    3  N   UNL     1     -43.120  59.665 -51.517  1.00  0.00    -0.316 N 
HETATM    4  C   UNL     1     -43.107  58.261 -51.535  1.00  0.00     0.248 C 
HETATM    5  O   UNL     1     -43.894  57.473 -51.026  1.00  0.00    -0.271 OA
HETATM    6  C   UNL     1     -41.888  57.814 -52.357  1.00  0.00     0.108 A 
HETATM    7  C   UNL     1     -42.331  57.574 -53.826  1.00  0.00     0.076 A 
HETATM    8  C   UNL     1     -41.826  56.196 -54.070  1.00  0.00    -0.035 A 
HETATM    9  C   UNL     1     -41.907  55.443 -55.230  1.00  0.00     0.009 A 
HETATM   10  C   UNL     1     -41.409  54.138 -55.208  1.00  0.00     0.001 A 
HETATM   11  C   UNL     1     -40.850  53.609 -54.035  1.00  0.00     0.002 A 
HETATM   12  C   UNL     1     -40.779  54.382 -52.874  1.00  0.00     0.024 A 
HETATM   13  C   UNL     1     -41.262  55.678 -52.911  1.00  0.00     0.015 A 
HETATM   14  N   UNL     1     -41.297  56.558 -51.801  1.00  0.00    -0.274 NA
HETATM   15  H   UNL     1     -41.942  56.145 -51.116  1.00  0.00     0.129 HD
ENDROOT
BRANCH   3  16
HETATM   16  C   UNL     1     -44.155  60.495 -51.002  1.00  0.00     0.037 A 
HETATM   17  C   UNL     1     -45.353  60.700 -51.697  1.00  0.00     0.030 A 
HETATM   18  C   UNL     1     -46.367  61.524 -51.185  1.00  0.00     0.014 A 
HETATM   19  C   UNL     1     -46.215  62.166 -49.955  1.00  0.00    -0.023 A 
HETATM   20  C   UNL     1     -45.024  61.970 -49.252  1.00  0.00     0.014 A 
HETATM   21  C   UNL     1     -44.008  61.154 -49.772  1.00  0.00     0.030 A 
BRANCH  19  22
HETATM   22  C   UNL     1     -47.263  63.008 -49.408  1.00  0.00     0.010 A 
HETATM   23  C   UNL     1     -48.101  63.963 -50.029  1.00  0.00     0.152 A 
HETATM   24  N   UNL     1     -48.963  64.527 -49.177  1.00  0.00    -0.187 NA
HETATM   25  N   UNL     1     -48.680  63.935 -48.007  1.00  0.00    -0.289 N 
HETATM   26  H   UNL     1     -49.216  64.205 -47.189  1.00  0.00     0.188 HD
HETATM   27  C   UNL     1     -47.672  63.018 -48.091  1.00  0.00     0.123 A 
ENDBRANCH  19  22
ENDBRANCH   3  16
BRANCH   1  28
HETATM   28  C   UNL     1     -40.069  58.974 -50.961  1.00  0.00     0.172 C 
BRANCH  28  29
HETATM   29  O   UNL     1     -38.856  59.679 -51.221  1.00  0.00    -0.400 OA
HETATM   30  H   UNL     1     -38.184  59.305 -50.624  1.00  0.00     0.209 HD
ENDBRANCH  28  29
ENDBRANCH   1  28
TORSDOF 4
ENDMDL
MODEL 9
REMARK VINA RESULT:      -7.2      2.597      9.267
REMARK  4 active torsions:
REMARK  status: ('A' for Active; 'I' for Inactive)
REMARK    1  A    between atoms: O_1  and  C_2 
REMARK    2  A    between atoms: C_2  and  C_3 
REMARK    3  A    between atoms: N_5  and  C_17 
REMARK    4  A    between atoms: C_20  and  C_23 
ROOT
HETATM    1  C   UNL     1     -40.834  58.570 -52.309  1.00  0.00     0.060 C 
HETATM    2  C   UNL     1     -41.820  59.706 -52.586  1.00  0.00     0.141 C 
HETATM    3  N   UNL     1     -43.059  59.301 -51.951  1.00  0.00    -0.316 N 
HETATM    4  C   UNL     1     -43.038  57.928 -51.664  1.00  0.00     0.248 C 
HETATM    5  O   UNL     1     -43.863  57.249 -51.064  1.00  0.00    -0.271 OA
HETATM    6  C   UNL     1     -41.752  57.342 -52.266  1.00  0.00     0.108 A 
HETATM    7  C   UNL     1     -42.066  56.782 -53.680  1.00  0.00     0.076 A 
HETATM    8  C   UNL     1     -41.537  55.395 -53.579  1.00  0.00    -0.035 A 
HETATM    9  C   UNL     1     -41.515  54.409 -54.552  1.00  0.00     0.009 A 
HETATM   10  C   UNL     1     -41.016  53.151 -54.207  1.00  0.00     0.001 A 
HETATM   11  C   UNL     1     -40.557  52.898 -52.906  1.00  0.00     0.002 A 
HETATM   12  C   UNL     1     -40.589  53.904 -51.936  1.00  0.00     0.024 A 
HETATM   13  C   UNL     1     -41.072  55.151 -52.292  1.00  0.00     0.015 A 
HETATM   14  N   UNL     1     -41.206  56.248 -51.405  1.00  0.00    -0.274 NA
HETATM   15  H   UNL     1     -41.906  55.977 -50.704  1.00  0.00     0.129 HD
ENDROOT
BRANCH   3  16
HETATM   16  C   UNL     1     -44.137  60.199 -51.715  1.00  0.00     0.037 A 
HETATM   17  C   UNL     1     -44.104  61.137 -50.676  1.00  0.00     0.030 A 
HETATM   18  C   UNL     1     -45.174  62.016 -50.446  1.00  0.00     0.014 A 
HETATM   19  C   UNL     1     -46.311  61.987 -51.255  1.00  0.00    -0.023 A 
HETATM   20  C   UNL     1     -46.357  61.055 -52.294  1.00  0.00     0.014 A 
HETATM   21  C   UNL     1     -45.290  60.170 -52.514  1.00  0.00     0.030 A 
BRANCH  19  22
HETATM   22  C   UNL     1     -47.416  62.901 -51.036  1.00  0.00     0.010 A 
HETATM   23  C   UNL     1     -47.790  63.646 -49.893  1.00  0.00     0.152 A 
HETATM   24  N   UNL     1     -48.877  64.395 -50.095  1.00  0.00    -0.187 NA
HETATM   25  N   UNL     1     -49.206  64.133 -51.369  1.00  0.00    -0.289 N 
HETATM   26  H   UNL     1     -50.018  64.597 -51.762  1.00  0.00     0.188 HD
HETATM   27  C   UNL     1     -48.363  63.248 -51.977  1.00  0.00     0.123 A 
ENDBRANCH  19  22
ENDBRANCH   3  16
BRANCH   1  28
HETATM   28  C   UNL     1     -40.064  58.815 -51.007  1.00  0.00     0.172 C 
BRANCH  28  29
HETATM   29  O   UNL     1     -38.880  59.554 -51.300  1.00  0.00    -0.400 OA
HETATM   30  H   UNL     1     -39.167  60.449 -51.558  1.00  0.00     0.209 HD
ENDBRANCH  28  29
ENDBRANCH   1  28
TORSDOF 4
ENDMDL
MODEL 10
REMARK VINA RESULT:      -7.2      5.118      7.081
REMARK  4 active torsions:
REMARK  status: ('A' for Active; 'I' for Inactive)
REMARK    1  A    between atoms: O_1  and  C_2 
REMARK    2  A    between atoms: C_2  and  C_3 
REMARK    3  A    between atoms: N_5  and  C_17 
REMARK    4  A    between atoms: C_20  and  C_23 
ROOT
HETATM    1  C   UNL     1     -43.741  56.189 -60.013  1.00  0.00     0.060 C 
HETATM    2  C   UNL     1     -42.908  55.422 -58.984  1.00  0.00     0.141 C 
HETATM    3  N   UNL     1     -43.013  56.189 -57.759  1.00  0.00    -0.316 N 
HETATM    4  C   UNL     1     -43.481  57.485 -58.028  1.00  0.00     0.248 C 
HETATM    5  O   UNL     1     -43.770  58.382 -57.245  1.00  0.00    -0.271 OA
HETATM    6  C   UNL     1     -43.573  57.643 -59.553  1.00  0.00     0.108 A 
HETATM    7  C   UNL     1     -42.258  58.286 -60.073  1.00  0.00     0.076 A 
HETATM    8  C   UNL     1     -42.778  59.436 -60.861  1.00  0.00    -0.035 A 
HETATM    9  C   UNL     1     -42.062  60.374 -61.588  1.00  0.00     0.009 A 
HETATM   10  C   UNL     1     -42.768  61.410 -62.206  1.00  0.00     0.001 A 
HETATM   11  C   UNL     1     -44.162  61.494 -62.084  1.00  0.00     0.002 A 
HETATM   12  C   UNL     1     -44.867  60.540 -61.345  1.00  0.00     0.024 A 
HETATM   13  C   UNL     1     -44.161  59.511 -60.749  1.00  0.00     0.015 A 
HETATM   14  N   UNL     1     -44.735  58.503 -59.935  1.00  0.00    -0.274 NA
HETATM   15  H   UNL     1     -45.107  58.973 -59.101  1.00  0.00     0.129 HD
ENDROOT
BRANCH   3  16
HETATM   16  C   UNL     1     -42.636  55.672 -56.488  1.00  0.00     0.037 A 
HETATM   17  C   UNL     1     -41.791  56.379 -55.623  1.00  0.00     0.030 A 
HETATM   18  C   UNL     1     -41.420  55.860 -54.373  1.00  0.00     0.014 A 
HETATM   19  C   UNL     1     -41.888  54.617 -53.946  1.00  0.00    -0.023 A 
HETATM   20  C   UNL     1     -42.731  53.901 -54.800  1.00  0.00     0.014 A 
HETATM   21  C   UNL     1     -43.091  54.418 -56.054  1.00  0.00     0.030 A 
BRANCH  19  22
HETATM   22  C   UNL     1     -41.523  54.078 -52.649  1.00  0.00     0.010 A 
HETATM   23  C   UNL     1     -40.399  53.321 -52.244  1.00  0.00     0.152 A 
HETATM   24  N   UNL     1     -40.418  53.022 -50.942  1.00  0.00    -0.187 NA
HETATM   25  N   UNL     1     -41.555  53.586 -50.507  1.00  0.00    -0.289 N 
HETATM   26  H   UNL     1     -41.794  53.493 -49.525  1.00  0.00     0.188 HD
HETATM   27  C   UNL     1     -42.252  54.231 -51.488  1.00  0.00     0.123 A 
ENDBRANCH  19  22
ENDBRANCH   3  16
BRANCH   1  28
HETATM   28  C   UNL     1     -45.193  55.704 -60.018  1.00  0.00     0.172 C 
BRANCH  28  29
HETATM   29  O   UNL     1     -45.776  55.996 -61.287  1.00  0.00    -0.400 OA
HETATM   30  H   UNL     1     -46.187  56.876 -61.209  1.00  0.00     0.209 HD
ENDBRANCH  28  29
ENDBRANCH   1  28
TORSDOF 4
ENDMDL
