MODEL 1
REMARK VINA RESULT:      -9.1      0.000      0.000
REMARK  4 active torsions:
REMARK  status: ('A' for Active; 'I' for Inactive)
REMARK    1  A    between atoms: C_4  and  S_5 
REMARK    2  A    between atoms: S_5  and  C_6 
REMARK    3  A    between atoms: C_6  and  C_7 
REMARK    4  A    between atoms: C_23  and  N_24 
ROOT
HETATM    1  C   UNL     1     -41.483  55.477 -53.586  1.00  0.00    -0.029 C 
HETATM    2  C   UNL     1     -40.975  54.448 -52.612  1.00  0.00     0.016 A 
HETATM    3  C   UNL     1     -40.870  54.879 -51.276  1.00  0.00     0.091 A 
HETATM    4  C   UNL     1     -40.318  54.104 -50.260  1.00  0.00     0.039 A 
HETATM    5  C   UNL     1     -39.855  52.836 -50.555  1.00  0.00     0.015 A 
HETATM    6  C   UNL     1     -39.980  52.316 -51.844  1.00  0.00    -0.025 A 
HETATM    7  C   UNL     1     -40.567  53.086 -52.896  1.00  0.00    -0.012 A 
HETATM    8  C   UNL     1     -39.523  51.003 -52.058  1.00  0.00     0.012 A 
HETATM    9  C   UNL     1     -39.645  50.387 -53.296  1.00  0.00     0.001 A 
HETATM   10  C   UNL     1     -40.251  51.075 -54.329  1.00  0.00     0.001 A 
HETATM   11  C   UNL     1     -40.709  52.383 -54.128  1.00  0.00     0.013 A 
HETATM   12  O   UNL     1     -41.348  56.125 -50.825  1.00  0.00    -0.275 OA
HETATM   13  C   UNL     1     -42.025  56.972 -51.668  1.00  0.00     0.288 C 
HETATM   14  O   UNL     1     -42.572  57.996 -51.279  1.00  0.00    -0.260 OA
HETATM   15  C   UNL     1     -42.000  56.616 -53.086  1.00  0.00     0.091 C 
ENDROOT
BRANCH   1  16
HETATM   16  C   UNL     1     -41.374  55.241 -55.078  1.00  0.00     0.122 C 
BRANCH  16  17
HETATM   17  S   UNL     1     -42.910  54.796 -55.946  1.00  0.00    -0.085 SA
BRANCH  17  18
HETATM   18  C   UNL     1     -42.856  55.995 -57.257  1.00  0.00     0.190 A 
HETATM   19  N   UNL     1     -42.402  57.215 -56.930  1.00  0.00    -0.228 NA
HETATM   20  C   UNL     1     -42.373  58.137 -57.912  1.00  0.00     0.036 A 
HETATM   21  C   UNL     1     -41.882  59.508 -57.560  1.00  0.00     0.070 C 
HETATM   22  C   UNL     1     -42.775  57.848 -59.198  1.00  0.00     0.071 A 
HETATM   23  C   UNL     1     -43.204  56.562 -59.436  1.00  0.00     0.105 A 
HETATM   24  N   UNL     1     -43.263  55.628 -58.483  1.00  0.00    -0.211 NA
BRANCH  23  25
HETATM   25  N   UNL     1     -43.652  56.190 -60.703  1.00  0.00    -0.287 NA
HETATM   26  H   UNL     1     -44.655  56.040 -60.649  1.00  0.00     0.125 HD
HETATM   27  H   UNL     1     -43.168  55.370 -61.052  1.00  0.00     0.125 HD
ENDBRANCH  23  25
ENDBRANCH  17  18
ENDBRANCH  16  17
ENDBRANCH   1  16
TORSDOF 4
ENDMDL
MODEL 2
REMARK VINA RESULT:      -9.0      1.490      1.671
REMARK  4 active torsions:
REMARK  status: ('A' for Active; 'I' for Inactive)
REMARK    1  A    between atoms: C_4  and  S_5 
REMARK    2  A    between atoms: S_5  and  C_6 
REMARK    3  A    between atoms: C_6  and  C_7 
REMARK    4  A    between atoms: C_23  and  N_24 
ROOT
HETATM    1  C   UNL     1     -42.971  55.770 -53.265  1.00  0.00    -0.029 C 
HETATM    2  C   UNL     1     -42.209  54.844 -52.356  1.00  0.00     0.016 A 
HETATM    3  C   UNL     1     -42.335  55.109 -50.979  1.00  0.00     0.091 A 
HETATM    4  C   UNL     1     -41.620  54.429 -49.998  1.00  0.00     0.039 A 
HETATM    5  C   UNL     1     -40.744  53.428 -50.373  1.00  0.00     0.015 A 
HETATM    6  C   UNL     1     -40.610  53.068 -51.714  1.00  0.00    -0.025 A 
HETATM    7  C   UNL     1     -41.355  53.736 -52.736  1.00  0.00    -0.012 A 
HETATM    8  C   UNL     1     -39.730  52.012 -52.014  1.00  0.00     0.012 A 
HETATM    9  C   UNL     1     -39.564  51.556 -53.315  1.00  0.00     0.001 A 
HETATM   10  C   UNL     1     -40.301  52.139 -54.328  1.00  0.00     0.001 A 
HETATM   11  C   UNL     1     -41.180  53.191 -54.041  1.00  0.00     0.013 A 
HETATM   12  O   UNL     1     -43.228  56.064 -50.453  1.00  0.00    -0.275 OA
HETATM   13  C   UNL     1     -44.095  56.748 -51.269  1.00  0.00     0.288 C 
HETATM   14  O   UNL     1     -44.975  57.481 -50.834  1.00  0.00    -0.260 OA
HETATM   15  C   UNL     1     -43.867  56.606 -52.706  1.00  0.00     0.091 C 
ENDROOT
BRANCH   1  16
HETATM   16  C   UNL     1     -42.699  55.778 -54.756  1.00  0.00     0.122 C 
BRANCH  16  17
HETATM   17  S   UNL     1     -42.391  57.400 -55.518  1.00  0.00    -0.085 SA
BRANCH  17  18
HETATM   18  C   UNL     1     -42.683  56.978 -57.220  1.00  0.00     0.190 A 
HETATM   19  N   UNL     1     -42.188  57.824 -58.137  1.00  0.00    -0.228 NA
HETATM   20  C   UNL     1     -42.418  57.523 -59.429  1.00  0.00     0.036 A 
HETATM   21  C   UNL     1     -41.885  58.465 -60.465  1.00  0.00     0.070 C 
HETATM   22  C   UNL     1     -43.116  56.395 -59.805  1.00  0.00     0.071 A 
HETATM   23  C   UNL     1     -43.564  55.581 -58.790  1.00  0.00     0.105 A 
HETATM   24  N   UNL     1     -43.369  55.857 -57.498  1.00  0.00    -0.211 NA
BRANCH  23  25
HETATM   25  N   UNL     1     -44.299  54.432 -59.079  1.00  0.00    -0.287 NA
HETATM   26  H   UNL     1     -43.712  53.626 -58.884  1.00  0.00     0.125 HD
HETATM   27  H   UNL     1     -44.637  54.428 -60.035  1.00  0.00     0.125 HD
ENDBRANCH  23  25
ENDBRANCH  17  18
ENDBRANCH  16  17
ENDBRANCH   1  16
TORSDOF 4
ENDMDL
MODEL 3
REMARK VINA RESULT:      -9.0      3.911      5.487
REMARK  4 active torsions:
REMARK  status: ('A' for Active; 'I' for Inactive)
REMARK    1  A    between atoms: C_4  and  S_5 
REMARK    2  A    between atoms: S_5  and  C_6 
REMARK    3  A    between atoms: C_6  and  C_7 
REMARK    4  A    between atoms: C_23  and  N_24 
ROOT
HETATM    1  C   UNL     1     -40.221  52.493 -53.548  1.00  0.00    -0.029 C 
HETATM    2  C   UNL     1     -40.214  52.155 -52.082  1.00  0.00     0.016 A 
HETATM    3  C   UNL     1     -40.076  50.786 -51.777  1.00  0.00     0.091 A 
HETATM    4  C   UNL     1     -40.158  50.275 -50.485  1.00  0.00     0.039 A 
HETATM    5  C   UNL     1     -40.372  51.140 -49.430  1.00  0.00     0.015 A 
HETATM    6  C   UNL     1     -40.459  52.516 -49.646  1.00  0.00    -0.025 A 
HETATM    7  C   UNL     1     -40.352  53.065 -50.962  1.00  0.00    -0.012 A 
HETATM    8  C   UNL     1     -40.637  53.337 -48.517  1.00  0.00     0.012 A 
HETATM    9  C   UNL     1     -40.691  54.719 -48.630  1.00  0.00     0.001 A 
HETATM   10  C   UNL     1     -40.542  55.297 -49.876  1.00  0.00     0.001 A 
HETATM   11  C   UNL     1     -40.366  54.489 -51.007  1.00  0.00     0.013 A 
HETATM   12  O   UNL     1     -39.803  49.802 -52.748  1.00  0.00    -0.275 OA
HETATM   13  C   UNL     1     -39.576  50.142 -54.059  1.00  0.00     0.288 C 
HETATM   14  O   UNL     1     -39.202  49.332 -54.898  1.00  0.00    -0.260 OA
HETATM   15  C   UNL     1     -39.874  51.527 -54.420  1.00  0.00     0.091 C 
ENDROOT
BRANCH   1  16
HETATM   16  C   UNL     1     -40.645  53.871 -54.015  1.00  0.00     0.122 C 
BRANCH  16  17
HETATM   17  S   UNL     1     -42.430  54.139 -54.243  1.00  0.00    -0.085 SA
BRANCH  17  18
HETATM   18  C   UNL     1     -42.628  55.607 -53.260  1.00  0.00     0.190 A 
HETATM   19  N   UNL     1     -41.764  56.606 -53.501  1.00  0.00    -0.228 NA
HETATM   20  C   UNL     1     -41.894  57.716 -52.750  1.00  0.00     0.036 A 
HETATM   21  C   UNL     1     -40.929  58.835 -52.997  1.00  0.00     0.070 C 
HETATM   22  C   UNL     1     -42.873  57.838 -51.786  1.00  0.00     0.071 A 
HETATM   23  C   UNL     1     -43.722  56.766 -51.631  1.00  0.00     0.105 A 
HETATM   24  N   UNL     1     -43.611  55.642 -52.346  1.00  0.00    -0.211 NA
BRANCH  23  25
HETATM   25  N   UNL     1     -44.724  56.793 -50.662  1.00  0.00    -0.287 NA
HETATM   26  H   UNL     1     -45.248  55.926 -50.728  1.00  0.00     0.125 HD
HETATM   27  H   UNL     1     -45.326  57.604 -50.762  1.00  0.00     0.125 HD
ENDBRANCH  23  25
ENDBRANCH  17  18
ENDBRANCH  16  17
ENDBRANCH   1  16
TORSDOF 4
ENDMDL
MODEL 4
REMARK VINA RESULT:      -9.0      1.011      1.966
REMARK  4 active torsions:
REMARK  status: ('A' for Active; 'I' for Inactive)
REMARK    1  A    between atoms: C_4  and  S_5 
REMARK    2  A    between atoms: S_5  and  C_6 
REMARK    3  A    between atoms: C_6  and  C_7 
REMARK    4  A    between atoms: C_23  and  N_24 
ROOT
HETATM    1  C   UNL     1     -41.545  55.818 -53.461  1.00  0.00    -0.029 C 
HETATM    2  C   UNL     1     -41.067  54.745 -52.520  1.00  0.00     0.016 A 
HETATM    3  C   UNL     1     -41.038  55.102 -51.158  1.00  0.00     0.091 A 
HETATM    4  C   UNL     1     -40.524  54.281 -50.160  1.00  0.00     0.039 A 
HETATM    5  C   UNL     1     -40.023  53.038 -50.499  1.00  0.00     0.015 A 
HETATM    6  C   UNL     1     -40.073  52.590 -51.820  1.00  0.00    -0.025 A 
HETATM    7  C   UNL     1     -40.620  53.408 -52.857  1.00  0.00    -0.012 A 
HETATM    8  C   UNL     1     -39.581  51.298 -52.081  1.00  0.00     0.012 A 
HETATM    9  C   UNL     1     -39.629  50.750 -53.356  1.00  0.00     0.001 A 
HETATM   10  C   UNL     1     -40.194  51.485 -54.380  1.00  0.00     0.001 A 
HETATM   11  C   UNL     1     -40.686  52.773 -54.131  1.00  0.00     0.013 A 
HETATM   12  O   UNL     1     -41.562  56.314 -50.666  1.00  0.00    -0.275 OA
HETATM   13  C   UNL     1     -42.211  57.195 -51.495  1.00  0.00     0.288 C 
HETATM   14  O   UNL     1     -42.797  58.188 -51.079  1.00  0.00    -0.260 OA
HETATM   15  C   UNL     1     -42.108  56.919 -52.927  1.00  0.00     0.091 C 
ENDROOT
BRANCH   1  16
HETATM   16  C   UNL     1     -41.356  55.668 -54.956  1.00  0.00     0.122 C 
BRANCH  16  17
HETATM   17  S   UNL     1     -42.854  55.785 -55.981  1.00  0.00    -0.085 SA
BRANCH  17  18
HETATM   18  C   UNL     1     -42.484  57.285 -56.860  1.00  0.00     0.190 A 
HETATM   19  N   UNL     1     -42.379  57.182 -58.195  1.00  0.00    -0.228 NA
HETATM   20  C   UNL     1     -42.081  58.310 -58.869  1.00  0.00     0.036 A 
HETATM   21  C   UNL     1     -41.946  58.209 -60.358  1.00  0.00     0.070 C 
HETATM   22  C   UNL     1     -41.905  59.519 -58.232  1.00  0.00     0.071 A 
HETATM   23  C   UNL     1     -42.055  59.523 -56.864  1.00  0.00     0.105 A 
HETATM   24  N   UNL     1     -42.332  58.422 -56.161  1.00  0.00    -0.211 NA
BRANCH  23  25
HETATM   25  N   UNL     1     -41.870  60.698 -56.137  1.00  0.00    -0.287 NA
HETATM   26  H   UNL     1     -41.734  60.446 -55.162  1.00  0.00     0.125 HD
HETATM   27  H   UNL     1     -42.645  61.343 -56.253  1.00  0.00     0.125 HD
ENDBRANCH  23  25
ENDBRANCH  17  18
ENDBRANCH  16  17
ENDBRANCH   1  16
TORSDOF 4
ENDMDL
MODEL 5
REMARK VINA RESULT:      -8.7      2.421      4.238
REMARK  4 active torsions:
REMARK  status: ('A' for Active; 'I' for Inactive)
REMARK    1  A    between atoms: C_4  and  S_5 
REMARK    2  A    between atoms: S_5  and  C_6 
REMARK    3  A    between atoms: C_6  and  C_7 
REMARK    4  A    between atoms: C_23  and  N_24 
ROOT
HETATM    1  C   UNL     1     -40.593  52.854 -54.017  1.00  0.00    -0.029 C 
HETATM    2  C   UNL     1     -40.548  53.160 -52.545  1.00  0.00     0.016 A 
HETATM    3  C   UNL     1     -40.248  52.068 -51.708  1.00  0.00     0.091 A 
HETATM    4  C   UNL     1     -40.271  52.137 -50.319  1.00  0.00     0.039 A 
HETATM    5  C   UNL     1     -40.590  53.334 -49.707  1.00  0.00     0.015 A 
HETATM    6  C   UNL     1     -40.841  54.476 -50.469  1.00  0.00    -0.025 A 
HETATM    7  C   UNL     1     -40.797  54.434 -51.898  1.00  0.00    -0.012 A 
HETATM    8  C   UNL     1     -41.119  55.667 -49.775  1.00  0.00     0.012 A 
HETATM    9  C   UNL     1     -41.338  56.862 -50.447  1.00  0.00     0.001 A 
HETATM   10  C   UNL     1     -41.256  56.879 -51.826  1.00  0.00     0.001 A 
HETATM   11  C   UNL     1     -40.981  55.698 -52.528  1.00  0.00     0.013 A 
HETATM   12  O   UNL     1     -39.856  50.805 -52.196  1.00  0.00    -0.275 OA
HETATM   13  C   UNL     1     -39.669  50.590 -53.539  1.00  0.00     0.288 C 
HETATM   14  O   UNL     1     -39.199  49.551 -53.985  1.00  0.00    -0.260 OA
HETATM   15  C   UNL     1     -40.130  51.657 -54.427  1.00  0.00     0.091 C 
ENDROOT
BRANCH   1  16
HETATM   16  C   UNL     1     -41.177  53.856 -54.992  1.00  0.00     0.122 C 
BRANCH  16  17
HETATM   17  S   UNL     1     -42.991  53.984 -55.036  1.00  0.00    -0.085 SA
BRANCH  17  18
HETATM   18  C   UNL     1     -43.147  55.676 -55.560  1.00  0.00     0.190 A 
HETATM   19  N   UNL     1     -43.929  56.463 -54.804  1.00  0.00    -0.228 NA
HETATM   20  C   UNL     1     -44.068  57.742 -55.202  1.00  0.00     0.036 A 
HETATM   21  C   UNL     1     -44.950  58.631 -54.378  1.00  0.00     0.070 C 
HETATM   22  C   UNL     1     -43.431  58.235 -56.321  1.00  0.00     0.071 A 
HETATM   23  C   UNL     1     -42.635  57.353 -57.015  1.00  0.00     0.105 A 
HETATM   24  N   UNL     1     -42.488  56.073 -56.660  1.00  0.00    -0.211 NA
BRANCH  23  25
HETATM   25  N   UNL     1     -41.973  57.760 -58.173  1.00  0.00    -0.287 NA
HETATM   26  H   UNL     1     -42.554  57.513 -58.969  1.00  0.00     0.125 HD
HETATM   27  H   UNL     1     -41.047  57.353 -58.244  1.00  0.00     0.125 HD
ENDBRANCH  23  25
ENDBRANCH  17  18
ENDBRANCH  16  17
ENDBRANCH   1  16
TORSDOF 4
ENDMDL
MODEL 6
REMARK VINA RESULT:      -8.6      1.882      3.843
REMARK  4 active torsions:
REMARK  status: ('A' for Active; 'I' for Inactive)
REMARK    1  A    between atoms: C_4  and  S_5 
REMARK    2  A    between atoms: S_5  and  C_6 
REMARK    3  A    between atoms: C_6  and  C_7 
REMARK    4  A    between atoms: C_23  and  N_24 
ROOT
HETATM    1  C   UNL     1     -40.576  53.584 -54.250  1.00  0.00    -0.029 C 
HETATM    2  C   UNL     1     -40.643  53.926 -52.786  1.00  0.00     0.016 A 
HETATM    3  C   UNL     1     -40.435  52.849 -51.903  1.00  0.00     0.091 A 
HETATM    4  C   UNL     1     -40.569  52.952 -50.521  1.00  0.00     0.039 A 
HETATM    5  C   UNL     1     -40.909  54.170 -49.965  1.00  0.00     0.015 A 
HETATM    6  C   UNL     1     -41.072  55.298 -50.771  1.00  0.00    -0.025 A 
HETATM    7  C   UNL     1     -40.915  55.219 -52.191  1.00  0.00    -0.012 A 
HETATM    8  C   UNL     1     -41.379  56.511 -50.129  1.00  0.00     0.012 A 
HETATM    9  C   UNL     1     -41.516  57.693 -50.844  1.00  0.00     0.001 A 
HETATM   10  C   UNL     1     -41.324  57.675 -52.212  1.00  0.00     0.001 A 
HETATM   11  C   UNL     1     -41.020  56.472 -52.862  1.00  0.00     0.013 A 
HETATM   12  O   UNL     1     -40.033  51.566 -52.328  1.00  0.00    -0.275 OA
HETATM   13  C   UNL     1     -39.744  51.315 -53.646  1.00  0.00     0.288 C 
HETATM   14  O   UNL     1     -39.262  50.255 -54.028  1.00  0.00    -0.260 OA
HETATM   15  C   UNL     1     -40.109  52.368 -54.592  1.00  0.00     0.091 C 
ENDROOT
BRANCH   1  16
HETATM   16  C   UNL     1     -41.058  54.573 -55.291  1.00  0.00     0.122 C 
BRANCH  16  17
HETATM   17  S   UNL     1     -42.845  54.588 -55.632  1.00  0.00    -0.085 SA
BRANCH  17  18
HETATM   18  C   UNL     1     -42.871  55.756 -56.973  1.00  0.00     0.190 A 
HETATM   19  N   UNL     1     -42.492  57.009 -56.677  1.00  0.00    -0.228 NA
HETATM   20  C   UNL     1     -42.525  57.907 -57.681  1.00  0.00     0.036 A 
HETATM   21  C   UNL     1     -42.120  59.314 -57.365  1.00  0.00     0.070 C 
HETATM   22  C   UNL     1     -42.914  57.562 -58.958  1.00  0.00     0.071 A 
HETATM   23  C   UNL     1     -43.262  56.247 -59.163  1.00  0.00     0.105 A 
HETATM   24  N   UNL     1     -43.259  55.335 -58.187  1.00  0.00    -0.211 NA
BRANCH  23  25
HETATM   25  N   UNL     1     -43.692  55.817 -60.418  1.00  0.00    -0.287 NA
HETATM   26  H   UNL     1     -42.984  55.193 -60.795  1.00  0.00     0.125 HD
HETATM   27  H   UNL     1     -43.878  56.595 -61.043  1.00  0.00     0.125 HD
ENDBRANCH  23  25
ENDBRANCH  17  18
ENDBRANCH  16  17
ENDBRANCH   1  16
TORSDOF 4
ENDMDL
MODEL 7
REMARK VINA RESULT:      -8.5      3.253      5.019
REMARK  4 active torsions:
REMARK  status: ('A' for Active; 'I' for Inactive)
REMARK    1  A    between atoms: C_4  and  S_5 
REMARK    2  A    between atoms: S_5  and  C_6 
REMARK    3  A    between atoms: C_6  and  C_7 
REMARK    4  A    between atoms: C_23  and  N_24 
ROOT
HETATM    1  C   UNL     1     -41.401  55.648 -50.301  1.00  0.00    -0.029 C 
HETATM    2  C   UNL     1     -41.104  54.684 -51.418  1.00  0.00     0.016 A 
HETATM    3  C   UNL     1     -40.468  53.488 -51.031  1.00  0.00     0.091 A 
HETATM    4  C   UNL     1     -40.019  52.531 -51.936  1.00  0.00     0.039 A 
HETATM    5  C   UNL     1     -40.209  52.739 -53.289  1.00  0.00     0.015 A 
HETATM    6  C   UNL     1     -40.885  53.872 -53.745  1.00  0.00    -0.025 A 
HETATM    7  C   UNL     1     -41.377  54.856 -52.831  1.00  0.00    -0.012 A 
HETATM    8  C   UNL     1     -41.076  53.995 -55.133  1.00  0.00     0.012 A 
HETATM    9  C   UNL     1     -41.774  55.065 -55.675  1.00  0.00     0.001 A 
HETATM   10  C   UNL     1     -42.311  56.014 -54.827  1.00  0.00     0.001 A 
HETATM   11  C   UNL     1     -42.126  55.902 -53.443  1.00  0.00     0.013 A 
HETATM   12  O   UNL     1     -40.258  53.124 -49.687  1.00  0.00    -0.275 OA
HETATM   13  C   UNL     1     -40.739  53.896 -48.659  1.00  0.00     0.288 C 
HETATM   14  O   UNL     1     -40.695  53.542 -47.487  1.00  0.00    -0.260 OA
HETATM   15  C   UNL     1     -41.254  55.212 -49.035  1.00  0.00     0.091 C 
ENDROOT
BRANCH   1  16
HETATM   16  C   UNL     1     -41.815  57.073 -50.607  1.00  0.00     0.122 C 
BRANCH  16  17
HETATM   17  S   UNL     1     -40.479  58.238 -51.017  1.00  0.00    -0.085 SA
BRANCH  17  18
HETATM   18  C   UNL     1     -41.381  59.353 -52.066  1.00  0.00     0.190 A 
HETATM   19  N   UNL     1     -42.258  60.166 -51.455  1.00  0.00    -0.228 NA
HETATM   20  C   UNL     1     -42.960  61.004 -52.242  1.00  0.00     0.036 A 
HETATM   21  C   UNL     1     -43.953  61.908 -51.578  1.00  0.00     0.070 C 
HETATM   22  C   UNL     1     -42.785  61.043 -53.609  1.00  0.00     0.071 A 
HETATM   23  C   UNL     1     -41.847  60.185 -54.135  1.00  0.00     0.105 A 
HETATM   24  N   UNL     1     -41.146  59.329 -53.388  1.00  0.00    -0.211 NA
BRANCH  23  25
HETATM   25  N   UNL     1     -41.624  60.141 -55.511  1.00  0.00    -0.287 NA
HETATM   26  H   UNL     1     -42.442  60.525 -55.974  1.00  0.00     0.125 HD
HETATM   27  H   UNL     1     -41.416  59.202 -55.832  1.00  0.00     0.125 HD
ENDBRANCH  23  25
ENDBRANCH  17  18
ENDBRANCH  16  17
ENDBRANCH   1  16
TORSDOF 4
ENDMDL
MODEL 8
REMARK VINA RESULT:      -8.5      2.609      3.414
REMARK  4 active torsions:
REMARK  status: ('A' for Active; 'I' for Inactive)
REMARK    1  A    between atoms: C_4  and  S_5 
REMARK    2  A    between atoms: S_5  and  C_6 
REMARK    3  A    between atoms: C_6  and  C_7 
REMARK    4  A    between atoms: C_23  and  N_24 
ROOT
HETATM    1  C   UNL     1     -43.133  55.277 -53.136  1.00  0.00    -0.029 C 
HETATM    2  C   UNL     1     -42.138  54.506 -52.311  1.00  0.00     0.016 A 
HETATM    3  C   UNL     1     -42.012  54.921 -50.971  1.00  0.00     0.091 A 
HETATM    4  C   UNL     1     -41.067  54.400 -50.092  1.00  0.00     0.039 A 
HETATM    5  C   UNL     1     -40.206  53.414 -50.534  1.00  0.00     0.015 A 
HETATM    6  C   UNL     1     -40.310  52.909 -51.831  1.00  0.00    -0.025 A 
HETATM    7  C   UNL     1     -41.291  53.412 -52.742  1.00  0.00    -0.012 A 
HETATM    8  C   UNL     1     -39.426  51.878 -52.194  1.00  0.00     0.012 A 
HETATM    9  C   UNL     1     -39.483  51.284 -53.448  1.00  0.00     0.001 A 
HETATM   10  C   UNL     1     -40.448  51.703 -54.344  1.00  0.00     0.001 A 
HETATM   11  C   UNL     1     -41.333  52.730 -53.992  1.00  0.00     0.013 A 
HETATM   12  O   UNL     1     -42.857  55.879 -50.375  1.00  0.00    -0.275 OA
HETATM   13  C   UNL     1     -43.918  56.414 -51.063  1.00  0.00     0.288 C 
HETATM   14  O   UNL     1     -44.750  57.141 -50.535  1.00  0.00    -0.260 OA
HETATM   15  C   UNL     1     -43.966  56.119 -52.495  1.00  0.00     0.091 C 
ENDROOT
BRANCH   1  16
HETATM   16  C   UNL     1     -43.160  55.127 -54.643  1.00  0.00     0.122 C 
BRANCH  16  17
HETATM   17  S   UNL     1     -41.843  55.974 -55.568  1.00  0.00    -0.085 SA
BRANCH  17  18
HETATM   18  C   UNL     1     -41.844  57.531 -54.710  1.00  0.00     0.190 A 
HETATM   19  N   UNL     1     -42.841  58.377 -55.015  1.00  0.00    -0.228 NA
HETATM   20  C   UNL     1     -42.842  59.567 -54.383  1.00  0.00     0.036 A 
HETATM   21  C   UNL     1     -43.938  60.530 -54.723  1.00  0.00     0.070 C 
HETATM   22  C   UNL     1     -41.879  59.904 -53.455  1.00  0.00     0.071 A 
HETATM   23  C   UNL     1     -40.914  58.959 -53.197  1.00  0.00     0.105 A 
HETATM   24  N   UNL     1     -40.871  57.776 -53.818  1.00  0.00    -0.211 NA
BRANCH  23  25
HETATM   25  N   UNL     1     -39.888  59.226 -52.291  1.00  0.00    -0.287 NA
HETATM   26  H   UNL     1     -40.299  59.666 -51.473  1.00  0.00     0.125 HD
HETATM   27  H   UNL     1     -39.159  59.800 -52.701  1.00  0.00     0.125 HD
ENDBRANCH  23  25
ENDBRANCH  17  18
ENDBRANCH  16  17
ENDBRANCH   1  16
TORSDOF 4
ENDMDL
MODEL 9
REMARK VINA RESULT:      -8.5      2.343      4.350
REMARK  4 active torsions:
REMARK  status: ('A' for Active; 'I' for Inactive)
REMARK    1  A    between atoms: C_4  and  S_5 
REMARK    2  A    between atoms: S_5  and  C_6 
REMARK    3  A    between atoms: C_6  and  C_7 
REMARK    4  A    between atoms: C_23  and  N_24 
ROOT
HETATM    1  C   UNL     1     -40.628  53.268 -54.130  1.00  0.00    -0.029 C 
HETATM    2  C   UNL     1     -40.599  53.612 -52.665  1.00  0.00     0.016 A 
HETATM    3  C   UNL     1     -40.283  52.546 -51.800  1.00  0.00     0.091 A 
HETATM    4  C   UNL     1     -40.316  52.649 -50.412  1.00  0.00     0.039 A 
HETATM    5  C   UNL     1     -40.662  53.855 -49.833  1.00  0.00     0.015 A 
HETATM    6  C   UNL     1     -40.929  54.972 -50.625  1.00  0.00    -0.025 A 
HETATM    7  C   UNL     1     -40.876  54.895 -52.052  1.00  0.00    -0.012 A 
HETATM    8  C   UNL     1     -41.234  56.175 -49.962  1.00  0.00     0.012 A 
HETATM    9  C   UNL     1     -41.472  57.348 -50.665  1.00  0.00     0.001 A 
HETATM   10  C   UNL     1     -41.382  57.333 -52.043  1.00  0.00     0.001 A 
HETATM   11  C   UNL     1     -41.080  56.140 -52.714  1.00  0.00     0.013 A 
HETATM   12  O   UNL     1     -39.864  51.280 -52.253  1.00  0.00    -0.275 OA
HETATM   13  C   UNL     1     -39.665  51.035 -53.589  1.00  0.00     0.288 C 
HETATM   14  O   UNL     1     -39.172  49.994 -54.006  1.00  0.00    -0.260 OA
HETATM   15  C   UNL     1     -40.141  52.070 -54.506  1.00  0.00     0.091 C 
ENDROOT
BRANCH   1  16
HETATM   16  C   UNL     1     -41.226  54.233 -55.133  1.00  0.00     0.122 C 
BRANCH  16  17
HETATM   17  S   UNL     1     -43.040  54.250 -55.264  1.00  0.00    -0.085 SA
BRANCH  17  18
HETATM   18  C   UNL     1     -43.287  55.976 -55.611  1.00  0.00     0.190 A 
HETATM   19  N   UNL     1     -42.648  56.464 -56.687  1.00  0.00    -0.228 NA
HETATM   20  C   UNL     1     -42.814  57.774 -56.950  1.00  0.00     0.036 A 
HETATM   21  C   UNL     1     -42.097  58.338 -58.138  1.00  0.00     0.070 C 
HETATM   22  C   UNL     1     -43.611  58.583 -56.167  1.00  0.00     0.071 A 
HETATM   23  C   UNL     1     -44.240  57.982 -55.101  1.00  0.00     0.105 A 
HETATM   24  N   UNL     1     -44.084  56.690 -54.800  1.00  0.00    -0.211 NA
BRANCH  23  25
HETATM   25  N   UNL     1     -45.044  58.730 -54.242  1.00  0.00    -0.287 NA
HETATM   26  H   UNL     1     -45.951  58.847 -54.685  1.00  0.00     0.125 HD
HETATM   27  H   UNL     1     -44.623  59.623 -54.008  1.00  0.00     0.125 HD
ENDBRANCH  23  25
ENDBRANCH  17  18
ENDBRANCH  16  17
ENDBRANCH   1  16
TORSDOF 4
ENDMDL
MODEL 10
REMARK VINA RESULT:      -8.3      3.417      4.280
REMARK  4 active torsions:
REMARK  status: ('A' for Active; 'I' for Inactive)
REMARK    1  A    between atoms: C_4  and  S_5 
REMARK    2  A    between atoms: S_5  and  C_6 
REMARK    3  A    between atoms: C_6  and  C_7 
REMARK    4  A    between atoms: C_23  and  N_24 
ROOT
HETATM    1  C   UNL     1     -40.691  54.273 -51.623  1.00  0.00    -0.029 C 
HETATM    2  C   UNL     1     -40.414  52.801 -51.482  1.00  0.00     0.016 A 
HETATM    3  C   UNL     1     -40.273  52.336 -50.160  1.00  0.00     0.091 A 
HETATM    4  C   UNL     1     -39.907  51.032 -49.840  1.00  0.00     0.039 A 
HETATM    5  C   UNL     1     -39.679  50.125 -50.858  1.00  0.00     0.015 A 
HETATM    6  C   UNL     1     -39.858  50.496 -52.191  1.00  0.00    -0.025 A 
HETATM    7  C   UNL     1     -40.258  51.824 -52.541  1.00  0.00    -0.012 A 
HETATM    8  C   UNL     1     -39.646  49.508 -53.169  1.00  0.00     0.012 A 
HETATM    9  C   UNL     1     -39.842  49.772 -54.518  1.00  0.00     0.001 A 
HETATM   10  C   UNL     1     -40.277  51.026 -54.900  1.00  0.00     0.001 A 
HETATM   11  C   UNL     1     -40.489  52.018 -53.933  1.00  0.00     0.013 A 
HETATM   12  O   UNL     1     -40.525  53.136 -49.027  1.00  0.00    -0.275 OA
HETATM   13  C   UNL     1     -41.006  54.415 -49.156  1.00  0.00     0.288 C 
HETATM   14  O   UNL     1     -41.365  55.088 -48.197  1.00  0.00    -0.260 OA
HETATM   15  C   UNL     1     -41.003  54.966 -50.511  1.00  0.00     0.091 C 
ENDROOT
BRANCH   1  16
HETATM   16  C   UNL     1     -40.581  54.948 -52.975  1.00  0.00     0.122 C 
BRANCH  16  17
HETATM   17  S   UNL     1     -42.131  55.179 -53.898  1.00  0.00    -0.085 SA
BRANCH  17  18
HETATM   18  C   UNL     1     -42.742  56.631 -53.074  1.00  0.00     0.190 A 
HETATM   19  N   UNL     1     -42.220  57.803 -53.468  1.00  0.00    -0.228 NA
HETATM   20  C   UNL     1     -42.664  58.908 -52.839  1.00  0.00     0.036 A 
HETATM   21  C   UNL     1     -42.080  60.223 -53.257  1.00  0.00     0.070 C 
HETATM   22  C   UNL     1     -43.618  58.852 -51.845  1.00  0.00     0.071 A 
HETATM   23  C   UNL     1     -44.105  57.605 -51.529  1.00  0.00     0.105 A 
HETATM   24  N   UNL     1     -43.676  56.486 -52.120  1.00  0.00    -0.211 NA
BRANCH  23  25
HETATM   25  N   UNL     1     -45.054  57.453 -50.519  1.00  0.00    -0.287 NA
HETATM   26  H   UNL     1     -45.975  57.471 -50.948  1.00  0.00     0.125 HD
HETATM   27  H   UNL     1     -44.961  58.162 -49.800  1.00  0.00     0.125 HD
ENDBRANCH  23  25
ENDBRANCH  17  18
ENDBRANCH  16  17
ENDBRANCH   1  16
TORSDOF 4
ENDMDL
