MODEL 1
REMARK VINA RESULT:      -9.3      0.000      0.000
REMARK  3 active torsions:
REMARK  status: ('A' for Active; 'I' for Inactive)
REMARK    1  A    between atoms: C_6  and  C_7 
REMARK    2  A    between atoms: C_11  and  C_12 
REMARK       I    between atoms: C_12  and  N_13 
REMARK    3  A    between atoms: N_13  and  N_14 
ROOT
HETATM    1  C   UNL     1     -43.694  56.681 -56.143  1.00  0.00     0.289 C 
HETATM    2  N   UNL     1     -43.694  56.671 -57.528  1.00  0.00    -0.241 N 
HETATM    3  O   UNL     1     -44.493  57.320 -55.461  1.00  0.00    -0.264 OA
HETATM    4  H   UNL     1     -43.009  56.120 -58.045  1.00  0.00     0.192 HD
ENDROOT
BRANCH   1   5
HETATM    5  C   UNL     1     -42.673  55.872 -55.526  1.00  0.00     0.121 A 
HETATM    6  N   UNL     1     -41.360  56.241 -55.584  1.00  0.00    -0.272 N 
HETATM    7  N   UNL     1     -40.523  55.398 -54.967  1.00  0.00    -0.174 NA
HETATM    8  H   UNL     1     -40.984  57.068 -56.036  1.00  0.00     0.189 HD
HETATM    9  C   UNL     1     -41.311  54.425 -54.479  1.00  0.00     0.089 A 
HETATM   10  C   UNL     1     -42.673  54.690 -54.812  1.00  0.00     0.071 A 
BRANCH   9  11
HETATM   11  C   UNL     1     -40.751  53.296 -53.721  1.00  0.00    -0.005 A 
HETATM   12  C   UNL     1     -40.422  52.082 -54.341  1.00  0.00     0.021 A 
HETATM   13  C   UNL     1     -39.887  51.000 -53.612  1.00  0.00    -0.055 A 
HETATM   14  C   UNL     1     -39.699  51.127 -52.223  1.00  0.00    -0.056 A 
HETATM   15  C   UNL     1     -39.556  49.725 -54.340  1.00  0.00     0.049 C 
HETATM   16  C   UNL     1     -39.125  50.031 -51.369  1.00  0.00     0.049 C 
HETATM   17  C   UNL     1     -40.010  52.347 -51.606  1.00  0.00     0.008 A 
HETATM   18  C   UNL     1     -40.530  53.413 -52.343  1.00  0.00     0.014 A 
ENDBRANCH   9  11
ENDBRANCH   1   5
BRANCH   2  19
HETATM   19  N   UNL     1     -44.617  57.403 -58.223  1.00  0.00    -0.165 NA
HETATM   20  C   UNL     1     -45.249  56.794 -59.174  1.00  0.00     0.157 A 
HETATM   21  C   UNL     1     -45.104  55.341 -59.637  1.00  0.00     0.277 A 
HETATM   22  C   UNL     1     -46.265  57.388 -60.033  1.00  0.00     0.027 A 
HETATM   23  O   UNL     1     -44.342  54.534 -59.149  1.00  0.00    -0.266 OA
HETATM   24  N   UNL     1     -45.996  55.193 -60.676  1.00  0.00    -0.321 N 
HETATM   25  C   UNL     1     -46.678  56.387 -60.912  1.00  0.00     0.048 A 
HETATM   26  H   UNL     1     -46.124  54.331 -61.184  1.00  0.00     0.169 HD
HETATM   27  C   UNL     1     -47.642  56.628 -61.867  1.00  0.00     0.030 A 
HETATM   28  C   UNL     1     -48.189  57.917 -61.915  1.00  0.00     0.002 A 
HETATM   29  C   UNL     1     -47.767  58.925 -61.022  1.00  0.00     0.001 A 
HETATM   30  C   UNL     1     -46.788  58.664 -60.060  1.00  0.00     0.016 A 
ENDBRANCH   2  19
TORSDOF 3
ENDMDL
MODEL 2
REMARK VINA RESULT:      -8.8      5.517     10.161
REMARK  3 active torsions:
REMARK  status: ('A' for Active; 'I' for Inactive)
REMARK    1  A    between atoms: C_6  and  C_7 
REMARK    2  A    between atoms: C_11  and  C_12 
REMARK       I    between atoms: C_12  and  N_13 
REMARK    3  A    between atoms: N_13  and  N_14 
ROOT
HETATM    1  C   UNL     1     -42.430  56.362 -53.251  1.00  0.00     0.289 C 
HETATM    2  N   UNL     1     -41.161  55.821 -53.125  1.00  0.00    -0.241 N 
HETATM    3  O   UNL     1     -43.374  55.780 -53.780  1.00  0.00    -0.264 OA
HETATM    4  H   UNL     1     -40.412  56.346 -52.674  1.00  0.00     0.192 HD
ENDROOT
BRANCH   1   5
HETATM    5  C   UNL     1     -42.585  57.687 -52.707  1.00  0.00     0.121 A 
HETATM    6  N   UNL     1     -41.887  58.740 -53.223  1.00  0.00    -0.272 N 
HETATM    7  N   UNL     1     -42.131  59.912 -52.622  1.00  0.00    -0.174 NA
HETATM    8  H   UNL     1     -41.227  58.709 -53.993  1.00  0.00     0.189 HD
HETATM    9  C   UNL     1     -43.029  59.626 -51.663  1.00  0.00     0.089 A 
HETATM   10  C   UNL     1     -43.339  58.234 -51.686  1.00  0.00     0.071 A 
BRANCH   9  11
HETATM   11  C   UNL     1     -43.556  60.673 -50.774  1.00  0.00    -0.005 A 
HETATM   12  C   UNL     1     -42.922  61.917 -50.643  1.00  0.00     0.021 A 
HETATM   13  C   UNL     1     -43.427  62.919 -49.789  1.00  0.00    -0.055 A 
HETATM   14  C   UNL     1     -44.582  62.659 -49.027  1.00  0.00    -0.056 A 
HETATM   15  C   UNL     1     -42.698  64.231 -49.696  1.00  0.00     0.049 C 
HETATM   16  C   UNL     1     -45.197  63.670 -48.099  1.00  0.00     0.049 C 
HETATM   17  C   UNL     1     -45.226  61.422 -49.172  1.00  0.00     0.008 A 
HETATM   18  C   UNL     1     -44.719  60.444 -50.029  1.00  0.00     0.014 A 
ENDBRANCH   9  11
ENDBRANCH   1   5
BRANCH   2  19
HETATM   19  N   UNL     1     -40.894  54.568 -53.606  1.00  0.00    -0.165 NA
HETATM   20  C   UNL     1     -40.548  53.671 -52.740  1.00  0.00     0.157 A 
HETATM   21  C   UNL     1     -40.394  53.820 -51.223  1.00  0.00     0.277 A 
HETATM   22  C   UNL     1     -40.220  52.283 -53.040  1.00  0.00     0.027 A 
HETATM   23  O   UNL     1     -40.584  54.848 -50.608  1.00  0.00    -0.266 OA
HETATM   24  N   UNL     1     -40.009  52.578 -50.767  1.00  0.00    -0.321 N 
HETATM   25  C   UNL     1     -39.906  51.676 -51.825  1.00  0.00     0.048 A 
HETATM   26  H   UNL     1     -39.831  52.371 -49.795  1.00  0.00     0.169 HD
HETATM   27  C   UNL     1     -39.547  50.347 -51.763  1.00  0.00     0.030 A 
HETATM   28  C   UNL     1     -39.513  49.634 -52.968  1.00  0.00     0.002 A 
HETATM   29  C   UNL     1     -39.833  50.255 -54.195  1.00  0.00     0.001 A 
HETATM   30  C   UNL     1     -40.195  51.604 -54.240  1.00  0.00     0.016 A 
ENDBRANCH   2  19
TORSDOF 3
ENDMDL
MODEL 3
REMARK VINA RESULT:      -8.8      5.288      6.379
REMARK  3 active torsions:
REMARK  status: ('A' for Active; 'I' for Inactive)
REMARK    1  A    between atoms: C_6  and  C_7 
REMARK    2  A    between atoms: C_11  and  C_12 
REMARK       I    between atoms: C_12  and  N_13 
REMARK    3  A    between atoms: N_13  and  N_14 
ROOT
HETATM    1  C   UNL     1     -42.162  58.216 -51.009  1.00  0.00     0.289 C 
HETATM    2  N   UNL     1     -43.541  58.324 -51.069  1.00  0.00    -0.241 N 
HETATM    3  O   UNL     1     -41.404  59.173 -50.872  1.00  0.00    -0.264 OA
HETATM    4  H   UNL     1     -44.125  57.495 -51.180  1.00  0.00     0.192 HD
ENDROOT
BRANCH   1   5
HETATM    5  C   UNL     1     -41.650  56.873 -51.117  1.00  0.00     0.121 A 
HETATM    6  N   UNL     1     -41.181  56.214 -50.017  1.00  0.00    -0.272 N 
HETATM    7  N   UNL     1     -40.738  54.975 -50.264  1.00  0.00    -0.174 NA
HETATM    8  H   UNL     1     -41.143  56.572 -49.068  1.00  0.00     0.189 HD
HETATM    9  C   UNL     1     -40.919  54.801 -51.585  1.00  0.00     0.089 A 
HETATM   10  C   UNL     1     -41.491  55.977 -52.156  1.00  0.00     0.071 A 
BRANCH   9  11
HETATM   11  C   UNL     1     -40.549  53.541 -52.247  1.00  0.00    -0.005 A 
HETATM   12  C   UNL     1     -40.149  52.413 -51.516  1.00  0.00     0.021 A 
HETATM   13  C   UNL     1     -39.793  51.207 -52.153  1.00  0.00    -0.055 A 
HETATM   14  C   UNL     1     -39.814  51.135 -53.559  1.00  0.00    -0.056 A 
HETATM   15  C   UNL     1     -39.374  50.034 -51.308  1.00  0.00     0.049 C 
HETATM   16  C   UNL     1     -39.460  49.888 -54.321  1.00  0.00     0.049 C 
HETATM   17  C   UNL     1     -40.231  52.256 -54.289  1.00  0.00     0.008 A 
HETATM   18  C   UNL     1     -40.590  53.441 -53.644  1.00  0.00     0.014 A 
ENDBRANCH   9  11
ENDBRANCH   1   5
BRANCH   2  19
HETATM   19  N   UNL     1     -44.142  59.550 -50.979  1.00  0.00    -0.165 NA
HETATM   20  C   UNL     1     -44.808  59.951 -52.013  1.00  0.00     0.157 A 
HETATM   21  C   UNL     1     -45.021  59.231 -53.348  1.00  0.00     0.277 A 
HETATM   22  C   UNL     1     -45.518  61.219 -52.125  1.00  0.00     0.027 A 
HETATM   23  O   UNL     1     -44.571  58.139 -53.622  1.00  0.00    -0.266 OA
HETATM   24  N   UNL     1     -45.797  60.079 -54.106  1.00  0.00    -0.321 N 
HETATM   25  C   UNL     1     -46.091  61.243 -53.396  1.00  0.00     0.048 A 
HETATM   26  H   UNL     1     -46.102  59.869 -55.045  1.00  0.00     0.169 HD
HETATM   27  C   UNL     1     -46.839  62.320 -53.822  1.00  0.00     0.030 A 
HETATM   28  C   UNL     1     -46.998  63.385 -52.926  1.00  0.00     0.002 A 
HETATM   29  C   UNL     1     -46.415  63.353 -51.641  1.00  0.00     0.001 A 
HETATM   30  C   UNL     1     -45.660  62.254 -51.225  1.00  0.00     0.016 A 
ENDBRANCH   2  19
TORSDOF 3
ENDMDL
MODEL 4
REMARK VINA RESULT:      -8.8      3.510      4.640
REMARK  3 active torsions:
REMARK  status: ('A' for Active; 'I' for Inactive)
REMARK    1  A    between atoms: C_6  and  C_7 
REMARK    2  A    between atoms: C_11  and  C_12 
REMARK       I    between atoms: C_12  and  N_13 
REMARK    3  A    between atoms: N_13  and  N_14 
ROOT
HETATM    1  C   UNL     1     -42.976  56.777 -57.388  1.00  0.00     0.289 C 
HETATM    2  N   UNL     1     -41.872  57.530 -57.751  1.00  0.00    -0.241 N 
HETATM    3  O   UNL     1     -44.070  56.852 -57.942  1.00  0.00    -0.264 OA
HETATM    4  H   UNL     1     -40.985  57.426 -57.258  1.00  0.00     0.192 HD
ENDROOT
BRANCH   1   5
HETATM    5  C   UNL     1     -42.762  55.869 -56.289  1.00  0.00     0.121 A 
HETATM    6  N   UNL     1     -43.771  55.574 -55.420  1.00  0.00    -0.272 N 
HETATM    7  N   UNL     1     -43.431  54.716 -54.450  1.00  0.00    -0.174 NA
HETATM    8  H   UNL     1     -44.719  55.936 -55.448  1.00  0.00     0.189 HD
HETATM    9  C   UNL     1     -42.139  54.428 -54.682  1.00  0.00     0.089 A 
HETATM   10  C   UNL     1     -41.682  55.137 -55.833  1.00  0.00     0.071 A 
BRANCH   9  11
HETATM   11  C   UNL     1     -41.395  53.501 -53.816  1.00  0.00    -0.005 A 
HETATM   12  C   UNL     1     -41.253  53.730 -52.440  1.00  0.00     0.021 A 
HETATM   13  C   UNL     1     -40.537  52.841 -51.612  1.00  0.00    -0.055 A 
HETATM   14  C   UNL     1     -39.928  51.706 -52.180  1.00  0.00    -0.056 A 
HETATM   15  C   UNL     1     -40.424  53.147 -50.143  1.00  0.00     0.049 C 
HETATM   16  C   UNL     1     -39.155  50.700 -51.373  1.00  0.00     0.049 C 
HETATM   17  C   UNL     1     -40.085  51.467 -53.553  1.00  0.00     0.008 A 
HETATM   18  C   UNL     1     -40.805  52.352 -54.358  1.00  0.00     0.014 A 
ENDBRANCH   9  11
ENDBRANCH   1   5
BRANCH   2  19
HETATM   19  N   UNL     1     -41.957  58.427 -58.781  1.00  0.00    -0.165 NA
HETATM   20  C   UNL     1     -41.909  59.682 -58.467  1.00  0.00     0.157 A 
HETATM   21  C   UNL     1     -41.766  60.312 -57.079  1.00  0.00     0.277 A 
HETATM   22  C   UNL     1     -41.983  60.794 -59.406  1.00  0.00     0.027 A 
HETATM   23  O   UNL     1     -41.676  59.688 -56.043  1.00  0.00    -0.266 OA
HETATM   24  N   UNL     1     -41.766  61.674 -57.289  1.00  0.00    -0.321 N 
HETATM   25  C   UNL     1     -41.893  61.961 -58.649  1.00  0.00     0.048 A 
HETATM   26  H   UNL     1     -41.685  62.354 -56.548  1.00  0.00     0.169 HD
HETATM   27  C   UNL     1     -41.933  63.203 -59.243  1.00  0.00     0.030 A 
HETATM   28  C   UNL     1     -42.067  63.243 -60.637  1.00  0.00     0.002 A 
HETATM   29  C   UNL     1     -42.157  62.058 -61.398  1.00  0.00     0.001 A 
HETATM   30  C   UNL     1     -42.115  60.806 -60.779  1.00  0.00     0.016 A 
ENDBRANCH   2  19
TORSDOF 3
ENDMDL
MODEL 5
REMARK VINA RESULT:      -8.6      6.252      8.159
REMARK  3 active torsions:
REMARK  status: ('A' for Active; 'I' for Inactive)
REMARK    1  A    between atoms: C_6  and  C_7 
REMARK    2  A    between atoms: C_11  and  C_12 
REMARK       I    between atoms: C_12  and  N_13 
REMARK    3  A    between atoms: N_13  and  N_14 
ROOT
HETATM    1  C   UNL     1     -44.096  57.353 -51.026  1.00  0.00     0.289 C 
HETATM    2  N   UNL     1     -43.786  58.702 -51.063  1.00  0.00    -0.241 N 
HETATM    3  O   UNL     1     -45.145  56.902 -50.573  1.00  0.00    -0.264 OA
HETATM    4  H   UNL     1     -42.900  59.024 -51.453  1.00  0.00     0.192 HD
ENDROOT
BRANCH   1   5
HETATM    5  C   UNL     1     -43.087  56.480 -51.569  1.00  0.00     0.121 A 
HETATM    6  N   UNL     1     -41.880  56.974 -51.975  1.00  0.00    -0.272 N 
HETATM    7  N   UNL     1     -41.039  56.050 -52.456  1.00  0.00    -0.174 NA
HETATM    8  H   UNL     1     -41.582  57.944 -51.942  1.00  0.00     0.189 HD
HETATM    9  C   UNL     1     -41.714  54.891 -52.368  1.00  0.00     0.089 A 
HETATM   10  C   UNL     1     -43.009  55.122 -51.814  1.00  0.00     0.071 A 
BRANCH   9  11
HETATM   11  C   UNL     1     -41.113  53.622 -52.804  1.00  0.00    -0.005 A 
HETATM   12  C   UNL     1     -40.525  52.732 -51.893  1.00  0.00     0.021 A 
HETATM   13  C   UNL     1     -39.946  51.517 -52.314  1.00  0.00    -0.055 A 
HETATM   14  C   UNL     1     -39.934  51.195 -53.684  1.00  0.00    -0.056 A 
HETATM   15  C   UNL     1     -39.334  50.608 -51.284  1.00  0.00     0.049 C 
HETATM   16  C   UNL     1     -39.349  49.919 -54.222  1.00  0.00     0.049 C 
HETATM   17  C   UNL     1     -40.538  52.076 -54.593  1.00  0.00     0.008 A 
HETATM   18  C   UNL     1     -41.115  53.271 -54.160  1.00  0.00     0.014 A 
ENDBRANCH   9  11
ENDBRANCH   1   5
BRANCH   2  19
HETATM   19  N   UNL     1     -44.668  59.627 -50.573  1.00  0.00    -0.165 NA
HETATM   20  C   UNL     1     -44.203  60.811 -50.337  1.00  0.00     0.157 A 
HETATM   21  C   UNL     1     -42.775  61.330 -50.534  1.00  0.00     0.277 A 
HETATM   22  C   UNL     1     -44.969  61.935 -49.816  1.00  0.00     0.027 A 
HETATM   23  O   UNL     1     -41.852  60.667 -50.956  1.00  0.00    -0.266 OA
HETATM   24  N   UNL     1     -42.803  62.649 -50.136  1.00  0.00    -0.321 N 
HETATM   25  C   UNL     1     -44.084  63.008 -49.715  1.00  0.00     0.048 A 
HETATM   26  H   UNL     1     -41.997  63.255 -50.155  1.00  0.00     0.169 HD
HETATM   27  C   UNL     1     -44.500  64.236 -49.248  1.00  0.00     0.030 A 
HETATM   28  C   UNL     1     -45.846  64.360 -48.881  1.00  0.00     0.002 A 
HETATM   29  C   UNL     1     -46.737  63.270 -48.985  1.00  0.00     0.001 A 
HETATM   30  C   UNL     1     -46.298  62.031 -49.461  1.00  0.00     0.016 A 
ENDBRANCH   2  19
TORSDOF 3
ENDMDL
MODEL 6
REMARK VINA RESULT:      -8.5     15.626     18.143
REMARK  3 active torsions:
REMARK  status: ('A' for Active; 'I' for Inactive)
REMARK    1  A    between atoms: C_6  and  C_7 
REMARK    2  A    between atoms: C_11  and  C_12 
REMARK       I    between atoms: C_12  and  N_13 
REMARK    3  A    between atoms: N_13  and  N_14 
ROOT
HETATM    1  C   UNL     1     -34.826  41.188 -53.184  1.00  0.00     0.289 C 
HETATM    2  N   UNL     1     -34.241  41.304 -54.434  1.00  0.00    -0.241 N 
HETATM    3  O   UNL     1     -36.011  41.417 -52.957  1.00  0.00    -0.264 OA
HETATM    4  H   UNL     1     -33.251  41.099 -54.568  1.00  0.00     0.192 HD
ENDROOT
BRANCH   1   5
HETATM    5  C   UNL     1     -33.936  40.769 -52.130  1.00  0.00     0.121 A 
HETATM    6  N   UNL     1     -32.583  40.810 -52.301  1.00  0.00    -0.272 N 
HETATM    7  N   UNL     1     -31.880  40.393 -51.240  1.00  0.00    -0.174 NA
HETATM    8  H   UNL     1     -32.087  41.118 -53.132  1.00  0.00     0.189 HD
HETATM    9  C   UNL     1     -32.805  40.060 -50.324  1.00  0.00     0.089 A 
HETATM   10  C   UNL     1     -34.113  40.283 -50.849  1.00  0.00     0.071 A 
BRANCH   9  11
HETATM   11  C   UNL     1     -32.419  39.551 -48.999  1.00  0.00    -0.005 A 
HETATM   12  C   UNL     1     -31.365  40.121 -48.268  1.00  0.00     0.021 A 
HETATM   13  C   UNL     1     -30.995  39.630 -46.999  1.00  0.00    -0.055 A 
HETATM   14  C   UNL     1     -31.680  38.526 -46.458  1.00  0.00    -0.056 A 
HETATM   15  C   UNL     1     -29.856  40.288 -46.269  1.00  0.00     0.049 C 
HETATM   16  C   UNL     1     -31.361  37.943 -45.110  1.00  0.00     0.049 C 
HETATM   17  C   UNL     1     -32.745  37.968 -47.180  1.00  0.00     0.008 A 
HETATM   18  C   UNL     1     -33.106  38.471 -48.431  1.00  0.00     0.014 A 
ENDBRANCH   9  11
ENDBRANCH   1   5
BRANCH   2  19
HETATM   19  N   UNL     1     -34.987  41.696 -55.512  1.00  0.00    -0.165 NA
HETATM   20  C   UNL     1     -35.206  40.806 -56.425  1.00  0.00     0.157 A 
HETATM   21  C   UNL     1     -34.738  39.349 -56.468  1.00  0.00     0.277 A 
HETATM   22  C   UNL     1     -35.971  41.017 -57.647  1.00  0.00     0.027 A 
HETATM   23  O   UNL     1     -34.068  38.814 -55.610  1.00  0.00    -0.266 OA
HETATM   24  N   UNL     1     -35.234  38.835 -57.646  1.00  0.00    -0.321 N 
HETATM   25  C   UNL     1     -35.956  39.807 -58.340  1.00  0.00     0.048 A 
HETATM   26  H   UNL     1     -35.085  37.884 -57.947  1.00  0.00     0.169 HD
HETATM   27  C   UNL     1     -36.597  39.669 -59.552  1.00  0.00     0.030 A 
HETATM   28  C   UNL     1     -37.264  40.793 -60.057  1.00  0.00     0.002 A 
HETATM   29  C   UNL     1     -37.275  42.015 -59.350  1.00  0.00     0.001 A 
HETATM   30  C   UNL     1     -36.620  42.137 -58.122  1.00  0.00     0.016 A 
ENDBRANCH   2  19
TORSDOF 3
ENDMDL
MODEL 7
REMARK VINA RESULT:      -8.4      3.561      9.799
REMARK  3 active torsions:
REMARK  status: ('A' for Active; 'I' for Inactive)
REMARK    1  A    between atoms: C_6  and  C_7 
REMARK    2  A    between atoms: C_11  and  C_12 
REMARK       I    between atoms: C_12  and  N_13 
REMARK    3  A    between atoms: N_13  and  N_14 
ROOT
HETATM    1  C   UNL     1     -42.239  56.174 -53.586  1.00  0.00     0.289 C 
HETATM    2  N   UNL     1     -41.008  55.597 -53.321  1.00  0.00    -0.241 N 
HETATM    3  O   UNL     1     -43.282  55.857 -53.020  1.00  0.00    -0.264 OA
HETATM    4  H   UNL     1     -40.172  55.899 -53.819  1.00  0.00     0.192 HD
ENDROOT
BRANCH   1   5
HETATM    5  C   UNL     1     -42.225  57.202 -54.596  1.00  0.00     0.121 A 
HETATM    6  N   UNL     1     -42.292  58.521 -54.252  1.00  0.00    -0.272 N 
HETATM    7  N   UNL     1     -42.268  59.365 -55.291  1.00  0.00    -0.174 NA
HETATM    8  H   UNL     1     -42.355  58.898 -53.311  1.00  0.00     0.189 HD
HETATM    9  C   UNL     1     -42.183  58.574 -56.375  1.00  0.00     0.089 A 
HETATM   10  C   UNL     1     -42.154  57.204 -55.976  1.00  0.00     0.071 A 
BRANCH   9  11
HETATM   11  C   UNL     1     -42.130  59.140 -57.731  1.00  0.00    -0.005 A 
HETATM   12  C   UNL     1     -41.534  60.384 -57.988  1.00  0.00     0.021 A 
HETATM   13  C   UNL     1     -41.486  60.926 -59.289  1.00  0.00    -0.055 A 
HETATM   14  C   UNL     1     -42.071  60.217 -60.355  1.00  0.00    -0.056 A 
HETATM   15  C   UNL     1     -40.830  62.264 -59.495  1.00  0.00     0.049 C 
HETATM   16  C   UNL     1     -42.058  60.713 -61.775  1.00  0.00     0.049 C 
HETATM   17  C   UNL     1     -42.651  58.966 -60.101  1.00  0.00     0.008 A 
HETATM   18  C   UNL     1     -42.682  58.438 -58.810  1.00  0.00     0.014 A 
ENDBRANCH   9  11
ENDBRANCH   1   5
BRANCH   2  19
HETATM   19  N   UNL     1     -40.898  54.608 -52.381  1.00  0.00    -0.165 NA
HETATM   20  C   UNL     1     -40.491  53.451 -52.796  1.00  0.00     0.157 A 
HETATM   21  C   UNL     1     -40.106  53.030 -54.217  1.00  0.00     0.277 A 
HETATM   22  C   UNL     1     -40.307  52.269 -51.964  1.00  0.00     0.027 A 
HETATM   23  O   UNL     1     -40.137  53.759 -55.185  1.00  0.00    -0.266 OA
HETATM   24  N   UNL     1     -39.745  51.703 -54.124  1.00  0.00    -0.321 N 
HETATM   25  C   UNL     1     -39.860  51.254 -52.808  1.00  0.00     0.048 A 
HETATM   26  H   UNL     1     -39.440  51.151 -54.911  1.00  0.00     0.169 HD
HETATM   27  C   UNL     1     -39.589  49.991 -52.327  1.00  0.00     0.030 A 
HETATM   28  C   UNL     1     -39.781  49.773 -50.956  1.00  0.00     0.002 A 
HETATM   29  C   UNL     1     -40.234  50.806 -50.107  1.00  0.00     0.001 A 
HETATM   30  C   UNL     1     -40.504  52.080 -50.612  1.00  0.00     0.016 A 
ENDBRANCH   2  19
TORSDOF 3
ENDMDL
MODEL 8
REMARK VINA RESULT:      -8.3      3.633      9.839
REMARK  3 active torsions:
REMARK  status: ('A' for Active; 'I' for Inactive)
REMARK    1  A    between atoms: C_6  and  C_7 
REMARK    2  A    between atoms: C_11  and  C_12 
REMARK       I    between atoms: C_12  and  N_13 
REMARK    3  A    between atoms: N_13  and  N_14 
ROOT
HETATM    1  C   UNL     1     -42.566  55.385 -56.395  1.00  0.00     0.289 C 
HETATM    2  N   UNL     1     -41.317  55.204 -55.824  1.00  0.00    -0.241 N 
HETATM    3  O   UNL     1     -43.370  54.477 -56.588  1.00  0.00    -0.264 OA
HETATM    4  H   UNL     1     -40.688  55.994 -55.683  1.00  0.00     0.192 HD
ENDROOT
BRANCH   1   5
HETATM    5  C   UNL     1     -42.879  56.744 -56.759  1.00  0.00     0.121 A 
HETATM    6  N   UNL     1     -44.164  57.115 -57.034  1.00  0.00    -0.272 N 
HETATM    7  N   UNL     1     -44.308  58.407 -57.355  1.00  0.00    -0.174 NA
HETATM    8  H   UNL     1     -44.983  56.517 -57.014  1.00  0.00     0.189 HD
HETATM    9  C   UNL     1     -43.066  58.918 -57.293  1.00  0.00     0.089 A 
HETATM   10  C   UNL     1     -42.139  57.900 -56.920  1.00  0.00     0.071 A 
BRANCH   9  11
HETATM   11  C   UNL     1     -42.809  60.337 -57.582  1.00  0.00    -0.005 A 
HETATM   12  C   UNL     1     -41.576  60.775 -58.086  1.00  0.00     0.021 A 
HETATM   13  C   UNL     1     -41.331  62.137 -58.361  1.00  0.00    -0.055 A 
HETATM   14  C   UNL     1     -42.337  63.086 -58.101  1.00  0.00    -0.056 A 
HETATM   15  C   UNL     1     -39.986  62.539 -58.902  1.00  0.00     0.049 C 
HETATM   16  C   UNL     1     -42.168  64.556 -58.372  1.00  0.00     0.049 C 
HETATM   17  C   UNL     1     -43.576  62.646 -57.614  1.00  0.00     0.008 A 
HETATM   18  C   UNL     1     -43.807  61.294 -57.356  1.00  0.00     0.014 A 
ENDBRANCH   9  11
ENDBRANCH   1   5
BRANCH   2  19
HETATM   19  N   UNL     1     -40.909  53.956 -55.439  1.00  0.00    -0.165 NA
HETATM   20  C   UNL     1     -40.737  53.763 -54.171  1.00  0.00     0.157 A 
HETATM   21  C   UNL     1     -40.932  54.756 -53.021  1.00  0.00     0.277 A 
HETATM   22  C   UNL     1     -40.306  52.516 -53.554  1.00  0.00     0.027 A 
HETATM   23  O   UNL     1     -41.289  55.907 -53.156  1.00  0.00    -0.266 OA
HETATM   24  N   UNL     1     -40.619  54.059 -51.874  1.00  0.00    -0.321 N 
HETATM   25  C   UNL     1     -40.253  52.748 -52.180  1.00  0.00     0.048 A 
HETATM   26  H   UNL     1     -40.657  54.460 -50.949  1.00  0.00     0.169 HD
HETATM   27  C   UNL     1     -39.875  51.756 -51.301  1.00  0.00     0.030 A 
HETATM   28  C   UNL     1     -39.548  50.508 -51.846  1.00  0.00     0.002 A 
HETATM   29  C   UNL     1     -39.605  50.279 -53.238  1.00  0.00     0.001 A 
HETATM   30  C   UNL     1     -39.990  51.296 -54.114  1.00  0.00     0.016 A 
ENDBRANCH   2  19
TORSDOF 3
ENDMDL
MODEL 9
REMARK VINA RESULT:      -8.3      6.734     10.717
REMARK  3 active torsions:
REMARK  status: ('A' for Active; 'I' for Inactive)
REMARK    1  A    between atoms: C_6  and  C_7 
REMARK    2  A    between atoms: C_11  and  C_12 
REMARK       I    between atoms: C_12  and  N_13 
REMARK    3  A    between atoms: N_13  and  N_14 
ROOT
HETATM    1  C   UNL     1     -43.469  57.715 -52.211  1.00  0.00     0.289 C 
HETATM    2  N   UNL     1     -42.153  57.287 -52.164  1.00  0.00    -0.241 N 
HETATM    3  O   UNL     1     -44.347  57.165 -52.873  1.00  0.00    -0.264 OA
HETATM    4  H   UNL     1     -41.464  57.780 -51.596  1.00  0.00     0.192 HD
ENDROOT
BRANCH   1   5
HETATM    5  C   UNL     1     -43.761  58.879 -51.413  1.00  0.00     0.121 A 
HETATM    6  N   UNL     1     -42.874  59.913 -51.333  1.00  0.00    -0.272 N 
HETATM    7  N   UNL     1     -43.276  60.928 -50.558  1.00  0.00    -0.174 NA
HETATM    8  H   UNL     1     -41.971  59.972 -51.795  1.00  0.00     0.189 HD
HETATM    9  C   UNL     1     -44.484  60.554 -50.101  1.00  0.00     0.089 A 
HETATM   10  C   UNL     1     -44.823  59.268 -50.618  1.00  0.00     0.071 A 
BRANCH   9  11
HETATM   11  C   UNL     1     -45.263  61.421 -49.204  1.00  0.00    -0.005 A 
HETATM   12  C   UNL     1     -44.938  61.560 -47.847  1.00  0.00     0.021 A 
HETATM   13  C   UNL     1     -45.688  62.390 -46.988  1.00  0.00    -0.055 A 
HETATM   14  C   UNL     1     -46.805  63.079 -47.495  1.00  0.00    -0.056 A 
HETATM   15  C   UNL     1     -45.284  62.494 -45.543  1.00  0.00     0.049 C 
HETATM   16  C   UNL     1     -47.656  63.993 -46.656  1.00  0.00     0.049 C 
HETATM   17  C   UNL     1     -47.119  62.955 -48.856  1.00  0.00     0.008 A 
HETATM   18  C   UNL     1     -46.361  62.137 -49.696  1.00  0.00     0.014 A 
ENDBRANCH   9  11
ENDBRANCH   1   5
BRANCH   2  19
HETATM   19  N   UNL     1     -41.757  56.192 -52.884  1.00  0.00    -0.165 NA
HETATM   20  C   UNL     1     -41.225  55.218 -52.219  1.00  0.00     0.157 A 
HETATM   21  C   UNL     1     -40.972  55.119 -50.712  1.00  0.00     0.277 A 
HETATM   22  C   UNL     1     -40.737  53.970 -52.789  1.00  0.00     0.027 A 
HETATM   23  O   UNL     1     -41.251  55.983 -49.907  1.00  0.00    -0.266 OA
HETATM   24  N   UNL     1     -40.386  53.888 -50.515  1.00  0.00    -0.321 N 
HETATM   25  C   UNL     1     -40.247  53.211 -51.727  1.00  0.00     0.048 A 
HETATM   26  H   UNL     1     -40.105  53.541 -49.610  1.00  0.00     0.169 HD
HETATM   27  C   UNL     1     -39.707  51.960 -51.931  1.00  0.00     0.030 A 
HETATM   28  C   UNL     1     -39.672  51.483 -53.248  1.00  0.00     0.002 A 
HETATM   29  C   UNL     1     -40.171  52.257 -54.319  1.00  0.00     0.001 A 
HETATM   30  C   UNL     1     -40.715  53.523 -54.094  1.00  0.00     0.016 A 
ENDBRANCH   2  19
TORSDOF 3
ENDMDL
MODEL 10
REMARK VINA RESULT:      -8.2     15.092     18.837
REMARK  3 active torsions:
REMARK  status: ('A' for Active; 'I' for Inactive)
REMARK    1  A    between atoms: C_6  and  C_7 
REMARK    2  A    between atoms: C_11  and  C_12 
REMARK       I    between atoms: C_12  and  N_13 
REMARK    3  A    between atoms: N_13  and  N_14 
ROOT
HETATM    1  C   UNL     1     -33.287  39.254 -52.452  1.00  0.00     0.289 C 
HETATM    2  N   UNL     1     -33.106  40.390 -53.223  1.00  0.00    -0.241 N 
HETATM    3  O   UNL     1     -33.894  38.256 -52.832  1.00  0.00    -0.264 OA
HETATM    4  H   UNL     1     -32.591  41.191 -52.860  1.00  0.00     0.192 HD
ENDROOT
BRANCH   1   5
HETATM    5  C   UNL     1     -32.701  39.311 -51.137  1.00  0.00     0.121 A 
HETATM    6  N   UNL     1     -31.529  39.975 -50.921  1.00  0.00    -0.272 N 
HETATM    7  N   UNL     1     -31.103  39.947 -49.652  1.00  0.00    -0.174 NA
HETATM    8  H   UNL     1     -30.977  40.469 -51.616  1.00  0.00     0.189 HD
HETATM    9  C   UNL     1     -32.032  39.232 -48.993  1.00  0.00     0.089 A 
HETATM   10  C   UNL     1     -33.054  38.814 -49.896  1.00  0.00     0.071 A 
BRANCH   9  11
HETATM   11  C   UNL     1     -31.917  38.979 -47.549  1.00  0.00    -0.005 A 
HETATM   12  C   UNL     1     -30.932  39.599 -46.767  1.00  0.00     0.021 A 
HETATM   13  C   UNL     1     -30.822  39.352 -45.383  1.00  0.00    -0.055 A 
HETATM   14  C   UNL     1     -31.706  38.443 -44.771  1.00  0.00    -0.056 A 
HETATM   15  C   UNL     1     -29.743  40.051 -44.603  1.00  0.00     0.049 C 
HETATM   16  C   UNL     1     -31.670  38.127 -43.301  1.00  0.00     0.049 C 
HETATM   17  C   UNL     1     -32.703  37.837 -45.549  1.00  0.00     0.008 A 
HETATM   18  C   UNL     1     -32.805  38.099 -46.916  1.00  0.00     0.014 A 
ENDBRANCH   9  11
ENDBRANCH   1   5
BRANCH   2  19
HETATM   19  N   UNL     1     -33.619  40.453 -54.491  1.00  0.00    -0.165 NA
HETATM   20  C   UNL     1     -34.727  41.104 -54.640  1.00  0.00     0.157 A 
HETATM   21  C   UNL     1     -35.558  41.828 -53.577  1.00  0.00     0.277 A 
HETATM   22  C   UNL     1     -35.439  41.289 -55.898  1.00  0.00     0.027 A 
HETATM   23  O   UNL     1     -35.272  41.887 -52.400  1.00  0.00    -0.266 OA
HETATM   24  N   UNL     1     -36.639  42.357 -54.248  1.00  0.00    -0.321 N 
HETATM   25  C   UNL     1     -36.574  42.045 -55.606  1.00  0.00     0.048 A 
HETATM   26  H   UNL     1     -37.366  42.895 -53.801  1.00  0.00     0.169 HD
HETATM   27  C   UNL     1     -37.470  42.397 -56.592  1.00  0.00     0.030 A 
HETATM   28  C   UNL     1     -37.194  41.965 -57.895  1.00  0.00     0.002 A 
HETATM   29  C   UNL     1     -36.043  41.200 -58.184  1.00  0.00     0.001 A 
HETATM   30  C   UNL     1     -35.144  40.852 -57.172  1.00  0.00     0.016 A 
ENDBRANCH   2  19
TORSDOF 3
ENDMDL
