MODEL 1
REMARK VINA RESULT:      -8.7      0.000      0.000
REMARK  11 active torsions:
REMARK  status: ('A' for Active; 'I' for Inactive)
REMARK    1  A    between atoms: C_2  and  C_3 
REMARK    2  A    between atoms: C_3  and  C_4 
REMARK       I    between atoms: C_4  and  N_6 
REMARK    3  A    between atoms: N_6  and  C_7 
REMARK    4  A    between atoms: C_11  and  C_13 
REMARK    5  A    between atoms: C_15  and  N_16 
REMARK    6  A    between atoms: N_16  and  C_17 
REMARK    7  A    between atoms: C_29  and  O_30 
REMARK    8  A    between atoms: O_30  and  C_31 
REMARK    9  A    between atoms: C_31  and  C_32 
REMARK   10  A    between atoms: C_32  and  N_33 
REMARK   11  A    between atoms: C_41  and  O_42 
ROOT
HETATM    1  C   UNL     1     -42.183  57.937 -53.785  1.00  0.00     0.162 A 
HETATM    2  N   UNL     1     -42.301  56.615 -53.596  1.00  0.00    -0.215 NA
HETATM    3  C   UNL     1     -42.499  55.840 -54.669  1.00  0.00     0.122 A 
HETATM    4  C   UNL     1     -42.575  56.374 -55.962  1.00  0.00     0.036 A 
HETATM    5  C   UNL     1     -42.810  55.610 -57.133  1.00  0.00     0.057 A 
HETATM    6  C   UNL     1     -42.883  56.220 -58.384  1.00  0.00     0.103 A 
HETATM    7  C   UNL     1     -42.645  57.593 -58.472  1.00  0.00     0.103 A 
HETATM    8  C   UNL     1     -42.432  58.345 -57.312  1.00  0.00     0.072 A 
HETATM    9  C   UNL     1     -42.393  57.759 -56.055  1.00  0.00     0.075 A 
HETATM   10  N   UNL     1     -42.195  58.536 -54.986  1.00  0.00    -0.228 NA
ENDROOT
BRANCH   1  11
HETATM   11  C   UNL     1     -42.124  58.779 -52.579  1.00  0.00     0.014 A 
HETATM   12  C   UNL     1     -40.984  58.837 -51.762  1.00  0.00     0.015 A 
HETATM   13  C   UNL     1     -40.958  59.644 -50.623  1.00  0.00     0.003 A 
HETATM   14  C   UNL     1     -42.067  60.425 -50.291  1.00  0.00     0.029 A 
HETATM   15  C   UNL     1     -43.207  60.415 -51.099  1.00  0.00     0.035 A 
HETATM   16  C   UNL     1     -43.228  59.583 -52.219  1.00  0.00     0.044 A 
BRANCH  15  17
HETATM   17  N   UNL     1     -44.288  61.243 -50.725  1.00  0.00    -0.327 N 
HETATM   18  C   UNL     1     -45.429  60.861 -50.034  1.00  0.00     0.222 C 
HETATM   19  O   UNL     1     -45.736  59.719 -49.711  1.00  0.00    -0.273 OA
HETATM   20  H   UNL     1     -44.253  62.199 -51.054  1.00  0.00     0.169 HD
BRANCH  18  21
HETATM   21  C   UNL     1     -46.322  62.051 -49.721  1.00  0.00     0.103 C 
BRANCH  21  22
HETATM   22  C   UNL     1     -45.850  62.810 -48.481  1.00  0.00     0.005 C 
HETATM   23  C   UNL     1     -46.210  62.077 -47.201  1.00  0.00     0.005 C 
ENDBRANCH  21  22
ENDBRANCH  18  21
ENDBRANCH  15  17
ENDBRANCH   1  11
BRANCH   3  24
HETATM   24  N   UNL     1     -42.725  54.448 -54.471  1.00  0.00    -0.243 NA
HETATM   25  H   UNL     1     -43.602  54.354 -53.967  1.00  0.00     0.135 HD
BRANCH  24  26
HETATM   26  C   UNL     1     -41.772  53.510 -53.994  1.00  0.00     0.015 A 
HETATM   27  C   UNL     1     -41.160  53.727 -52.749  1.00  0.00     0.026 A 
HETATM   28  C   UNL     1     -40.265  52.806 -52.186  1.00  0.00     0.034 A 
HETATM   29  C   UNL     1     -40.028  51.634 -52.905  1.00  0.00     0.061 A 
HETATM   30  N   UNL     1     -39.228  50.550 -52.652  1.00  0.00    -0.278 N 
HETATM   31  C   UNL     1     -40.641  51.360 -54.121  1.00  0.00     0.013 A 
HETATM   32  H   UNL     1     -38.618  50.404 -51.856  1.00  0.00     0.189 HD
HETATM   33  N   UNL     1     -39.294  49.588 -53.589  1.00  0.00    -0.186 NA
HETATM   34  C   UNL     1     -40.146  50.089 -54.487  1.00  0.00     0.152 A 
HETATM   35  C   UNL     1     -41.533  52.299 -54.668  1.00  0.00     0.039 A 
ENDBRANCH  24  26
ENDBRANCH   3  24
BRANCH   7  36
HETATM   36  O   UNL     1     -42.691  58.306 -59.643  1.00  0.00    -0.353 OA
HETATM   37  C   UNL     1     -42.479  59.704 -59.454  1.00  0.00     0.210 C 
ENDBRANCH   7  36
BRANCH   6  38
HETATM   38  O   UNL     1     -43.155  55.535 -59.537  1.00  0.00    -0.347 OA
BRANCH  38  39
HETATM   39  C   UNL     1     -44.460  54.950 -59.611  1.00  0.00     0.206 C 
BRANCH  39  40
HETATM   40  C   UNL     1     -45.326  55.884 -60.473  1.00  0.00     0.299 C 
BRANCH  40  41
HETATM   41  N   UNL     1     -46.633  56.237 -59.879  1.00  0.00     0.093 N 
HETATM   42  C   UNL     1     -47.659  56.590 -60.881  1.00  0.00     0.300 C 
HETATM   43  C   UNL     1     -47.471  57.964 -61.556  1.00  0.00     0.264 C 
HETATM   44  N   UNL     1     -47.341  59.052 -60.501  1.00  0.00    -0.072 N 
HETATM   45  H   UNL     1     -48.229  59.066 -59.981  1.00  0.00     0.279 HD
HETATM   46  C   UNL     1     -47.157  60.409 -61.112  1.00  0.00     0.269 C 
HETATM   47  C   UNL     1     -46.252  58.726 -59.491  1.00  0.00     0.264 C 
HETATM   48  C   UNL     1     -46.493  57.325 -58.888  1.00  0.00     0.300 C 
ENDBRANCH  40  41
ENDBRANCH  39  40
ENDBRANCH  38  39
ENDBRANCH   6  38
TORSDOF 11
ENDMDL
MODEL 2
REMARK VINA RESULT:      -8.5      1.320      1.674
REMARK  11 active torsions:
REMARK  status: ('A' for Active; 'I' for Inactive)
REMARK    1  A    between atoms: C_2  and  C_3 
REMARK    2  A    between atoms: C_3  and  C_4 
REMARK       I    between atoms: C_4  and  N_6 
REMARK    3  A    between atoms: N_6  and  C_7 
REMARK    4  A    between atoms: C_11  and  C_13 
REMARK    5  A    between atoms: C_15  and  N_16 
REMARK    6  A    between atoms: N_16  and  C_17 
REMARK    7  A    between atoms: C_29  and  O_30 
REMARK    8  A    between atoms: O_30  and  C_31 
REMARK    9  A    between atoms: C_31  and  C_32 
REMARK   10  A    between atoms: C_32  and  N_33 
REMARK   11  A    between atoms: C_41  and  O_42 
ROOT
HETATM    1  C   UNL     1     -42.998  59.383 -53.909  1.00  0.00     0.162 A 
HETATM    2  N   UNL     1     -43.134  58.110 -53.512  1.00  0.00    -0.215 NA
HETATM    3  C   UNL     1     -43.083  57.150 -54.444  1.00  0.00     0.122 A 
HETATM    4  C   UNL     1     -42.887  57.447 -55.800  1.00  0.00     0.036 A 
HETATM    5  C   UNL     1     -42.852  56.479 -56.835  1.00  0.00     0.057 A 
HETATM    6  C   UNL     1     -42.662  56.857 -58.163  1.00  0.00     0.103 A 
HETATM    7  C   UNL     1     -42.432  58.205 -58.447  1.00  0.00     0.103 A 
HETATM    8  C   UNL     1     -42.487  59.158 -57.424  1.00  0.00     0.072 A 
HETATM    9  C   UNL     1     -42.711  58.802 -56.102  1.00  0.00     0.075 A 
HETATM   10  N   UNL     1     -42.760  59.763 -55.174  1.00  0.00    -0.228 NA
ENDROOT
BRANCH   1  11
HETATM   11  C   UNL     1     -43.214  60.425 -52.891  1.00  0.00     0.014 A 
HETATM   12  C   UNL     1     -43.031  61.789 -53.167  1.00  0.00     0.015 A 
HETATM   13  C   UNL     1     -43.241  62.754 -52.181  1.00  0.00     0.003 A 
HETATM   14  C   UNL     1     -43.658  62.373 -50.903  1.00  0.00     0.029 A 
HETATM   15  C   UNL     1     -43.878  61.026 -50.603  1.00  0.00     0.035 A 
HETATM   16  C   UNL     1     -43.639  60.071 -51.592  1.00  0.00     0.044 A 
BRANCH  15  17
HETATM   17  N   UNL     1     -44.321  60.704 -49.301  1.00  0.00    -0.327 N 
HETATM   18  C   UNL     1     -45.564  60.985 -48.752  1.00  0.00     0.222 C 
HETATM   19  O   UNL     1     -46.458  61.643 -49.272  1.00  0.00    -0.273 OA
HETATM   20  H   UNL     1     -43.636  60.283 -48.687  1.00  0.00     0.169 HD
BRANCH  18  21
HETATM   21  C   UNL     1     -45.711  60.390 -47.360  1.00  0.00     0.103 C 
BRANCH  21  22
HETATM   22  C   UNL     1     -44.821  61.096 -46.338  1.00  0.00     0.005 C 
HETATM   23  C   UNL     1     -45.318  62.497 -46.031  1.00  0.00     0.005 C 
ENDBRANCH  21  22
ENDBRANCH  18  21
ENDBRANCH  15  17
ENDBRANCH   1  11
BRANCH   3  24
HETATM   24  N   UNL     1     -43.325  55.804 -54.048  1.00  0.00    -0.243 NA
HETATM   25  H   UNL     1     -44.149  55.808 -53.454  1.00  0.00     0.135 HD
BRANCH  24  26
HETATM   26  C   UNL     1     -42.354  54.896 -53.551  1.00  0.00     0.015 A 
HETATM   27  C   UNL     1     -41.983  54.963 -52.198  1.00  0.00     0.026 A 
HETATM   28  C   UNL     1     -41.084  54.052 -51.625  1.00  0.00     0.034 A 
HETATM   29  C   UNL     1     -40.592  53.042 -52.453  1.00  0.00     0.061 A 
HETATM   30  N   UNL     1     -39.716  52.013 -52.222  1.00  0.00    -0.278 N 
HETATM   31  C   UNL     1     -40.962  52.914 -53.785  1.00  0.00     0.013 A 
HETATM   32  H   UNL     1     -39.230  51.797 -51.360  1.00  0.00     0.189 HD
HETATM   33  N   UNL     1     -39.511  51.217 -53.286  1.00  0.00    -0.186 NA
HETATM   34  C   UNL     1     -40.262  51.775 -54.239  1.00  0.00     0.152 A 
HETATM   35  C   UNL     1     -41.862  53.842 -54.341  1.00  0.00     0.039 A 
ENDBRANCH  24  26
ENDBRANCH   3  24
BRANCH   7  36
HETATM   36  O   UNL     1     -42.235  58.700 -59.711  1.00  0.00    -0.353 OA
HETATM   37  C   UNL     1     -42.457  60.106 -59.801  1.00  0.00     0.210 C 
ENDBRANCH   7  36
BRANCH   6  38
HETATM   38  O   UNL     1     -42.668  55.968 -59.203  1.00  0.00    -0.347 OA
BRANCH  38  39
HETATM   39  C   UNL     1     -43.889  55.240 -59.382  1.00  0.00     0.206 C 
BRANCH  39  40
HETATM   40  C   UNL     1     -44.816  56.115 -60.243  1.00  0.00     0.299 C 
BRANCH  40  41
HETATM   41  N   UNL     1     -46.034  56.588 -59.553  1.00  0.00     0.093 N 
HETATM   42  C   UNL     1     -47.283  56.253 -60.266  1.00  0.00     0.300 C 
HETATM   43  C   UNL     1     -47.552  57.079 -61.541  1.00  0.00     0.264 C 
HETATM   44  N   UNL     1     -47.485  58.565 -61.225  1.00  0.00    -0.072 N 
HETATM   45  H   UNL     1     -48.238  58.757 -60.551  1.00  0.00     0.279 HD
HETATM   46  C   UNL     1     -47.742  59.410 -62.437  1.00  0.00     0.269 C 
HETATM   47  C   UNL     1     -46.181  58.933 -60.535  1.00  0.00     0.264 C 
HETATM   48  C   UNL     1     -45.970  58.042 -59.293  1.00  0.00     0.300 C 
ENDBRANCH  40  41
ENDBRANCH  39  40
ENDBRANCH  38  39
ENDBRANCH   6  38
TORSDOF 11
ENDMDL
MODEL 3
REMARK VINA RESULT:      -8.4      2.503      7.719
REMARK  11 active torsions:
REMARK  status: ('A' for Active; 'I' for Inactive)
REMARK    1  A    between atoms: C_2  and  C_3 
REMARK    2  A    between atoms: C_3  and  C_4 
REMARK       I    between atoms: C_4  and  N_6 
REMARK    3  A    between atoms: N_6  and  C_7 
REMARK    4  A    between atoms: C_11  and  C_13 
REMARK    5  A    between atoms: C_15  and  N_16 
REMARK    6  A    between atoms: N_16  and  C_17 
REMARK    7  A    between atoms: C_29  and  O_30 
REMARK    8  A    between atoms: O_30  and  C_31 
REMARK    9  A    between atoms: C_31  and  C_32 
REMARK   10  A    between atoms: C_32  and  N_33 
REMARK   11  A    between atoms: C_41  and  O_42 
ROOT
HETATM    1  C   UNL     1     -42.580  56.143 -52.516  1.00  0.00     0.162 A 
HETATM    2  N   UNL     1     -43.528  56.922 -51.978  1.00  0.00    -0.215 NA
HETATM    3  C   UNL     1     -44.227  57.720 -52.795  1.00  0.00     0.122 A 
HETATM    4  C   UNL     1     -43.994  57.748 -54.177  1.00  0.00     0.036 A 
HETATM    5  C   UNL     1     -44.681  58.589 -55.088  1.00  0.00     0.057 A 
HETATM    6  C   UNL     1     -44.382  58.565 -56.450  1.00  0.00     0.103 A 
HETATM    7  C   UNL     1     -43.444  57.639 -56.911  1.00  0.00     0.103 A 
HETATM    8  C   UNL     1     -42.756  56.825 -56.005  1.00  0.00     0.072 A 
HETATM    9  C   UNL     1     -43.015  56.863 -54.642  1.00  0.00     0.075 A 
HETATM   10  N   UNL     1     -42.316  56.065 -53.830  1.00  0.00    -0.228 NA
ENDROOT
BRANCH   1  11
HETATM   11  C   UNL     1     -41.723  55.395 -51.581  1.00  0.00     0.014 A 
HETATM   12  C   UNL     1     -41.484  55.836 -50.270  1.00  0.00     0.015 A 
HETATM   13  C   UNL     1     -40.665  55.106 -49.406  1.00  0.00     0.003 A 
HETATM   14  C   UNL     1     -40.085  53.909 -49.833  1.00  0.00     0.029 A 
HETATM   15  C   UNL     1     -40.326  53.426 -51.121  1.00  0.00     0.035 A 
HETATM   16  C   UNL     1     -41.126  54.180 -51.982  1.00  0.00     0.044 A 
BRANCH  15  17
HETATM   17  N   UNL     1     -39.731  52.199 -51.488  1.00  0.00    -0.327 N 
HETATM   18  C   UNL     1     -39.891  50.974 -50.855  1.00  0.00     0.222 C 
HETATM   19  O   UNL     1     -40.505  50.767 -49.814  1.00  0.00    -0.273 OA
HETATM   20  H   UNL     1     -39.069  52.234 -52.252  1.00  0.00     0.169 HD
BRANCH  18  21
HETATM   21  C   UNL     1     -39.176  49.858 -51.601  1.00  0.00     0.103 C 
BRANCH  21  22
HETATM   22  C   UNL     1     -39.906  49.470 -52.886  1.00  0.00     0.005 C 
HETATM   23  C   UNL     1     -39.201  50.007 -54.119  1.00  0.00     0.005 C 
ENDBRANCH  21  22
ENDBRANCH  18  21
ENDBRANCH  15  17
ENDBRANCH   1  11
BRANCH   3  24
HETATM   24  N   UNL     1     -45.167  58.623 -52.224  1.00  0.00    -0.243 NA
HETATM   25  H   UNL     1     -45.774  58.941 -52.975  1.00  0.00     0.135 HD
BRANCH  24  26
HETATM   26  C   UNL     1     -44.864  59.692 -51.340  1.00  0.00     0.015 A 
HETATM   27  C   UNL     1     -44.037  60.736 -51.786  1.00  0.00     0.026 A 
HETATM   28  C   UNL     1     -43.755  61.856 -50.991  1.00  0.00     0.034 A 
HETATM   29  C   UNL     1     -44.362  61.911 -49.737  1.00  0.00     0.061 A 
HETATM   30  N   UNL     1     -44.302  62.838 -48.729  1.00  0.00    -0.278 N 
HETATM   31  C   UNL     1     -45.217  60.921 -49.270  1.00  0.00     0.013 A 
HETATM   32  H   UNL     1     -43.763  63.696 -48.710  1.00  0.00     0.189 HD
HETATM   33  N   UNL     1     -45.068  62.544 -47.664  1.00  0.00    -0.186 NA
HETATM   34  C   UNL     1     -45.615  61.370 -47.992  1.00  0.00     0.152 A 
HETATM   35  C   UNL     1     -45.484  59.804 -50.083  1.00  0.00     0.039 A 
ENDBRANCH  24  26
ENDBRANCH   3  24
BRANCH   7  36
HETATM   36  O   UNL     1     -43.064  57.521 -58.224  1.00  0.00    -0.353 OA
HETATM   37  C   UNL     1     -41.925  58.315 -58.549  1.00  0.00     0.210 C 
ENDBRANCH   7  36
BRANCH   6  38
HETATM   38  O   UNL     1     -44.982  59.389 -57.363  1.00  0.00    -0.347 OA
BRANCH  38  39
HETATM   39  C   UNL     1     -46.410  59.464 -57.279  1.00  0.00     0.206 C 
BRANCH  39  40
HETATM   40  C   UNL     1     -46.977  58.554 -58.381  1.00  0.00     0.299 C 
BRANCH  40  41
HETATM   41  N   UNL     1     -46.106  58.401 -59.564  1.00  0.00     0.093 N 
HETATM   42  C   UNL     1     -46.522  59.228 -60.714  1.00  0.00     0.300 C 
HETATM   43  C   UNL     1     -47.789  58.741 -61.448  1.00  0.00     0.264 C 
HETATM   44  N   UNL     1     -47.632  57.284 -61.852  1.00  0.00    -0.072 N 
HETATM   45  H   UNL     1     -46.842  57.245 -62.511  1.00  0.00     0.279 HD
HETATM   46  C   UNL     1     -48.841  56.765 -62.571  1.00  0.00     0.269 C 
HETATM   47  C   UNL     1     -47.251  56.411 -60.667  1.00  0.00     0.264 C 
HETATM   48  C   UNL     1     -45.999  56.983 -59.969  1.00  0.00     0.300 C 
ENDBRANCH  40  41
ENDBRANCH  39  40
ENDBRANCH  38  39
ENDBRANCH   6  38
TORSDOF 11
ENDMDL
MODEL 4
REMARK VINA RESULT:      -8.4      3.459      8.018
REMARK  11 active torsions:
REMARK  status: ('A' for Active; 'I' for Inactive)
REMARK    1  A    between atoms: C_2  and  C_3 
REMARK    2  A    between atoms: C_3  and  C_4 
REMARK       I    between atoms: C_4  and  N_6 
REMARK    3  A    between atoms: N_6  and  C_7 
REMARK    4  A    between atoms: C_11  and  C_13 
REMARK    5  A    between atoms: C_15  and  N_16 
REMARK    6  A    between atoms: N_16  and  C_17 
REMARK    7  A    between atoms: C_29  and  O_30 
REMARK    8  A    between atoms: O_30  and  C_31 
REMARK    9  A    between atoms: C_31  and  C_32 
REMARK   10  A    between atoms: C_32  and  N_33 
REMARK   11  A    between atoms: C_41  and  O_42 
ROOT
HETATM    1  C   UNL     1     -42.680  57.717 -53.911  1.00  0.00     0.162 A 
HETATM    2  N   UNL     1     -42.435  57.429 -55.197  1.00  0.00    -0.215 NA
HETATM    3  C   UNL     1     -42.540  58.416 -56.095  1.00  0.00     0.122 A 
HETATM    4  C   UNL     1     -42.887  59.721 -55.721  1.00  0.00     0.036 A 
HETATM    5  C   UNL     1     -43.040  60.801 -56.627  1.00  0.00     0.057 A 
HETATM    6  C   UNL     1     -43.399  62.070 -56.174  1.00  0.00     0.103 A 
HETATM    7  C   UNL     1     -43.531  62.276 -54.800  1.00  0.00     0.103 A 
HETATM    8  C   UNL     1     -43.397  61.203 -53.912  1.00  0.00     0.072 A 
HETATM    9  C   UNL     1     -43.077  59.926 -54.349  1.00  0.00     0.075 A 
HETATM   10  N   UNL     1     -42.972  58.943 -53.449  1.00  0.00    -0.228 NA
ENDROOT
BRANCH   1  11
HETATM   11  C   UNL     1     -42.712  56.585 -52.969  1.00  0.00     0.014 A 
HETATM   12  C   UNL     1     -43.552  56.572 -51.845  1.00  0.00     0.015 A 
HETATM   13  C   UNL     1     -43.559  55.485 -50.968  1.00  0.00     0.003 A 
HETATM   14  C   UNL     1     -42.739  54.381 -51.212  1.00  0.00     0.029 A 
HETATM   15  C   UNL     1     -41.913  54.349 -52.338  1.00  0.00     0.035 A 
HETATM   16  C   UNL     1     -41.897  55.454 -53.191  1.00  0.00     0.044 A 
BRANCH  15  17
HETATM   17  N   UNL     1     -41.123  53.196 -52.544  1.00  0.00    -0.327 N 
HETATM   18  C   UNL     1     -40.027  52.794 -51.795  1.00  0.00     0.222 C 
HETATM   19  O   UNL     1     -39.500  53.419 -50.881  1.00  0.00    -0.273 OA
HETATM   20  H   UNL     1     -41.342  52.645 -53.364  1.00  0.00     0.169 HD
BRANCH  18  21
HETATM   21  C   UNL     1     -39.497  51.444 -52.254  1.00  0.00     0.103 C 
BRANCH  21  22
HETATM   22  C   UNL     1     -39.554  51.293 -53.774  1.00  0.00     0.005 C 
HETATM   23  C   UNL     1     -39.826  49.858 -54.188  1.00  0.00     0.005 C 
ENDBRANCH  21  22
ENDBRANCH  18  21
ENDBRANCH  15  17
ENDBRANCH   1  11
BRANCH   3  24
HETATM   24  N   UNL     1     -42.379  58.101 -57.474  1.00  0.00    -0.243 NA
HETATM   25  H   UNL     1     -42.075  58.950 -57.943  1.00  0.00     0.135 HD
BRANCH  24  26
HETATM   26  C   UNL     1     -43.307  57.390 -58.279  1.00  0.00     0.015 A 
HETATM   27  C   UNL     1     -42.941  56.140 -58.804  1.00  0.00     0.026 A 
HETATM   28  C   UNL     1     -43.833  55.353 -59.548  1.00  0.00     0.034 A 
HETATM   29  C   UNL     1     -45.125  55.852 -59.720  1.00  0.00     0.061 A 
HETATM   30  N   UNL     1     -46.219  55.354 -60.378  1.00  0.00    -0.278 N 
HETATM   31  C   UNL     1     -45.541  57.064 -59.186  1.00  0.00     0.013 A 
HETATM   32  H   UNL     1     -46.285  54.488 -60.900  1.00  0.00     0.189 HD
HETATM   33  N   UNL     1     -47.314  56.130 -60.290  1.00  0.00    -0.186 NA
HETATM   34  C   UNL     1     -46.895  57.175 -59.573  1.00  0.00     0.152 A 
HETATM   35  C   UNL     1     -44.630  57.839 -58.446  1.00  0.00     0.039 A 
ENDBRANCH  24  26
ENDBRANCH   3  24
BRANCH   7  36
HETATM   36  O   UNL     1     -43.882  63.476 -54.234  1.00  0.00    -0.353 OA
HETATM   37  C   UNL     1     -42.900  63.973 -53.326  1.00  0.00     0.210 C 
ENDBRANCH   7  36
BRANCH   6  38
HETATM   38  O   UNL     1     -43.606  63.132 -57.012  1.00  0.00    -0.347 OA
BRANCH  38  39
HETATM   39  C   UNL     1     -42.420  63.758 -57.515  1.00  0.00     0.206 C 
BRANCH  39  40
HETATM   40  C   UNL     1     -42.459  63.638 -59.048  1.00  0.00     0.299 C 
BRANCH  40  41
HETATM   41  N   UNL     1     -41.801  62.431 -59.590  1.00  0.00     0.093 N 
HETATM   42  C   UNL     1     -40.434  62.222 -59.071  1.00  0.00     0.300 C 
HETATM   43  C   UNL     1     -39.367  63.187 -59.627  1.00  0.00     0.264 C 
HETATM   44  N   UNL     1     -39.383  63.166 -61.147  1.00  0.00    -0.072 N 
HETATM   45  H   UNL     1     -39.132  62.209 -61.430  1.00  0.00     0.279 HD
HETATM   46  C   UNL     1     -38.359  64.090 -61.734  1.00  0.00     0.269 C 
HETATM   47  C   UNL     1     -40.776  63.430 -61.697  1.00  0.00     0.264 C 
HETATM   48  C   UNL     1     -41.788  62.448 -61.068  1.00  0.00     0.300 C 
ENDBRANCH  40  41
ENDBRANCH  39  40
ENDBRANCH  38  39
ENDBRANCH   6  38
TORSDOF 11
ENDMDL
MODEL 5
REMARK VINA RESULT:      -8.3      2.582      8.910
REMARK  11 active torsions:
REMARK  status: ('A' for Active; 'I' for Inactive)
REMARK    1  A    between atoms: C_2  and  C_3 
REMARK    2  A    between atoms: C_3  and  C_4 
REMARK       I    between atoms: C_4  and  N_6 
REMARK    3  A    between atoms: N_6  and  C_7 
REMARK    4  A    between atoms: C_11  and  C_13 
REMARK    5  A    between atoms: C_15  and  N_16 
REMARK    6  A    between atoms: N_16  and  C_17 
REMARK    7  A    between atoms: C_29  and  O_30 
REMARK    8  A    between atoms: O_30  and  C_31 
REMARK    9  A    between atoms: C_31  and  C_32 
REMARK   10  A    between atoms: C_32  and  N_33 
REMARK   11  A    between atoms: C_41  and  O_42 
ROOT
HETATM    1  C   UNL     1     -43.433  57.495 -56.200  1.00  0.00     0.162 A 
HETATM    2  N   UNL     1     -43.540  56.434 -55.389  1.00  0.00    -0.215 NA
HETATM    3  C   UNL     1     -43.727  56.654 -54.082  1.00  0.00     0.122 A 
HETATM    4  C   UNL     1     -43.818  57.951 -53.558  1.00  0.00     0.036 A 
HETATM    5  C   UNL     1     -43.988  58.249 -52.182  1.00  0.00     0.057 A 
HETATM    6  C   UNL     1     -44.058  59.569 -51.739  1.00  0.00     0.103 A 
HETATM    7  C   UNL     1     -44.034  60.594 -52.687  1.00  0.00     0.103 A 
HETATM    8  C   UNL     1     -43.847  60.294 -54.041  1.00  0.00     0.072 A 
HETATM    9  C   UNL     1     -43.738  58.988 -54.495  1.00  0.00     0.075 A 
HETATM   10  N   UNL     1     -43.553  58.771 -55.800  1.00  0.00    -0.228 NA
ENDROOT
BRANCH   1  11
HETATM   11  C   UNL     1     -43.072  57.229 -57.602  1.00  0.00     0.014 A 
HETATM   12  C   UNL     1     -43.195  55.954 -58.176  1.00  0.00     0.015 A 
HETATM   13  C   UNL     1     -42.844  55.731 -59.509  1.00  0.00     0.003 A 
HETATM   14  C   UNL     1     -42.380  56.786 -60.299  1.00  0.00     0.029 A 
HETATM   15  C   UNL     1     -42.273  58.074 -59.767  1.00  0.00     0.035 A 
HETATM   16  C   UNL     1     -42.604  58.276 -58.426  1.00  0.00     0.044 A 
BRANCH  15  17
HETATM   17  N   UNL     1     -41.820  59.104 -60.620  1.00  0.00    -0.327 N 
HETATM   18  C   UNL     1     -42.576  60.142 -61.146  1.00  0.00     0.222 C 
HETATM   19  O   UNL     1     -43.789  60.289 -61.034  1.00  0.00    -0.273 OA
HETATM   20  H   UNL     1     -40.859  59.038 -60.930  1.00  0.00     0.169 HD
BRANCH  18  21
HETATM   21  C   UNL     1     -41.719  61.118 -61.937  1.00  0.00     0.103 C 
BRANCH  21  22
HETATM   22  C   UNL     1     -41.547  62.449 -61.206  1.00  0.00     0.005 C 
HETATM   23  C   UNL     1     -40.682  62.304 -59.967  1.00  0.00     0.005 C 
ENDBRANCH  21  22
ENDBRANCH  18  21
ENDBRANCH  15  17
ENDBRANCH   1  11
BRANCH   3  24
HETATM   24  N   UNL     1     -43.744  55.538 -53.199  1.00  0.00    -0.243 NA
HETATM   25  H   UNL     1     -44.213  55.835 -52.348  1.00  0.00     0.135 HD
BRANCH  24  26
HETATM   26  C   UNL     1     -42.639  54.701 -52.894  1.00  0.00     0.015 A 
HETATM   27  C   UNL     1     -42.184  54.622 -51.568  1.00  0.00     0.026 A 
HETATM   28  C   UNL     1     -41.145  53.762 -51.185  1.00  0.00     0.034 A 
HETATM   29  C   UNL     1     -40.595  52.953 -52.179  1.00  0.00     0.061 A 
HETATM   30  N   UNL     1     -39.588  52.023 -52.151  1.00  0.00    -0.278 N 
HETATM   31  C   UNL     1     -41.039  52.969 -53.495  1.00  0.00     0.013 A 
HETATM   32  H   UNL     1     -39.019  51.751 -51.357  1.00  0.00     0.189 HD
HETATM   33  N   UNL     1     -39.364  51.419 -53.331  1.00  0.00    -0.186 NA
HETATM   34  C   UNL     1     -40.241  52.005 -54.150  1.00  0.00     0.152 A 
HETATM   35  C   UNL     1     -42.081  53.842 -53.858  1.00  0.00     0.039 A 
ENDBRANCH  24  26
ENDBRANCH   3  24
BRANCH   7  36
HETATM   36  O   UNL     1     -44.093  61.928 -52.375  1.00  0.00    -0.353 OA
HETATM   37  C   UNL     1     -43.273  62.735 -53.218  1.00  0.00     0.210 C 
ENDBRANCH   7  36
BRANCH   6  38
HETATM   38  O   UNL     1     -44.173  59.910 -50.419  1.00  0.00    -0.347 OA
BRANCH  38  39
HETATM   39  C   UNL     1     -45.511  59.961 -49.912  1.00  0.00     0.206 C 
BRANCH  39  40
HETATM   40  C   UNL     1     -45.728  61.376 -49.348  1.00  0.00     0.299 C 
BRANCH  40  41
HETATM   41  N   UNL     1     -44.822  61.745 -48.242  1.00  0.00     0.093 N 
HETATM   42  C   UNL     1     -45.151  61.083 -46.963  1.00  0.00     0.300 C 
HETATM   43  C   UNL     1     -46.413  61.617 -46.254  1.00  0.00     0.264 C 
HETATM   44  N   UNL     1     -46.315  63.125 -46.078  1.00  0.00    -0.072 N 
HETATM   45  H   UNL     1     -45.504  63.298 -45.470  1.00  0.00     0.279 HD
HETATM   46  C   UNL     1     -47.522  63.690 -45.391  1.00  0.00     0.269 C 
HETATM   47  C   UNL     1     -46.026  63.825 -47.397  1.00  0.00     0.264 C 
HETATM   48  C   UNL     1     -44.773  63.212 -48.058  1.00  0.00     0.300 C 
ENDBRANCH  40  41
ENDBRANCH  39  40
ENDBRANCH  38  39
ENDBRANCH   6  38
TORSDOF 11
ENDMDL
MODEL 6
REMARK VINA RESULT:      -8.1      3.602      8.071
REMARK  11 active torsions:
REMARK  status: ('A' for Active; 'I' for Inactive)
REMARK    1  A    between atoms: C_2  and  C_3 
REMARK    2  A    between atoms: C_3  and  C_4 
REMARK       I    between atoms: C_4  and  N_6 
REMARK    3  A    between atoms: N_6  and  C_7 
REMARK    4  A    between atoms: C_11  and  C_13 
REMARK    5  A    between atoms: C_15  and  N_16 
REMARK    6  A    between atoms: N_16  and  C_17 
REMARK    7  A    between atoms: C_29  and  O_30 
REMARK    8  A    between atoms: O_30  and  C_31 
REMARK    9  A    between atoms: C_31  and  C_32 
REMARK   10  A    between atoms: C_32  and  N_33 
REMARK   11  A    between atoms: C_41  and  O_42 
ROOT
HETATM    1  C   UNL     1     -45.295  60.588 -52.645  1.00  0.00     0.162 A 
HETATM    2  N   UNL     1     -45.516  59.405 -53.236  1.00  0.00    -0.215 NA
HETATM    3  C   UNL     1     -44.657  58.408 -52.992  1.00  0.00     0.122 A 
HETATM    4  C   UNL     1     -43.556  58.573 -52.141  1.00  0.00     0.036 A 
HETATM    5  C   UNL     1     -42.597  57.565 -51.866  1.00  0.00     0.057 A 
HETATM    6  C   UNL     1     -41.522  57.814 -51.014  1.00  0.00     0.103 A 
HETATM    7  C   UNL     1     -41.448  59.054 -50.376  1.00  0.00     0.103 A 
HETATM    8  C   UNL     1     -42.386  60.050 -50.666  1.00  0.00     0.072 A 
HETATM    9  C   UNL     1     -43.442  59.832 -51.540  1.00  0.00     0.075 A 
HETATM   10  N   UNL     1     -44.298  60.829 -51.780  1.00  0.00    -0.228 NA
ENDROOT
BRANCH   1  11
HETATM   11  C   UNL     1     -46.160  61.708 -53.051  1.00  0.00     0.014 A 
HETATM   12  C   UNL     1     -45.653  62.853 -53.684  1.00  0.00     0.015 A 
HETATM   13  C   UNL     1     -46.498  63.900 -54.056  1.00  0.00     0.003 A 
HETATM   14  C   UNL     1     -47.872  63.812 -53.819  1.00  0.00     0.029 A 
HETATM   15  C   UNL     1     -48.414  62.673 -53.218  1.00  0.00     0.035 A 
HETATM   16  C   UNL     1     -47.553  61.646 -52.828  1.00  0.00     0.044 A 
BRANCH  15  17
HETATM   17  N   UNL     1     -49.812  62.631 -53.025  1.00  0.00    -0.327 N 
HETATM   18  C   UNL     1     -50.759  62.120 -53.902  1.00  0.00     0.222 C 
HETATM   19  O   UNL     1     -50.550  61.701 -55.035  1.00  0.00    -0.273 OA
HETATM   20  H   UNL     1     -50.162  63.080 -52.188  1.00  0.00     0.169 HD
BRANCH  18  21
HETATM   21  C   UNL     1     -52.156  62.153 -53.303  1.00  0.00     0.103 C 
BRANCH  21  22
HETATM   22  C   UNL     1     -52.343  63.334 -52.350  1.00  0.00     0.005 C 
HETATM   23  C   UNL     1     -53.044  62.919 -51.069  1.00  0.00     0.005 C 
ENDBRANCH  21  22
ENDBRANCH  18  21
ENDBRANCH  15  17
ENDBRANCH   1  11
BRANCH   3  24
HETATM   24  N   UNL     1     -44.826  57.179 -53.690  1.00  0.00    -0.243 NA
HETATM   25  H   UNL     1     -44.767  56.432 -53.003  1.00  0.00     0.135 HD
BRANCH  24  26
HETATM   26  C   UNL     1     -44.166  56.806 -54.891  1.00  0.00     0.015 A 
HETATM   27  C   UNL     1     -43.500  55.571 -54.951  1.00  0.00     0.026 A 
HETATM   28  C   UNL     1     -42.889  55.110 -56.127  1.00  0.00     0.034 A 
HETATM   29  C   UNL     1     -43.000  55.920 -57.257  1.00  0.00     0.061 A 
HETATM   30  N   UNL     1     -42.530  55.776 -58.537  1.00  0.00    -0.278 N 
HETATM   31  C   UNL     1     -43.682  57.129 -57.253  1.00  0.00     0.013 A 
HETATM   32  H   UNL     1     -41.974  55.015 -58.910  1.00  0.00     0.189 HD
HETATM   33  N   UNL     1     -42.876  56.777 -59.365  1.00  0.00    -0.186 NA
HETATM   34  C   UNL     1     -43.568  57.605 -58.578  1.00  0.00     0.152 A 
HETATM   35  C   UNL     1     -44.284  57.575 -56.062  1.00  0.00     0.039 A 
ENDBRANCH  24  26
ENDBRANCH   3  24
BRANCH   7  36
HETATM   36  O   UNL     1     -40.440  59.417 -49.520  1.00  0.00    -0.353 OA
HETATM   37  C   UNL     1     -39.283  59.907 -50.196  1.00  0.00     0.210 C 
ENDBRANCH   7  36
BRANCH   6  38
HETATM   38  O   UNL     1     -40.545  56.892 -50.753  1.00  0.00    -0.347 OA
BRANCH  38  39
HETATM   39  C   UNL     1     -40.840  55.965 -49.702  1.00  0.00     0.206 C 
BRANCH  39  40
HETATM   40  C   UNL     1     -40.119  54.649 -50.043  1.00  0.00     0.299 C 
BRANCH  40  41
HETATM   41  N   UNL     1     -41.015  53.496 -50.270  1.00  0.00     0.093 N 
HETATM   42  C   UNL     1     -40.295  52.232 -50.526  1.00  0.00     0.300 C 
HETATM   43  C   UNL     1     -39.627  52.127 -51.913  1.00  0.00     0.264 C 
HETATM   44  N   UNL     1     -40.646  52.406 -53.007  1.00  0.00    -0.072 N 
HETATM   45  H   UNL     1     -41.363  51.671 -52.936  1.00  0.00     0.279 HD
HETATM   46  C   UNL     1     -40.042  52.315 -54.376  1.00  0.00     0.269 C 
HETATM   47  C   UNL     1     -41.361  53.730 -52.783  1.00  0.00     0.264 C 
HETATM   48  C   UNL     1     -41.970  53.769 -51.365  1.00  0.00     0.300 C 
ENDBRANCH  40  41
ENDBRANCH  39  40
ENDBRANCH  38  39
ENDBRANCH   6  38
TORSDOF 11
ENDMDL
MODEL 7
REMARK VINA RESULT:      -8.1      2.370      3.594
REMARK  11 active torsions:
REMARK  status: ('A' for Active; 'I' for Inactive)
REMARK    1  A    between atoms: C_2  and  C_3 
REMARK    2  A    between atoms: C_3  and  C_4 
REMARK       I    between atoms: C_4  and  N_6 
REMARK    3  A    between atoms: N_6  and  C_7 
REMARK    4  A    between atoms: C_11  and  C_13 
REMARK    5  A    between atoms: C_15  and  N_16 
REMARK    6  A    between atoms: N_16  and  C_17 
REMARK    7  A    between atoms: C_29  and  O_30 
REMARK    8  A    between atoms: O_30  and  C_31 
REMARK    9  A    between atoms: C_31  and  C_32 
REMARK   10  A    between atoms: C_32  and  N_33 
REMARK   11  A    between atoms: C_41  and  O_42 
ROOT
HETATM    1  C   UNL     1     -43.620  60.293 -52.066  1.00  0.00     0.162 A 
HETATM    2  N   UNL     1     -43.881  59.017 -51.750  1.00  0.00    -0.215 NA
HETATM    3  C   UNL     1     -43.646  58.077 -52.673  1.00  0.00     0.122 A 
HETATM    4  C   UNL     1     -43.134  58.396 -53.938  1.00  0.00     0.036 A 
HETATM    5  C   UNL     1     -42.890  57.451 -54.966  1.00  0.00     0.057 A 
HETATM    6  C   UNL     1     -42.389  57.852 -56.204  1.00  0.00     0.103 A 
HETATM    7  C   UNL     1     -42.060  59.197 -56.387  1.00  0.00     0.103 A 
HETATM    8  C   UNL     1     -42.321  60.128 -55.376  1.00  0.00     0.072 A 
HETATM    9  C   UNL     1     -42.854  59.751 -54.151  1.00  0.00     0.075 A 
HETATM   10  N   UNL     1     -43.086  60.692 -53.231  1.00  0.00    -0.228 NA
ENDROOT
BRANCH   1  11
HETATM   11  C   UNL     1     -44.034  61.318 -51.094  1.00  0.00     0.014 A 
HETATM   12  C   UNL     1     -44.321  62.638 -51.476  1.00  0.00     0.015 A 
HETATM   13  C   UNL     1     -44.709  63.589 -50.531  1.00  0.00     0.003 A 
HETATM   14  C   UNL     1     -44.836  63.233 -49.187  1.00  0.00     0.029 A 
HETATM   15  C   UNL     1     -44.587  61.920 -48.777  1.00  0.00     0.035 A 
HETATM   16  C   UNL     1     -44.175  60.987 -49.729  1.00  0.00     0.044 A 
BRANCH  15  17
HETATM   17  N   UNL     1     -44.755  61.614 -47.408  1.00  0.00    -0.327 N 
HETATM   18  C   UNL     1     -45.549  60.611 -46.871  1.00  0.00     0.222 C 
HETATM   19  O   UNL     1     -46.313  59.878 -47.490  1.00  0.00    -0.273 OA
HETATM   20  H   UNL     1     -44.298  62.234 -46.752  1.00  0.00     0.169 HD
BRANCH  18  21
HETATM   21  C   UNL     1     -45.392  60.517 -45.362  1.00  0.00     0.103 C 
BRANCH  21  22
HETATM   22  C   UNL     1     -44.012  60.982 -44.900  1.00  0.00     0.005 C 
HETATM   23  C   UNL     1     -44.106  62.003 -43.780  1.00  0.00     0.005 C 
ENDBRANCH  21  22
ENDBRANCH  18  21
ENDBRANCH  15  17
ENDBRANCH   1  11
BRANCH   3  24
HETATM   24  N   UNL     1     -44.011  56.732 -52.384  1.00  0.00    -0.243 NA
HETATM   25  H   UNL     1     -44.910  56.759 -51.910  1.00  0.00     0.135 HD
BRANCH  24  26
HETATM   26  C   UNL     1     -43.170  55.747 -51.804  1.00  0.00     0.015 A 
HETATM   27  C   UNL     1     -42.723  54.675 -52.594  1.00  0.00     0.026 A 
HETATM   28  C   UNL     1     -41.834  53.707 -52.106  1.00  0.00     0.034 A 
HETATM   29  C   UNL     1     -41.379  53.869 -50.797  1.00  0.00     0.061 A 
HETATM   30  N   UNL     1     -40.527  53.124 -50.024  1.00  0.00    -0.278 N 
HETATM   31  C   UNL     1     -41.764  54.934 -49.992  1.00  0.00     0.013 A 
HETATM   32  H   UNL     1     -40.058  52.262 -50.276  1.00  0.00     0.189 HD
HETATM   33  N   UNL     1     -40.308  53.632 -48.799  1.00  0.00    -0.186 NA
HETATM   34  C   UNL     1     -41.072  54.729 -48.779  1.00  0.00     0.152 A 
HETATM   35  C   UNL     1     -42.659  55.892 -50.502  1.00  0.00     0.039 A 
ENDBRANCH  24  26
ENDBRANCH   3  24
BRANCH   7  36
HETATM   36  O   UNL     1     -41.564  59.713 -57.557  1.00  0.00    -0.353 OA
HETATM   37  C   UNL     1     -41.617  61.137 -57.606  1.00  0.00     0.210 C 
ENDBRANCH   7  36
BRANCH   6  38
HETATM   38  O   UNL     1     -42.182  56.987 -57.244  1.00  0.00    -0.347 OA
BRANCH  38  39
HETATM   39  C   UNL     1     -43.312  56.188 -57.613  1.00  0.00     0.206 C 
BRANCH  39  40
HETATM   40  C   UNL     1     -44.306  57.115 -58.333  1.00  0.00     0.299 C 
BRANCH  40  41
HETATM   41  N   UNL     1     -44.156  57.159 -59.802  1.00  0.00     0.093 N 
HETATM   42  C   UNL     1     -44.143  58.529 -60.353  1.00  0.00     0.300 C 
HETATM   43  C   UNL     1     -45.510  59.245 -60.361  1.00  0.00     0.264 C 
HETATM   44  N   UNL     1     -46.547  58.384 -61.064  1.00  0.00    -0.072 N 
HETATM   45  H   UNL     1     -46.232  58.279 -62.038  1.00  0.00     0.279 HD
HETATM   46  C   UNL     1     -47.895  59.041 -61.098  1.00  0.00     0.269 C 
HETATM   47  C   UNL     1     -46.607  56.984 -60.474  1.00  0.00     0.264 C 
HETATM   48  C   UNL     1     -45.199  56.351 -60.470  1.00  0.00     0.300 C 
ENDBRANCH  40  41
ENDBRANCH  39  40
ENDBRANCH  38  39
ENDBRANCH   6  38
TORSDOF 11
ENDMDL
MODEL 8
REMARK VINA RESULT:      -8.1      3.122      7.687
REMARK  11 active torsions:
REMARK  status: ('A' for Active; 'I' for Inactive)
REMARK    1  A    between atoms: C_2  and  C_3 
REMARK    2  A    between atoms: C_3  and  C_4 
REMARK       I    between atoms: C_4  and  N_6 
REMARK    3  A    between atoms: N_6  and  C_7 
REMARK    4  A    between atoms: C_11  and  C_13 
REMARK    5  A    between atoms: C_15  and  N_16 
REMARK    6  A    between atoms: N_16  and  C_17 
REMARK    7  A    between atoms: C_29  and  O_30 
REMARK    8  A    between atoms: O_30  and  C_31 
REMARK    9  A    between atoms: C_31  and  C_32 
REMARK   10  A    between atoms: C_32  and  N_33 
REMARK   11  A    between atoms: C_41  and  O_42 
ROOT
HETATM    1  C   UNL     1     -42.487  56.698 -51.729  1.00  0.00     0.162 A 
HETATM    2  N   UNL     1     -42.894  56.397 -52.970  1.00  0.00    -0.215 NA
HETATM    3  C   UNL     1     -43.751  57.231 -53.572  1.00  0.00     0.122 A 
HETATM    4  C   UNL     1     -44.214  58.394 -52.943  1.00  0.00     0.036 A 
HETATM    5  C   UNL     1     -45.141  59.301 -53.517  1.00  0.00     0.057 A 
HETATM    6  C   UNL     1     -45.561  60.432 -52.819  1.00  0.00     0.103 A 
HETATM    7  C   UNL     1     -44.993  60.697 -51.572  1.00  0.00     0.103 A 
HETATM    8  C   UNL     1     -44.093  59.790 -51.003  1.00  0.00     0.072 A 
HETATM    9  C   UNL     1     -43.693  58.639 -51.667  1.00  0.00     0.075 A 
HETATM   10  N   UNL     1     -42.837  57.810 -51.064  1.00  0.00    -0.228 NA
ENDROOT
BRANCH   1  11
HETATM   11  C   UNL     1     -41.672  55.688 -51.033  1.00  0.00     0.014 A 
HETATM   12  C   UNL     1     -41.354  55.796 -49.670  1.00  0.00     0.015 A 
HETATM   13  C   UNL     1     -40.577  54.823 -49.037  1.00  0.00     0.003 A 
HETATM   14  C   UNL     1     -40.120  53.714 -49.752  1.00  0.00     0.029 A 
HETATM   15  C   UNL     1     -40.444  53.561 -51.103  1.00  0.00     0.035 A 
HETATM   16  C   UNL     1     -41.199  54.554 -51.728  1.00  0.00     0.044 A 
BRANCH  15  17
HETATM   17  N   UNL     1     -39.972  52.408 -51.767  1.00  0.00    -0.327 N 
HETATM   18  C   UNL     1     -39.945  51.113 -51.270  1.00  0.00     0.222 C 
HETATM   19  O   UNL     1     -40.241  50.764 -50.132  1.00  0.00    -0.273 OA
HETATM   20  H   UNL     1     -39.551  52.556 -52.676  1.00  0.00     0.169 HD
BRANCH  18  21
HETATM   21  C   UNL     1     -39.466  50.118 -52.315  1.00  0.00     0.103 C 
BRANCH  21  22
HETATM   22  C   UNL     1     -39.347  50.756 -53.699  1.00  0.00     0.005 C 
HETATM   23  C   UNL     1     -39.963  49.882 -54.777  1.00  0.00     0.005 C 
ENDBRANCH  21  22
ENDBRANCH  18  21
ENDBRANCH  15  17
ENDBRANCH   1  11
BRANCH   3  24
HETATM   24  N   UNL     1     -44.267  56.871 -54.849  1.00  0.00    -0.243 NA
HETATM   25  H   UNL     1     -44.577  55.905 -54.788  1.00  0.00     0.135 HD
BRANCH  24  26
HETATM   26  C   UNL     1     -43.641  57.117 -56.100  1.00  0.00     0.015 A 
HETATM   27  C   UNL     1     -42.843  58.263 -56.253  1.00  0.00     0.026 A 
HETATM   28  C   UNL     1     -42.139  58.529 -57.436  1.00  0.00     0.034 A 
HETATM   29  C   UNL     1     -42.237  57.583 -58.457  1.00  0.00     0.061 A 
HETATM   30  N   UNL     1     -41.694  57.533 -59.715  1.00  0.00    -0.278 N 
HETATM   31  C   UNL     1     -42.983  56.418 -58.335  1.00  0.00     0.013 A 
HETATM   32  H   UNL     1     -41.099  58.222 -60.159  1.00  0.00     0.189 HD
HETATM   33  N   UNL     1     -42.004  56.420 -60.403  1.00  0.00    -0.186 NA
HETATM   34  C   UNL     1     -42.798  55.749 -59.565  1.00  0.00     0.152 A 
HETATM   35  C   UNL     1     -43.684  56.172 -57.140  1.00  0.00     0.039 A 
ENDBRANCH  24  26
ENDBRANCH   3  24
BRANCH   7  36
HETATM   36  O   UNL     1     -45.326  61.774 -50.790  1.00  0.00    -0.353 OA
HETATM   37  C   UNL     1     -45.704  61.407 -49.465  1.00  0.00     0.210 C 
ENDBRANCH   7  36
BRANCH   6  38
HETATM   38  O   UNL     1     -46.489  61.312 -53.308  1.00  0.00    -0.347 OA
BRANCH  38  39
HETATM   39  C   UNL     1     -46.031  62.164 -54.364  1.00  0.00     0.206 C 
BRANCH  39  40
HETATM   40  C   UNL     1     -46.907  61.873 -55.594  1.00  0.00     0.299 C 
BRANCH  40  41
HETATM   41  N   UNL     1     -46.273  61.015 -56.615  1.00  0.00     0.093 N 
HETATM   42  C   UNL     1     -44.924  61.468 -57.012  1.00  0.00     0.300 C 
HETATM   43  C   UNL     1     -44.891  62.732 -57.896  1.00  0.00     0.264 C 
HETATM   44  N   UNL     1     -45.783  62.543 -59.113  1.00  0.00    -0.072 N 
HETATM   45  H   UNL     1     -45.385  61.762 -59.651  1.00  0.00     0.279 HD
HETATM   46  C   UNL     1     -45.782  63.749 -60.004  1.00  0.00     0.269 C 
HETATM   47  C   UNL     1     -47.191  62.124 -58.717  1.00  0.00     0.264 C 
HETATM   48  C   UNL     1     -47.135  60.877 -57.809  1.00  0.00     0.300 C 
ENDBRANCH  40  41
ENDBRANCH  39  40
ENDBRANCH  38  39
ENDBRANCH   6  38
TORSDOF 11
ENDMDL
MODEL 9
REMARK VINA RESULT:      -7.8      4.166      8.649
REMARK  11 active torsions:
REMARK  status: ('A' for Active; 'I' for Inactive)
REMARK    1  A    between atoms: C_2  and  C_3 
REMARK    2  A    between atoms: C_3  and  C_4 
REMARK       I    between atoms: C_4  and  N_6 
REMARK    3  A    between atoms: N_6  and  C_7 
REMARK    4  A    between atoms: C_11  and  C_13 
REMARK    5  A    between atoms: C_15  and  N_16 
REMARK    6  A    between atoms: N_16  and  C_17 
REMARK    7  A    between atoms: C_29  and  O_30 
REMARK    8  A    between atoms: O_30  and  C_31 
REMARK    9  A    between atoms: C_31  and  C_32 
REMARK   10  A    between atoms: C_32  and  N_33 
REMARK   11  A    between atoms: C_41  and  O_42 
ROOT
HETATM    1  C   UNL     1     -44.505  57.856 -52.421  1.00  0.00     0.162 A 
HETATM    2  N   UNL     1     -44.598  58.056 -53.742  1.00  0.00    -0.215 NA
HETATM    3  C   UNL     1     -45.155  59.196 -54.170  1.00  0.00     0.122 A 
HETATM    4  C   UNL     1     -45.628  60.168 -53.277  1.00  0.00     0.036 A 
HETATM    5  C   UNL     1     -46.251  61.380 -53.668  1.00  0.00     0.057 A 
HETATM    6  C   UNL     1     -46.704  62.291 -52.715  1.00  0.00     0.103 A 
HETATM    7  C   UNL     1     -46.463  62.022 -51.366  1.00  0.00     0.103 A 
HETATM    8  C   UNL     1     -45.865  60.816 -50.986  1.00  0.00     0.072 A 
HETATM    9  C   UNL     1     -45.441  59.881 -51.920  1.00  0.00     0.075 A 
HETATM   10  N   UNL     1     -44.884  58.746 -51.489  1.00  0.00    -0.228 NA
ENDROOT
BRANCH   1  11
HETATM   11  C   UNL     1     -44.034  56.533 -51.979  1.00  0.00     0.014 A 
HETATM   12  C   UNL     1     -44.370  56.001 -50.724  1.00  0.00     0.015 A 
HETATM   13  C   UNL     1     -43.906  54.743 -50.332  1.00  0.00     0.003 A 
HETATM   14  C   UNL     1     -43.113  53.986 -51.197  1.00  0.00     0.029 A 
HETATM   15  C   UNL     1     -42.784  54.474 -52.464  1.00  0.00     0.035 A 
HETATM   16  C   UNL     1     -43.233  55.743 -52.832  1.00  0.00     0.044 A 
BRANCH  15  17
HETATM   17  N   UNL     1     -41.998  53.653 -53.303  1.00  0.00    -0.327 N 
HETATM   18  C   UNL     1     -40.698  53.230 -53.071  1.00  0.00     0.222 C 
HETATM   19  O   UNL     1     -39.976  53.571 -52.140  1.00  0.00    -0.273 OA
HETATM   20  H   UNL     1     -42.406  53.405 -54.195  1.00  0.00     0.169 HD
BRANCH  18  21
HETATM   21  C   UNL     1     -40.218  52.270 -54.149  1.00  0.00     0.103 C 
BRANCH  21  22
HETATM   22  C   UNL     1     -39.775  50.929 -53.565  1.00  0.00     0.005 C 
HETATM   23  C   UNL     1     -39.756  49.835 -54.618  1.00  0.00     0.005 C 
ENDBRANCH  21  22
ENDBRANCH  18  21
ENDBRANCH  15  17
ENDBRANCH   1  11
BRANCH   3  24
HETATM   24  N   UNL     1     -45.349  59.375 -55.569  1.00  0.00    -0.243 NA
HETATM   25  H   UNL     1     -46.291  59.062 -55.785  1.00  0.00     0.135 HD
BRANCH  24  26
HETATM   26  C   UNL     1     -44.446  58.985 -56.592  1.00  0.00     0.015 A 
HETATM   27  C   UNL     1     -43.227  59.669 -56.727  1.00  0.00     0.026 A 
HETATM   28  C   UNL     1     -42.259  59.290 -57.669  1.00  0.00     0.034 A 
HETATM   29  C   UNL     1     -42.544  58.173 -58.454  1.00  0.00     0.061 A 
HETATM   30  N   UNL     1     -41.837  57.548 -59.448  1.00  0.00    -0.278 N 
HETATM   31  C   UNL     1     -43.719  57.443 -58.328  1.00  0.00     0.013 A 
HETATM   32  H   UNL     1     -40.932  57.809 -59.822  1.00  0.00     0.189 HD
HETATM   33  N   UNL     1     -42.444  56.460 -59.955  1.00  0.00    -0.186 NA
HETATM   34  C   UNL     1     -43.595  56.406 -59.278  1.00  0.00     0.152 A 
HETATM   35  C   UNL     1     -44.677  57.843 -57.379  1.00  0.00     0.039 A 
ENDBRANCH  24  26
ENDBRANCH   3  24
BRANCH   7  36
HETATM   36  O   UNL     1     -46.862  62.839 -50.339  1.00  0.00    -0.353 OA
HETATM   37  C   UNL     1     -46.508  62.331 -49.053  1.00  0.00     0.210 C 
ENDBRANCH   7  36
BRANCH   6  38
HETATM   38  O   UNL     1     -47.354  63.451 -53.039  1.00  0.00    -0.347 OA
BRANCH  38  39
HETATM   39  C   UNL     1     -48.686  63.572 -52.526  1.00  0.00     0.206 C 
BRANCH  39  40
HETATM   40  C   UNL     1     -49.548  64.182 -53.644  1.00  0.00     0.299 C 
BRANCH  40  41
HETATM   41  N   UNL     1     -49.799  63.284 -54.790  1.00  0.00     0.093 N 
HETATM   42  C   UNL     1     -50.606  63.905 -55.861  1.00  0.00     0.300 C 
HETATM   43  C   UNL     1     -52.103  64.085 -55.533  1.00  0.00     0.264 C 
HETATM   44  N   UNL     1     -52.705  62.759 -55.094  1.00  0.00    -0.072 N 
HETATM   45  H   UNL     1     -52.624  62.120 -55.896  1.00  0.00     0.279 HD
HETATM   46  C   UNL     1     -54.162  62.885 -54.765  1.00  0.00     0.269 C 
HETATM   47  C   UNL     1     -51.913  62.132 -53.958  1.00  0.00     0.264 C 
HETATM   48  C   UNL     1     -50.425  62.019 -54.350  1.00  0.00     0.300 C 
ENDBRANCH  40  41
ENDBRANCH  39  40
ENDBRANCH  38  39
ENDBRANCH   6  38
TORSDOF 11
ENDMDL
MODEL 10
REMARK VINA RESULT:      -7.7      1.891      2.351
REMARK  11 active torsions:
REMARK  status: ('A' for Active; 'I' for Inactive)
REMARK    1  A    between atoms: C_2  and  C_3 
REMARK    2  A    between atoms: C_3  and  C_4 
REMARK       I    between atoms: C_4  and  N_6 
REMARK    3  A    between atoms: N_6  and  C_7 
REMARK    4  A    between atoms: C_11  and  C_13 
REMARK    5  A    between atoms: C_15  and  N_16 
REMARK    6  A    between atoms: N_16  and  C_17 
REMARK    7  A    between atoms: C_29  and  O_30 
REMARK    8  A    between atoms: O_30  and  C_31 
REMARK    9  A    between atoms: C_31  and  C_32 
REMARK   10  A    between atoms: C_32  and  N_33 
REMARK   11  A    between atoms: C_41  and  O_42 
ROOT
HETATM    1  C   UNL     1     -42.023  58.876 -54.064  1.00  0.00     0.162 A 
HETATM    2  N   UNL     1     -42.193  57.548 -54.004  1.00  0.00    -0.215 NA
HETATM    3  C   UNL     1     -42.342  56.879 -55.154  1.00  0.00     0.122 A 
HETATM    4  C   UNL     1     -42.316  57.529 -56.395  1.00  0.00     0.036 A 
HETATM    5  C   UNL     1     -42.495  56.881 -57.644  1.00  0.00     0.057 A 
HETATM    6  C   UNL     1     -42.466  57.603 -58.836  1.00  0.00     0.103 A 
HETATM    7  C   UNL     1     -42.182  58.969 -58.782  1.00  0.00     0.103 A 
HETATM    8  C   UNL     1     -42.025  59.606 -57.547  1.00  0.00     0.072 A 
HETATM    9  C   UNL     1     -42.087  58.909 -56.349  1.00  0.00     0.075 A 
HETATM   10  N   UNL     1     -41.938  59.580 -55.203  1.00  0.00    -0.228 NA
ENDROOT
BRANCH   1  11
HETATM   11  C   UNL     1     -42.020  59.605 -52.784  1.00  0.00     0.014 A 
HETATM   12  C   UNL     1     -41.128  59.290 -51.747  1.00  0.00     0.015 A 
HETATM   13  C   UNL     1     -41.150  59.998 -50.544  1.00  0.00     0.003 A 
HETATM   14  C   UNL     1     -42.052  61.049 -50.364  1.00  0.00     0.029 A 
HETATM   15  C   UNL     1     -42.933  61.408 -51.387  1.00  0.00     0.035 A 
HETATM   16  C   UNL     1     -42.917  60.674 -52.574  1.00  0.00     0.044 A 
BRANCH  15  17
HETATM   17  N   UNL     1     -43.806  62.494 -51.155  1.00  0.00    -0.327 N 
HETATM   18  C   UNL     1     -43.762  63.741 -51.761  1.00  0.00     0.222 C 
HETATM   19  O   UNL     1     -42.900  64.145 -52.535  1.00  0.00    -0.273 OA
HETATM   20  H   UNL     1     -44.492  62.367 -50.423  1.00  0.00     0.169 HD
BRANCH  18  21
HETATM   21  C   UNL     1     -44.931  64.615 -51.334  1.00  0.00     0.103 C 
BRANCH  21  22
HETATM   22  C   UNL     1     -46.102  64.521 -52.312  1.00  0.00     0.005 C 
HETATM   23  C   UNL     1     -47.239  63.688 -51.748  1.00  0.00     0.005 C 
ENDBRANCH  21  22
ENDBRANCH  18  21
ENDBRANCH  15  17
ENDBRANCH   1  11
BRANCH   3  24
HETATM   24  N   UNL     1     -42.622  55.484 -55.099  1.00  0.00    -0.243 NA
HETATM   25  H   UNL     1     -43.622  55.383 -54.952  1.00  0.00     0.135 HD
BRANCH  24  26
HETATM   26  C   UNL     1     -41.905  54.520 -54.341  1.00  0.00     0.015 A 
HETATM   27  C   UNL     1     -40.961  53.705 -54.987  1.00  0.00     0.026 A 
HETATM   28  C   UNL     1     -40.169  52.783 -54.288  1.00  0.00     0.034 A 
HETATM   29  C   UNL     1     -40.334  52.729 -52.903  1.00  0.00     0.061 A 
HETATM   30  N   UNL     1     -39.737  51.959 -51.939  1.00  0.00    -0.278 N 
HETATM   31  C   UNL     1     -41.227  53.543 -52.219  1.00  0.00     0.013 A 
HETATM   32  H   UNL     1     -39.037  51.239 -52.069  1.00  0.00     0.189 HD
HETATM   33  N   UNL     1     -40.150  52.227 -50.688  1.00  0.00    -0.186 NA
HETATM   34  C   UNL     1     -41.066  53.184 -50.863  1.00  0.00     0.152 A 
HETATM   35  C   UNL     1     -42.014  54.459 -52.941  1.00  0.00     0.039 A 
ENDBRANCH  24  26
ENDBRANCH   3  24
BRANCH   7  36
HETATM   36  O   UNL     1     -42.129  59.785 -59.884  1.00  0.00    -0.353 OA
HETATM   37  C   UNL     1     -41.665  61.100 -59.583  1.00  0.00     0.210 C 
ENDBRANCH   7  36
BRANCH   6  38
HETATM   38  O   UNL     1     -42.680  57.033 -60.061  1.00  0.00    -0.347 OA
BRANCH  38  39
HETATM   39  C   UNL     1     -44.000  56.521 -60.278  1.00  0.00     0.206 C 
BRANCH  39  40
HETATM   40  C   UNL     1     -44.944  57.731 -60.382  1.00  0.00     0.299 C 
BRANCH  40  41
HETATM   41  N   UNL     1     -46.265  57.540 -59.748  1.00  0.00     0.093 N 
HETATM   42  C   UNL     1     -47.001  56.366 -60.260  1.00  0.00     0.300 C 
HETATM   43  C   UNL     1     -47.583  56.525 -61.680  1.00  0.00     0.264 C 
HETATM   44  N   UNL     1     -48.438  57.781 -61.757  1.00  0.00    -0.072 N 
HETATM   45  H   UNL     1     -49.218  57.646 -61.101  1.00  0.00     0.279 HD
HETATM   46  C   UNL     1     -49.027  57.977 -63.121  1.00  0.00     0.269 C 
HETATM   47  C   UNL     1     -47.676  59.007 -61.280  1.00  0.00     0.264 C 
HETATM   48  C   UNL     1     -47.098  58.755 -59.871  1.00  0.00     0.300 C 
ENDBRANCH  40  41
ENDBRANCH  39  40
ENDBRANCH  38  39
ENDBRANCH   6  38
TORSDOF 11
ENDMDL
