MODEL 1
REMARK VINA RESULT:      -9.3      0.000      0.000
REMARK  7 active torsions:
REMARK  status: ('A' for Active; 'I' for Inactive)
REMARK    1  A    between atoms: C_3  and  C_4 
REMARK    2  A    between atoms: C_4  and  S_5 
REMARK    3  A    between atoms: S_5  and  C_6 
REMARK    4  A    between atoms: C_6  and  C_7 
REMARK    5  A    between atoms: C_16  and  C_17 
REMARK       I    between atoms: C_17  and  N_18 
REMARK    6  A    between atoms: N_18  and  C_19 
REMARK    7  A    between atoms: C_19  and  C_20 
ROOT
HETATM    1  C   UNL     1     -43.609  55.357 -50.959  1.00  0.00     0.162 C 
HETATM    2  N   UNL     1     -43.632  54.317 -52.024  1.00  0.00    -0.277 NA
HETATM    3  C   UNL     1     -43.426  54.805 -53.327  1.00  0.00     0.036 A 
HETATM    4  C   UNL     1     -43.770  56.125 -53.676  1.00  0.00     0.057 A 
HETATM    5  N   UNL     1     -44.272  56.991 -52.697  1.00  0.00    -0.324 N 
HETATM    6  C   UNL     1     -44.371  56.628 -51.378  1.00  0.00     0.240 C 
HETATM    7  O   UNL     1     -44.979  57.336 -50.575  1.00  0.00    -0.271 OA
HETATM    8  C   UNL     1     -43.030  53.930 -54.345  1.00  0.00     0.027 A 
HETATM    9  C   UNL     1     -42.898  54.379 -55.664  1.00  0.00     0.019 A 
HETATM   10  C   UNL     1     -43.191  55.710 -55.986  1.00  0.00     0.034 A 
HETATM   11  C   UNL     1     -43.655  56.577 -54.990  1.00  0.00     0.048 A 
HETATM   12  H   UNL     1     -43.075  53.496 -51.810  1.00  0.00     0.128 HD
HETATM   13  H   UNL     1     -44.682  57.878 -52.956  1.00  0.00     0.169 HD
ENDROOT
BRANCH  10  14
HETATM   14  C   UNL     1     -43.054  56.249 -57.366  1.00  0.00     0.252 C 
HETATM   15  N   UNL     1     -43.834  55.667 -58.340  1.00  0.00    -0.353 N 
HETATM   16  H   UNL     1     -44.485  54.928 -58.119  1.00  0.00     0.163 HD
HETATM   17  O   UNL     1     -42.242  57.137 -57.597  1.00  0.00    -0.268 OA
BRANCH  15  18
HETATM   18  C   UNL     1     -43.733  56.094 -59.719  1.00  0.00     0.161 C 
BRANCH  18  19
HETATM   19  C   UNL     1     -44.993  56.780 -60.188  1.00  0.00    -0.040 A 
HETATM   20  C   UNL     1     -46.151  56.034 -60.450  1.00  0.00     0.010 A 
HETATM   21  C   UNL     1     -47.331  56.671 -60.847  1.00  0.00     0.024 A 
HETATM   22  C   UNL     1     -47.359  58.058 -60.982  1.00  0.00     0.034 A 
HETATM   23 CL   UNL     1     -48.812  58.840 -61.471  1.00  0.00    -0.084 Cl
HETATM   24  C   UNL     1     -46.221  58.815 -60.716  1.00  0.00     0.024 A 
HETATM   25  C   UNL     1     -45.045  58.179 -60.312  1.00  0.00     0.010 A 
ENDBRANCH  18  19
ENDBRANCH  15  18
ENDBRANCH  10  14
BRANCH   1  26
HETATM   26  C   UNL     1     -42.146  55.672 -50.580  1.00  0.00     0.103 C 
BRANCH  26  27
HETATM   27  S   UNL     1     -41.069  54.281 -50.081  1.00  0.00    -0.162 SA
BRANCH  27  28
HETATM   28  C   UNL     1     -40.330  53.846 -51.688  1.00  0.00     0.112 C 
BRANCH  28  29
HETATM   29  C   UNL     1     -40.074  52.359 -51.791  1.00  0.00    -0.043 A 
HETATM   30  C   UNL     1     -39.863  51.712 -53.029  1.00  0.00    -0.055 A 
HETATM   31  C   UNL     1     -39.862  52.467 -54.332  1.00  0.00     0.049 C 
HETATM   32  C   UNL     1     -39.634  50.326 -53.049  1.00  0.00     0.007 A 
HETATM   33  C   UNL     1     -39.632  49.582 -51.870  1.00  0.00     0.001 A 
HETATM   34  C   UNL     1     -39.857  50.213 -50.651  1.00  0.00     0.001 A 
HETATM   35  C   UNL     1     -40.078  51.589 -50.612  1.00  0.00     0.008 A 
ENDBRANCH  28  29
ENDBRANCH  27  28
ENDBRANCH  26  27
ENDBRANCH   1  26
TORSDOF 7
ENDMDL
MODEL 2
REMARK VINA RESULT:      -9.3      4.196      8.491
REMARK  7 active torsions:
REMARK  status: ('A' for Active; 'I' for Inactive)
REMARK    1  A    between atoms: C_3  and  C_4 
REMARK    2  A    between atoms: C_4  and  S_5 
REMARK    3  A    between atoms: S_5  and  C_6 
REMARK    4  A    between atoms: C_6  and  C_7 
REMARK    5  A    between atoms: C_16  and  C_17 
REMARK       I    between atoms: C_17  and  N_18 
REMARK    6  A    between atoms: N_18  and  C_19 
REMARK    7  A    between atoms: C_19  and  C_20 
ROOT
HETATM    1  C   UNL     1     -45.323  59.374 -56.559  1.00  0.00     0.162 C 
HETATM    2  N   UNL     1     -45.818  59.340 -55.155  1.00  0.00    -0.277 NA
HETATM    3  C   UNL     1     -45.095  58.492 -54.296  1.00  0.00     0.036 A 
HETATM    4  C   UNL     1     -44.409  57.365 -54.789  1.00  0.00     0.057 A 
HETATM    5  N   UNL     1     -44.393  57.113 -56.167  1.00  0.00    -0.324 N 
HETATM    6  C   UNL     1     -44.960  57.970 -57.077  1.00  0.00     0.240 C 
HETATM    7  O   UNL     1     -45.091  57.639 -58.255  1.00  0.00    -0.271 OA
HETATM    8  C   UNL     1     -45.186  58.661 -52.911  1.00  0.00     0.027 A 
HETATM    9  C   UNL     1     -44.539  57.778 -52.038  1.00  0.00     0.019 A 
HETATM   10  C   UNL     1     -43.814  56.693 -52.546  1.00  0.00     0.034 A 
HETATM   11  C   UNL     1     -43.773  56.473 -53.928  1.00  0.00     0.048 A 
HETATM   12  H   UNL     1     -45.995  60.258 -54.758  1.00  0.00     0.128 HD
HETATM   13  H   UNL     1     -44.058  56.229 -56.524  1.00  0.00     0.169 HD
ENDROOT
BRANCH  10  14
HETATM   14  C   UNL     1     -43.092  55.731 -51.669  1.00  0.00     0.252 C 
HETATM   15  N   UNL     1     -41.751  55.549 -51.918  1.00  0.00    -0.353 N 
HETATM   16  H   UNL     1     -41.278  56.065 -52.646  1.00  0.00     0.163 HD
HETATM   17  O   UNL     1     -43.706  55.113 -50.807  1.00  0.00    -0.268 OA
BRANCH  15  18
HETATM   18  C   UNL     1     -40.979  54.598 -51.148  1.00  0.00     0.161 C 
BRANCH  18  19
HETATM   19  C   UNL     1     -40.547  53.417 -51.984  1.00  0.00    -0.040 A 
HETATM   20  C   UNL     1     -39.836  52.359 -51.401  1.00  0.00     0.010 A 
HETATM   21  C   UNL     1     -39.468  51.245 -52.164  1.00  0.00     0.024 A 
HETATM   22  C   UNL     1     -39.811  51.185 -53.513  1.00  0.00     0.034 A 
HETATM   23 CL   UNL     1     -39.357  49.816 -54.450  1.00  0.00    -0.084 Cl
HETATM   24  C   UNL     1     -40.525  52.224 -54.105  1.00  0.00     0.024 A 
HETATM   25  C   UNL     1     -40.899  53.331 -53.341  1.00  0.00     0.010 A 
ENDBRANCH  18  19
ENDBRANCH  15  18
ENDBRANCH  10  14
BRANCH   1  26
HETATM   26  C   UNL     1     -44.124  60.342 -56.657  1.00  0.00     0.103 C 
BRANCH  26  27
HETATM   27  S   UNL     1     -43.702  61.339 -55.184  1.00  0.00    -0.162 SA
BRANCH  27  28
HETATM   28  C   UNL     1     -42.164  60.516 -54.660  1.00  0.00     0.112 C 
BRANCH  28  29
HETATM   29  C   UNL     1     -42.088  60.398 -53.154  1.00  0.00    -0.043 A 
HETATM   30  C   UNL     1     -41.274  59.440 -52.512  1.00  0.00    -0.055 A 
HETATM   31  C   UNL     1     -40.412  58.478 -53.286  1.00  0.00     0.049 C 
HETATM   32  C   UNL     1     -41.255  59.385 -51.108  1.00  0.00     0.007 A 
HETATM   33  C   UNL     1     -42.041  60.249 -50.346  1.00  0.00     0.001 A 
HETATM   34  C   UNL     1     -42.857  61.182 -50.977  1.00  0.00     0.001 A 
HETATM   35  C   UNL     1     -42.882  61.255 -52.368  1.00  0.00     0.008 A 
ENDBRANCH  28  29
ENDBRANCH  27  28
ENDBRANCH  26  27
ENDBRANCH   1  26
TORSDOF 7
ENDMDL
MODEL 3
REMARK VINA RESULT:      -9.2      1.878      2.711
REMARK  7 active torsions:
REMARK  status: ('A' for Active; 'I' for Inactive)
REMARK    1  A    between atoms: C_3  and  C_4 
REMARK    2  A    between atoms: C_4  and  S_5 
REMARK    3  A    between atoms: S_5  and  C_6 
REMARK    4  A    between atoms: C_6  and  C_7 
REMARK    5  A    between atoms: C_16  and  C_17 
REMARK       I    between atoms: C_17  and  N_18 
REMARK    6  A    between atoms: N_18  and  C_19 
REMARK    7  A    between atoms: C_19  and  C_20 
ROOT
HETATM    1  C   UNL     1     -41.481  57.463 -50.271  1.00  0.00     0.162 C 
HETATM    2  N   UNL     1     -42.769  57.168 -50.958  1.00  0.00    -0.277 NA
HETATM    3  C   UNL     1     -42.682  57.080 -52.359  1.00  0.00     0.036 A 
HETATM    4  C   UNL     1     -41.688  57.777 -53.075  1.00  0.00     0.057 A 
HETATM    5  N   UNL     1     -40.730  58.524 -52.379  1.00  0.00    -0.324 N 
HETATM    6  C   UNL     1     -40.669  58.545 -51.008  1.00  0.00     0.240 C 
HETATM    7  O   UNL     1     -39.939  59.345 -50.424  1.00  0.00    -0.271 OA
HETATM    8  C   UNL     1     -43.689  56.432 -53.081  1.00  0.00     0.027 A 
HETATM    9  C   UNL     1     -43.662  56.404 -54.481  1.00  0.00     0.019 A 
HETATM   10  C   UNL     1     -42.636  57.054 -55.177  1.00  0.00     0.034 A 
HETATM   11  C   UNL     1     -41.661  57.766 -54.468  1.00  0.00     0.048 A 
HETATM   12  H   UNL     1     -43.294  56.406 -50.540  1.00  0.00     0.128 HD
HETATM   13  H   UNL     1     -40.119  59.163 -52.870  1.00  0.00     0.169 HD
ENDROOT
BRANCH  10  14
HETATM   14  C   UNL     1     -42.545  57.046 -56.663  1.00  0.00     0.252 C 
HETATM   15  N   UNL     1     -42.956  55.899 -57.304  1.00  0.00    -0.353 N 
HETATM   16  H   UNL     1     -43.325  55.113 -56.788  1.00  0.00     0.163 HD
HETATM   17  O   UNL     1     -42.078  58.014 -57.250  1.00  0.00    -0.268 OA
BRANCH  15  18
HETATM   18  C   UNL     1     -42.859  55.783 -58.742  1.00  0.00     0.161 C 
BRANCH  18  19
HETATM   19  C   UNL     1     -44.198  55.976 -59.413  1.00  0.00    -0.040 A 
HETATM   20  C   UNL     1     -45.078  56.971 -58.964  1.00  0.00     0.010 A 
HETATM   21  C   UNL     1     -46.302  57.179 -59.608  1.00  0.00     0.024 A 
HETATM   22  C   UNL     1     -46.651  56.393 -60.705  1.00  0.00     0.034 A 
HETATM   23 CL   UNL     1     -48.158  56.650 -61.495  1.00  0.00    -0.084 Cl
HETATM   24  C   UNL     1     -45.784  55.408 -61.169  1.00  0.00     0.024 A 
HETATM   25  C   UNL     1     -44.559  55.206 -60.531  1.00  0.00     0.010 A 
ENDBRANCH  18  19
ENDBRANCH  15  18
ENDBRANCH  10  14
BRANCH   1  26
HETATM   26  C   UNL     1     -40.673  56.158 -50.112  1.00  0.00     0.103 C 
BRANCH  26  27
HETATM   27  S   UNL     1     -41.597  54.586 -49.979  1.00  0.00    -0.162 SA
BRANCH  27  28
HETATM   28  C   UNL     1     -40.273  53.394 -50.358  1.00  0.00     0.112 C 
BRANCH  28  29
HETATM   29  C   UNL     1     -40.262  53.030 -51.826  1.00  0.00    -0.043 A 
HETATM   30  C   UNL     1     -39.886  51.749 -52.284  1.00  0.00    -0.055 A 
HETATM   31  C   UNL     1     -39.485  50.650 -51.336  1.00  0.00     0.049 C 
HETATM   32  C   UNL     1     -39.895  51.482 -53.664  1.00  0.00     0.007 A 
HETATM   33  C   UNL     1     -40.253  52.470 -54.582  1.00  0.00     0.001 A 
HETATM   34  C   UNL     1     -40.606  53.738 -54.134  1.00  0.00     0.001 A 
HETATM   35  C   UNL     1     -40.609  54.017 -52.769  1.00  0.00     0.008 A 
ENDBRANCH  28  29
ENDBRANCH  27  28
ENDBRANCH  26  27
ENDBRANCH   1  26
TORSDOF 7
ENDMDL
MODEL 4
REMARK VINA RESULT:      -9.0      4.350      8.271
REMARK  7 active torsions:
REMARK  status: ('A' for Active; 'I' for Inactive)
REMARK    1  A    between atoms: C_3  and  C_4 
REMARK    2  A    between atoms: C_4  and  S_5 
REMARK    3  A    between atoms: S_5  and  C_6 
REMARK    4  A    between atoms: C_6  and  C_7 
REMARK    5  A    between atoms: C_16  and  C_17 
REMARK       I    between atoms: C_17  and  N_18 
REMARK    6  A    between atoms: N_18  and  C_19 
REMARK    7  A    between atoms: C_19  and  C_20 
ROOT
HETATM    1  C   UNL     1     -43.905  61.791 -53.883  1.00  0.00     0.162 C 
HETATM    2  N   UNL     1     -42.526  61.261 -54.070  1.00  0.00    -0.277 NA
HETATM    3  C   UNL     1     -42.251  60.075 -53.365  1.00  0.00     0.036 A 
HETATM    4  C   UNL     1     -42.931  59.760 -52.173  1.00  0.00     0.057 A 
HETATM    5  N   UNL     1     -43.943  60.608 -51.708  1.00  0.00    -0.324 N 
HETATM    6  C   UNL     1     -44.360  61.708 -52.414  1.00  0.00     0.240 C 
HETATM    7  O   UNL     1     -45.118  62.533 -51.902  1.00  0.00    -0.271 OA
HETATM    8  C   UNL     1     -41.173  59.271 -53.749  1.00  0.00     0.027 A 
HETATM    9  C   UNL     1     -40.834  58.129 -53.011  1.00  0.00     0.019 A 
HETATM   10  C   UNL     1     -41.555  57.798 -51.858  1.00  0.00     0.034 A 
HETATM   11  C   UNL     1     -42.591  58.634 -51.425  1.00  0.00     0.048 A 
HETATM   12  H   UNL     1     -42.225  61.232 -55.039  1.00  0.00     0.128 HD
HETATM   13  H   UNL     1     -44.323  60.495 -50.778  1.00  0.00     0.169 HD
ENDROOT
BRANCH  10  14
HETATM   14  C   UNL     1     -41.251  56.590 -51.043  1.00  0.00     0.252 C 
HETATM   15  N   UNL     1     -41.020  55.419 -51.729  1.00  0.00    -0.353 N 
HETATM   16  H   UNL     1     -41.032  55.392 -52.738  1.00  0.00     0.163 HD
HETATM   17  O   UNL     1     -41.261  56.662 -49.819  1.00  0.00    -0.268 OA
BRANCH  15  18
HETATM   18  C   UNL     1     -40.764  54.186 -51.018  1.00  0.00     0.161 C 
BRANCH  18  19
HETATM   19  C   UNL     1     -40.479  53.043 -51.962  1.00  0.00    -0.040 A 
HETATM   20  C   UNL     1     -40.840  53.133 -53.314  1.00  0.00     0.010 A 
HETATM   21  C   UNL     1     -40.541  52.092 -54.200  1.00  0.00     0.024 A 
HETATM   22  C   UNL     1     -39.879  50.957 -53.737  1.00  0.00     0.034 A 
HETATM   23 CL   UNL     1     -39.513  49.677 -54.828  1.00  0.00    -0.084 Cl
HETATM   24  C   UNL     1     -39.505  50.855 -52.400  1.00  0.00     0.024 A 
HETATM   25  C   UNL     1     -39.796  51.898 -51.518  1.00  0.00     0.010 A 
ENDBRANCH  18  19
ENDBRANCH  15  18
ENDBRANCH  10  14
BRANCH   1  26
HETATM   26  C   UNL     1     -44.876  61.041 -54.820  1.00  0.00     0.103 C 
BRANCH  26  27
HETATM   27  S   UNL     1     -44.250  60.501 -56.451  1.00  0.00    -0.162 SA
BRANCH  27  28
HETATM   28  C   UNL     1     -45.129  58.915 -56.631  1.00  0.00     0.112 C 
BRANCH  28  29
HETATM   29  C   UNL     1     -44.367  57.785 -55.976  1.00  0.00    -0.043 A 
HETATM   30  C   UNL     1     -43.326  57.095 -56.635  1.00  0.00    -0.055 A 
HETATM   31  C   UNL     1     -42.894  57.450 -58.033  1.00  0.00     0.049 C 
HETATM   32  C   UNL     1     -42.663  56.052 -55.967  1.00  0.00     0.007 A 
HETATM   33  C   UNL     1     -43.031  55.681 -54.674  1.00  0.00     0.001 A 
HETATM   34  C   UNL     1     -44.068  56.347 -54.029  1.00  0.00     0.001 A 
HETATM   35  C   UNL     1     -44.731  57.389 -54.675  1.00  0.00     0.008 A 
ENDBRANCH  28  29
ENDBRANCH  27  28
ENDBRANCH  26  27
ENDBRANCH   1  26
TORSDOF 7
ENDMDL
MODEL 5
REMARK VINA RESULT:      -9.0      3.026      3.582
REMARK  7 active torsions:
REMARK  status: ('A' for Active; 'I' for Inactive)
REMARK    1  A    between atoms: C_3  and  C_4 
REMARK    2  A    between atoms: C_4  and  S_5 
REMARK    3  A    between atoms: S_5  and  C_6 
REMARK    4  A    between atoms: C_6  and  C_7 
REMARK    5  A    between atoms: C_16  and  C_17 
REMARK       I    between atoms: C_17  and  N_18 
REMARK    6  A    between atoms: N_18  and  C_19 
REMARK    7  A    between atoms: C_19  and  C_20 
ROOT
HETATM    1  C   UNL     1     -43.324  55.271 -51.873  1.00  0.00     0.162 C 
HETATM    2  N   UNL     1     -43.703  54.448 -53.055  1.00  0.00    -0.277 NA
HETATM    3  C   UNL     1     -43.448  55.053 -54.299  1.00  0.00     0.036 A 
HETATM    4  C   UNL     1     -43.428  56.453 -54.440  1.00  0.00     0.057 A 
HETATM    5  N   UNL     1     -43.606  57.266 -53.313  1.00  0.00    -0.324 N 
HETATM    6  C   UNL     1     -43.723  56.749 -52.047  1.00  0.00     0.240 C 
HETATM    7  O   UNL     1     -44.058  57.465 -51.105  1.00  0.00    -0.271 OA
HETATM    8  C   UNL     1     -43.376  54.267 -55.454  1.00  0.00     0.027 A 
HETATM    9  C   UNL     1     -43.203  54.857 -56.712  1.00  0.00     0.019 A 
HETATM   10  C   UNL     1     -43.130  56.250 -56.830  1.00  0.00     0.034 A 
HETATM   11  C   UNL     1     -43.270  57.051 -55.690  1.00  0.00     0.048 A 
HETATM   12  H   UNL     1     -43.387  53.485 -53.003  1.00  0.00     0.128 HD
HETATM   13  H   UNL     1     -43.766  58.259 -53.414  1.00  0.00     0.169 HD
ENDROOT
BRANCH  10  14
HETATM   14  C   UNL     1     -42.931  56.934 -58.137  1.00  0.00     0.252 C 
HETATM   15  N   UNL     1     -43.462  58.198 -58.263  1.00  0.00    -0.353 N 
HETATM   16  H   UNL     1     -43.940  58.645 -57.495  1.00  0.00     0.163 HD
HETATM   17  O   UNL     1     -42.359  56.351 -59.050  1.00  0.00    -0.268 OA
BRANCH  15  18
HETATM   18  C   UNL     1     -43.360  58.920 -59.513  1.00  0.00     0.161 C 
BRANCH  18  19
HETATM   19  C   UNL     1     -42.355  60.043 -59.433  1.00  0.00    -0.040 A 
HETATM   20  C   UNL     1     -41.989  60.750 -60.587  1.00  0.00     0.010 A 
HETATM   21  C   UNL     1     -41.087  61.817 -60.510  1.00  0.00     0.024 A 
HETATM   22  C   UNL     1     -40.549  62.182 -59.278  1.00  0.00     0.034 A 
HETATM   23 CL   UNL     1     -39.439  63.494 -59.184  1.00  0.00    -0.084 Cl
HETATM   24  C   UNL     1     -40.909  61.496 -58.120  1.00  0.00     0.024 A 
HETATM   25  C   UNL     1     -41.816  60.437 -58.197  1.00  0.00     0.010 A 
ENDBRANCH  18  19
ENDBRANCH  15  18
ENDBRANCH  10  14
BRANCH   1  26
HETATM   26  C   UNL     1     -41.812  55.120 -51.605  1.00  0.00     0.103 C 
BRANCH  26  27
HETATM   27  S   UNL     1     -41.252  53.684 -50.622  1.00  0.00    -0.162 SA
BRANCH  27  28
HETATM   28  C   UNL     1     -39.659  53.332 -51.433  1.00  0.00     0.112 C 
BRANCH  28  29
HETATM   29  C   UNL     1     -39.717  52.044 -52.224  1.00  0.00    -0.043 A 
HETATM   30  C   UNL     1     -39.956  52.021 -53.615  1.00  0.00    -0.055 A 
HETATM   31  C   UNL     1     -40.153  53.285 -54.410  1.00  0.00     0.049 C 
HETATM   32  C   UNL     1     -39.999  50.787 -54.285  1.00  0.00     0.007 A 
HETATM   33  C   UNL     1     -39.829  49.589 -53.591  1.00  0.00     0.001 A 
HETATM   34  C   UNL     1     -39.611  49.607 -52.218  1.00  0.00     0.001 A 
HETATM   35  C   UNL     1     -39.557  50.823 -51.540  1.00  0.00     0.008 A 
ENDBRANCH  28  29
ENDBRANCH  27  28
ENDBRANCH  26  27
ENDBRANCH   1  26
TORSDOF 7
ENDMDL
MODEL 6
REMARK VINA RESULT:      -9.0      5.907      9.392
REMARK  7 active torsions:
REMARK  status: ('A' for Active; 'I' for Inactive)
REMARK    1  A    between atoms: C_3  and  C_4 
REMARK    2  A    between atoms: C_4  and  S_5 
REMARK    3  A    between atoms: S_5  and  C_6 
REMARK    4  A    between atoms: C_6  and  C_7 
REMARK    5  A    between atoms: C_16  and  C_17 
REMARK       I    between atoms: C_17  and  N_18 
REMARK    6  A    between atoms: N_18  and  C_19 
REMARK    7  A    between atoms: C_19  and  C_20 
ROOT
HETATM    1  C   UNL     1     -41.805  56.326 -52.551  1.00  0.00     0.162 C 
HETATM    2  N   UNL     1     -41.262  57.711 -52.488  1.00  0.00    -0.277 NA
HETATM    3  C   UNL     1     -42.007  58.601 -51.694  1.00  0.00     0.036 A 
HETATM    4  C   UNL     1     -43.388  58.416 -51.489  1.00  0.00     0.057 A 
HETATM    5  N   UNL     1     -44.025  57.295 -52.035  1.00  0.00    -0.324 N 
HETATM    6  C   UNL     1     -43.337  56.315 -52.706  1.00  0.00     0.240 C 
HETATM    7  O   UNL     1     -43.939  55.440 -53.328  1.00  0.00    -0.271 OA
HETATM    8  C   UNL     1     -41.418  59.782 -51.230  1.00  0.00     0.027 A 
HETATM    9  C   UNL     1     -42.166  60.718 -50.505  1.00  0.00     0.019 A 
HETATM   10  C   UNL     1     -43.526  60.494 -50.262  1.00  0.00     0.034 A 
HETATM   11  C   UNL     1     -44.143  59.349 -50.781  1.00  0.00     0.048 A 
HETATM   12  H   UNL     1     -40.263  57.754 -52.312  1.00  0.00     0.128 HD
HETATM   13  H   UNL     1     -45.034  57.231 -52.048  1.00  0.00     0.169 HD
ENDROOT
BRANCH  10  14
HETATM   14  C   UNL     1     -44.369  61.444 -49.485  1.00  0.00     0.252 C 
HETATM   15  N   UNL     1     -45.078  60.922 -48.427  1.00  0.00    -0.353 N 
HETATM   16  H   UNL     1     -45.008  59.946 -48.178  1.00  0.00     0.163 HD
HETATM   17  O   UNL     1     -44.439  62.617 -49.830  1.00  0.00    -0.268 OA
BRANCH  15  18
HETATM   18  C   UNL     1     -45.960  61.761 -47.645  1.00  0.00     0.161 C 
BRANCH  18  19
HETATM   19  C   UNL     1     -45.379  62.078 -46.289  1.00  0.00    -0.040 A 
HETATM   20  C   UNL     1     -44.739  61.079 -45.541  1.00  0.00     0.010 A 
HETATM   21  C   UNL     1     -44.164  61.378 -44.302  1.00  0.00     0.024 A 
HETATM   22  C   UNL     1     -44.225  62.678 -43.805  1.00  0.00     0.034 A 
HETATM   23 CL   UNL     1     -43.518  63.045 -42.280  1.00  0.00    -0.084 Cl
HETATM   24  C   UNL     1     -44.848  63.685 -44.539  1.00  0.00     0.024 A 
HETATM   25  C   UNL     1     -45.414  63.387 -45.780  1.00  0.00     0.010 A 
ENDBRANCH  18  19
ENDBRANCH  15  18
ENDBRANCH  10  14
BRANCH   1  26
HETATM   26  C   UNL     1     -41.356  55.541 -51.300  1.00  0.00     0.103 C 
BRANCH  26  27
HETATM   27  S   UNL     1     -41.604  53.730 -51.287  1.00  0.00    -0.162 SA
BRANCH  27  28
HETATM   28  C   UNL     1     -39.885  53.162 -51.490  1.00  0.00     0.112 C 
BRANCH  28  29
HETATM   29  C   UNL     1     -39.812  51.928 -52.361  1.00  0.00    -0.043 A 
HETATM   30  C   UNL     1     -39.962  51.984 -53.764  1.00  0.00    -0.055 A 
HETATM   31  C   UNL     1     -40.189  53.283 -54.490  1.00  0.00     0.049 C 
HETATM   32  C   UNL     1     -39.887  50.796 -54.511  1.00  0.00     0.007 A 
HETATM   33  C   UNL     1     -39.685  49.567 -53.884  1.00  0.00     0.001 A 
HETATM   34  C   UNL     1     -39.555  49.506 -52.501  1.00  0.00     0.001 A 
HETATM   35  C   UNL     1     -39.619  50.676 -51.746  1.00  0.00     0.008 A 
ENDBRANCH  28  29
ENDBRANCH  27  28
ENDBRANCH  26  27
ENDBRANCH   1  26
TORSDOF 7
ENDMDL
MODEL 7
REMARK VINA RESULT:      -8.9      3.879      8.681
REMARK  7 active torsions:
REMARK  status: ('A' for Active; 'I' for Inactive)
REMARK    1  A    between atoms: C_3  and  C_4 
REMARK    2  A    between atoms: C_4  and  S_5 
REMARK    3  A    between atoms: S_5  and  C_6 
REMARK    4  A    between atoms: C_6  and  C_7 
REMARK    5  A    between atoms: C_16  and  C_17 
REMARK       I    between atoms: C_17  and  N_18 
REMARK    6  A    between atoms: N_18  and  C_19 
REMARK    7  A    between atoms: C_19  and  C_20 
ROOT
HETATM    1  C   UNL     1     -45.650  59.759 -56.205  1.00  0.00     0.162 C 
HETATM    2  N   UNL     1     -45.618  60.052 -54.745  1.00  0.00    -0.277 NA
HETATM    3  C   UNL     1     -44.926  59.105 -53.969  1.00  0.00     0.036 A 
HETATM    4  C   UNL     1     -44.815  57.764 -54.382  1.00  0.00     0.057 A 
HETATM    5  N   UNL     1     -45.349  57.372 -55.616  1.00  0.00    -0.324 N 
HETATM    6  C   UNL     1     -45.917  58.268 -56.487  1.00  0.00     0.240 C 
HETATM    7  O   UNL     1     -46.537  57.876 -57.475  1.00  0.00    -0.271 OA
HETATM    8  C   UNL     1     -44.480  59.446 -52.688  1.00  0.00     0.027 A 
HETATM    9  C   UNL     1     -43.861  58.494 -51.869  1.00  0.00     0.019 A 
HETATM   10  C   UNL     1     -43.707  57.176 -52.316  1.00  0.00     0.034 A 
HETATM   11  C   UNL     1     -44.212  56.806 -53.568  1.00  0.00     0.048 A 
HETATM   12  H   UNL     1     -45.370  61.012 -54.524  1.00  0.00     0.128 HD
HETATM   13  H   UNL     1     -45.432  56.393 -55.854  1.00  0.00     0.169 HD
ENDROOT
BRANCH  10  14
HETATM   14  C   UNL     1     -43.044  56.124 -51.497  1.00  0.00     0.252 C 
HETATM   15  N   UNL     1     -41.712  55.888 -51.752  1.00  0.00    -0.353 N 
HETATM   16  H   UNL     1     -41.207  56.422 -52.444  1.00  0.00     0.163 HD
HETATM   17  O   UNL     1     -43.696  55.488 -50.678  1.00  0.00    -0.268 OA
BRANCH  15  18
HETATM   18  C   UNL     1     -40.997  54.852 -51.039  1.00  0.00     0.161 C 
BRANCH  18  19
HETATM   19  C   UNL     1     -40.632  53.698 -51.942  1.00  0.00    -0.040 A 
HETATM   20  C   UNL     1     -39.843  52.644 -51.461  1.00  0.00     0.010 A 
HETATM   21  C   UNL     1     -39.535  51.555 -52.282  1.00  0.00     0.024 A 
HETATM   22  C   UNL     1     -40.018  51.514 -53.588  1.00  0.00     0.034 A 
HETATM   23 CL   UNL     1     -39.639  50.173 -54.599  1.00  0.00    -0.084 Cl
HETATM   24  C   UNL     1     -40.811  52.547 -54.079  1.00  0.00     0.024 A 
HETATM   25  C   UNL     1     -41.124  53.631 -53.256  1.00  0.00     0.010 A 
ENDBRANCH  18  19
ENDBRANCH  15  18
ENDBRANCH  10  14
BRANCH   1  26
HETATM   26  C   UNL     1     -44.332  60.231 -56.853  1.00  0.00     0.103 C 
BRANCH  26  27
HETATM   27  S   UNL     1     -44.267  60.354 -58.676  1.00  0.00    -0.162 SA
BRANCH  27  28
HETATM   28  C   UNL     1     -42.846  59.269 -59.027  1.00  0.00     0.112 C 
BRANCH  28  29
HETATM   29  C   UNL     1     -43.280  57.830 -59.193  1.00  0.00    -0.043 A 
HETATM   30  C   UNL     1     -42.985  56.837 -58.234  1.00  0.00    -0.055 A 
HETATM   31  C   UNL     1     -42.230  57.150 -56.969  1.00  0.00     0.049 C 
HETATM   32  C   UNL     1     -43.416  55.518 -58.455  1.00  0.00     0.007 A 
HETATM   33  C   UNL     1     -44.113  55.177 -59.615  1.00  0.00     0.001 A 
HETATM   34  C   UNL     1     -44.389  56.150 -60.569  1.00  0.00     0.001 A 
HETATM   35  C   UNL     1     -43.975  57.464 -60.361  1.00  0.00     0.008 A 
ENDBRANCH  28  29
ENDBRANCH  27  28
ENDBRANCH  26  27
ENDBRANCH   1  26
TORSDOF 7
ENDMDL
MODEL 8
REMARK VINA RESULT:      -8.6      6.134      9.739
REMARK  7 active torsions:
REMARK  status: ('A' for Active; 'I' for Inactive)
REMARK    1  A    between atoms: C_3  and  C_4 
REMARK    2  A    between atoms: C_4  and  S_5 
REMARK    3  A    between atoms: S_5  and  C_6 
REMARK    4  A    between atoms: C_6  and  C_7 
REMARK    5  A    between atoms: C_16  and  C_17 
REMARK       I    between atoms: C_17  and  N_18 
REMARK    6  A    between atoms: N_18  and  C_19 
REMARK    7  A    between atoms: C_19  and  C_20 
ROOT
HETATM    1  C   UNL     1     -40.750  58.260 -53.910  1.00  0.00     0.162 C 
HETATM    2  N   UNL     1     -40.225  58.946 -52.697  1.00  0.00    -0.277 NA
HETATM    3  C   UNL     1     -41.209  59.530 -51.878  1.00  0.00     0.036 A 
HETATM    4  C   UNL     1     -42.439  59.963 -52.409  1.00  0.00     0.057 A 
HETATM    5  N   UNL     1     -42.718  59.758 -53.766  1.00  0.00    -0.324 N 
HETATM    6  C   UNL     1     -41.865  59.074 -54.595  1.00  0.00     0.240 C 
HETATM    7  O   UNL     1     -42.045  59.064 -55.813  1.00  0.00    -0.271 OA
HETATM    8  C   UNL     1     -40.912  59.843 -50.548  1.00  0.00     0.027 A 
HETATM    9  C   UNL     1     -41.851  60.497 -49.740  1.00  0.00     0.019 A 
HETATM   10  C   UNL     1     -43.092  60.872 -50.267  1.00  0.00     0.034 A 
HETATM   11  C   UNL     1     -43.374  60.626 -51.616  1.00  0.00     0.048 A 
HETATM   12  H   UNL     1     -39.542  58.402 -52.180  1.00  0.00     0.128 HD
HETATM   13  H   UNL     1     -43.511  60.207 -54.203  1.00  0.00     0.169 HD
ENDROOT
BRANCH  10  14
HETATM   14  C   UNL     1     -44.135  61.555 -49.454  1.00  0.00     0.252 C 
HETATM   15  N   UNL     1     -44.707  60.824 -48.437  1.00  0.00    -0.353 N 
HETATM   16  H   UNL     1     -44.411  59.879 -48.241  1.00  0.00     0.163 HD
HETATM   17  O   UNL     1     -44.476  62.698 -49.735  1.00  0.00    -0.268 OA
BRANCH  15  18
HETATM   18  C   UNL     1     -45.763  61.389 -47.626  1.00  0.00     0.161 C 
BRANCH  18  19
HETATM   19  C   UNL     1     -45.255  61.836 -46.276  1.00  0.00    -0.040 A 
HETATM   20  C   UNL     1     -44.623  60.923 -45.419  1.00  0.00     0.010 A 
HETATM   21  C   UNL     1     -44.117  61.342 -44.184  1.00  0.00     0.024 A 
HETATM   22  C   UNL     1     -44.240  62.676 -43.802  1.00  0.00     0.034 A 
HETATM   23 CL   UNL     1     -43.617  63.191 -42.282  1.00  0.00    -0.084 Cl
HETATM   24  C   UNL     1     -44.855  63.598 -44.645  1.00  0.00     0.024 A 
HETATM   25  C   UNL     1     -45.353  63.180 -45.881  1.00  0.00     0.010 A 
ENDBRANCH  18  19
ENDBRANCH  15  18
ENDBRANCH  10  14
BRANCH   1  26
HETATM   26  C   UNL     1     -41.234  56.845 -53.530  1.00  0.00     0.103 C 
BRANCH  26  27
HETATM   27  S   UNL     1     -41.511  55.641 -54.878  1.00  0.00    -0.162 SA
BRANCH  27  28
HETATM   28  C   UNL     1     -42.328  54.299 -53.956  1.00  0.00     0.112 C 
BRANCH  28  29
HETATM   29  C   UNL     1     -41.317  53.353 -53.348  1.00  0.00    -0.043 A 
HETATM   30  C   UNL     1     -41.038  53.334 -51.964  1.00  0.00    -0.055 A 
HETATM   31  C   UNL     1     -41.743  54.245 -50.996  1.00  0.00     0.049 C 
HETATM   32  C   UNL     1     -40.082  52.431 -51.468  1.00  0.00     0.007 A 
HETATM   33  C   UNL     1     -39.396  51.571 -52.326  1.00  0.00     0.001 A 
HETATM   34  C   UNL     1     -39.656  51.600 -53.692  1.00  0.00     0.001 A 
HETATM   35  C   UNL     1     -40.607  52.484 -54.199  1.00  0.00     0.008 A 
ENDBRANCH  28  29
ENDBRANCH  27  28
ENDBRANCH  26  27
ENDBRANCH   1  26
TORSDOF 7
ENDMDL
MODEL 9
REMARK VINA RESULT:      -8.4      4.525      8.581
REMARK  7 active torsions:
REMARK  status: ('A' for Active; 'I' for Inactive)
REMARK    1  A    between atoms: C_3  and  C_4 
REMARK    2  A    between atoms: C_4  and  S_5 
REMARK    3  A    between atoms: S_5  and  C_6 
REMARK    4  A    between atoms: C_6  and  C_7 
REMARK    5  A    between atoms: C_16  and  C_17 
REMARK       I    between atoms: C_17  and  N_18 
REMARK    6  A    between atoms: N_18  and  C_19 
REMARK    7  A    between atoms: C_19  and  C_20 
ROOT
HETATM    1  C   UNL     1     -44.445  60.836 -51.196  1.00  0.00     0.162 C 
HETATM    2  N   UNL     1     -43.048  60.618 -51.664  1.00  0.00    -0.277 NA
HETATM    3  C   UNL     1     -42.841  59.413 -52.358  1.00  0.00     0.036 A 
HETATM    4  C   UNL     1     -43.647  58.284 -52.118  1.00  0.00     0.057 A 
HETATM    5  N   UNL     1     -44.715  58.374 -51.216  1.00  0.00    -0.324 N 
HETATM    6  C   UNL     1     -45.061  59.553 -50.605  1.00  0.00     0.240 C 
HETATM    7  O   UNL     1     -45.880  59.569 -49.687  1.00  0.00    -0.271 OA
HETATM    8  C   UNL     1     -41.719  59.265 -53.180  1.00  0.00     0.027 A 
HETATM    9  C   UNL     1     -41.452  58.046 -53.816  1.00  0.00     0.019 A 
HETATM   10  C   UNL     1     -42.295  56.948 -53.610  1.00  0.00     0.034 A 
HETATM   11  C   UNL     1     -43.382  57.062 -52.735  1.00  0.00     0.048 A 
HETATM   12  H   UNL     1     -42.639  61.424 -52.127  1.00  0.00     0.128 HD
HETATM   13  H   UNL     1     -45.195  57.542 -50.901  1.00  0.00     0.169 HD
ENDROOT
BRANCH  10  14
HETATM   14  C   UNL     1     -42.072  55.632 -54.270  1.00  0.00     0.252 C 
HETATM   15  N   UNL     1     -40.790  55.131 -54.237  1.00  0.00    -0.353 N 
HETATM   16  H   UNL     1     -40.046  55.623 -53.764  1.00  0.00     0.163 HD
HETATM   17  O   UNL     1     -42.998  55.074 -54.847  1.00  0.00    -0.268 OA
BRANCH  15  18
HETATM   18  C   UNL     1     -40.469  53.882 -54.893  1.00  0.00     0.161 C 
BRANCH  18  19
HETATM   19  C   UNL     1     -40.160  52.788 -53.900  1.00  0.00    -0.040 A 
HETATM   20  C   UNL     1     -40.079  53.077 -52.530  1.00  0.00     0.010 A 
HETATM   21  C   UNL     1     -39.832  52.059 -51.603  1.00  0.00     0.024 A 
HETATM   22  C   UNL     1     -39.666  50.748 -52.041  1.00  0.00     0.034 A 
HETATM   23 CL   UNL     1     -39.362  49.496 -50.900  1.00  0.00    -0.084 Cl
HETATM   24  C   UNL     1     -39.754  50.441 -53.397  1.00  0.00     0.024 A 
HETATM   25  C   UNL     1     -40.009  51.457 -54.321  1.00  0.00     0.010 A 
ENDBRANCH  18  19
ENDBRANCH  15  18
ENDBRANCH  10  14
BRANCH   1  26
HETATM   26  C   UNL     1     -45.296  61.391 -52.358  1.00  0.00     0.103 C 
BRANCH  26  27
HETATM   27  S   UNL     1     -44.426  62.180 -53.759  1.00  0.00    -0.162 SA
BRANCH  27  28
HETATM   28  C   UNL     1     -45.164  61.273 -55.156  1.00  0.00     0.112 C 
BRANCH  28  29
HETATM   29  C   UNL     1     -44.117  60.496 -55.922  1.00  0.00    -0.043 A 
HETATM   30  C   UNL     1     -44.220  59.105 -56.143  1.00  0.00    -0.055 A 
HETATM   31  C   UNL     1     -45.392  58.303 -55.642  1.00  0.00     0.049 C 
HETATM   32  C   UNL     1     -43.207  58.447 -56.861  1.00  0.00     0.007 A 
HETATM   33  C   UNL     1     -42.098  59.144 -57.339  1.00  0.00     0.001 A 
HETATM   34  C   UNL     1     -41.985  60.511 -57.107  1.00  0.00     0.001 A 
HETATM   35  C   UNL     1     -42.985  61.181 -56.404  1.00  0.00     0.008 A 
ENDBRANCH  28  29
ENDBRANCH  27  28
ENDBRANCH  26  27
ENDBRANCH   1  26
TORSDOF 7
ENDMDL
MODEL 10
REMARK VINA RESULT:      -8.4      5.183     10.517
REMARK  7 active torsions:
REMARK  status: ('A' for Active; 'I' for Inactive)
REMARK    1  A    between atoms: C_3  and  C_4 
REMARK    2  A    between atoms: C_4  and  S_5 
REMARK    3  A    between atoms: S_5  and  C_6 
REMARK    4  A    between atoms: C_6  and  C_7 
REMARK    5  A    between atoms: C_16  and  C_17 
REMARK       I    between atoms: C_17  and  N_18 
REMARK    6  A    between atoms: N_18  and  C_19 
REMARK    7  A    between atoms: C_19  and  C_20 
ROOT
HETATM    1  C   UNL     1     -43.782  58.155 -59.380  1.00  0.00     0.162 C 
HETATM    2  N   UNL     1     -44.770  58.127 -58.266  1.00  0.00    -0.277 NA
HETATM    3  C   UNL     1     -44.263  57.658 -57.041  1.00  0.00     0.036 A 
HETATM    4  C   UNL     1     -43.180  56.759 -56.995  1.00  0.00     0.057 A 
HETATM    5  N   UNL     1     -42.553  56.368 -58.184  1.00  0.00    -0.324 N 
HETATM    6  C   UNL     1     -42.904  56.889 -59.404  1.00  0.00     0.240 C 
HETATM    7  O   UNL     1     -42.468  56.400 -60.446  1.00  0.00    -0.271 OA
HETATM    8  C   UNL     1     -44.938  57.947 -55.851  1.00  0.00     0.027 A 
HETATM    9  C   UNL     1     -44.494  57.423 -54.630  1.00  0.00     0.019 A 
HETATM   10  C   UNL     1     -43.381  56.574 -54.593  1.00  0.00     0.034 A 
HETATM   11  C   UNL     1     -42.740  56.221 -55.787  1.00  0.00     0.048 A 
HETATM   12  H   UNL     1     -45.313  58.980 -58.177  1.00  0.00     0.128 HD
HETATM   13  H   UNL     1     -41.894  55.601 -58.192  1.00  0.00     0.169 HD
ENDROOT
BRANCH  10  14
HETATM   14  C   UNL     1     -42.854  55.999 -53.326  1.00  0.00     0.252 C 
HETATM   15  N   UNL     1     -41.545  55.575 -53.334  1.00  0.00    -0.353 N 
HETATM   16  H   UNL     1     -40.966  55.675 -54.155  1.00  0.00     0.163 HD
HETATM   17  O   UNL     1     -43.594  55.880 -52.356  1.00  0.00    -0.268 OA
BRANCH  15  18
HETATM   18  C   UNL     1     -40.961  54.959 -52.162  1.00  0.00     0.161 C 
BRANCH  18  19
HETATM   19  C   UNL     1     -40.502  53.548 -52.439  1.00  0.00    -0.040 A 
HETATM   20  C   UNL     1     -40.095  52.715 -51.387  1.00  0.00     0.010 A 
HETATM   21  C   UNL     1     -39.707  51.395 -51.636  1.00  0.00     0.024 A 
HETATM   22  C   UNL     1     -39.725  50.900 -52.938  1.00  0.00     0.034 A 
HETATM   23 CL   UNL     1     -39.246  49.276 -53.243  1.00  0.00    -0.084 Cl
HETATM   24  C   UNL     1     -40.136  51.710 -53.993  1.00  0.00     0.024 A 
HETATM   25  C   UNL     1     -40.532  53.026 -53.743  1.00  0.00     0.010 A 
ENDBRANCH  18  19
ENDBRANCH  15  18
ENDBRANCH  10  14
BRANCH   1  26
HETATM   26  C   UNL     1     -42.926  59.436 -59.275  1.00  0.00     0.103 C 
BRANCH  26  27
HETATM   27  S   UNL     1     -42.040  60.002 -60.771  1.00  0.00    -0.162 SA
BRANCH  27  28
HETATM   28  C   UNL     1     -42.301  61.800 -60.646  1.00  0.00     0.112 C 
BRANCH  28  29
HETATM   29  C   UNL     1     -40.987  62.548 -60.629  1.00  0.00    -0.043 A 
HETATM   30  C   UNL     1     -40.337  62.961 -61.813  1.00  0.00    -0.055 A 
HETATM   31  C   UNL     1     -40.922  62.698 -63.175  1.00  0.00     0.049 C 
HETATM   32  C   UNL     1     -39.115  63.649 -61.722  1.00  0.00     0.007 A 
HETATM   33  C   UNL     1     -38.530  63.910 -60.483  1.00  0.00     0.001 A 
HETATM   34  C   UNL     1     -39.158  63.488 -59.317  1.00  0.00     0.001 A 
HETATM   35  C   UNL     1     -40.375  62.812 -59.389  1.00  0.00     0.008 A 
ENDBRANCH  28  29
ENDBRANCH  27  28
ENDBRANCH  26  27
ENDBRANCH   1  26
TORSDOF 7
ENDMDL
