MODEL 1
REMARK VINA RESULT:      -9.3      0.000      0.000
REMARK  5 active torsions:
REMARK  status: ('A' for Active; 'I' for Inactive)
REMARK    1  A    between atoms: C_7  and  C_8 
REMARK    2  A    between atoms: C_16  and  C_17 
REMARK    3  A    between atoms: C_20  and  O_21 
REMARK    4  A    between atoms: C_24  and  C_25 
REMARK       I    between atoms: C_25  and  N_26 
REMARK    5  A    between atoms: N_26  and  C_27 
ROOT
HETATM    1  C   UNL     1     -45.477  57.917 -54.858  1.00  0.00     0.070 C 
HETATM    2  C   UNL     1     -44.406  57.221 -54.053  1.00  0.00     0.037 C 
HETATM    3  N   UNL     1     -43.741  56.182 -54.702  1.00  0.00    -0.192 N 
HETATM    4  C   UNL     1     -42.931  55.319 -54.056  1.00  0.00     0.726 A 
HETATM    5  N   UNL     1     -42.595  55.570 -52.760  1.00  0.00    -0.083 N 
HETATM    6  N   UNL     1     -41.827  54.593 -52.244  1.00  0.00    -0.135 NA
HETATM    7  C   UNL     1     -41.707  53.770 -53.303  1.00  0.00     0.200 A 
HETATM    8  N   UNL     1     -42.371  54.203 -54.437  1.00  0.00    -0.041 NA
HETATM    9  C   UNL     1     -42.976  56.785 -52.037  1.00  0.00     0.202 C 
HETATM   10  C   UNL     1     -44.079  57.541 -52.772  1.00  0.00     0.062 C 
HETATM   11  H   UNL     1     -44.089  55.911 -55.619  1.00  0.00     0.184 HD
ENDROOT
BRANCH  10  12
HETATM   12  C   UNL     1     -44.934  58.477 -51.983  1.00  0.00     0.256 C 
HETATM   13  N   UNL     1     -44.640  59.811 -52.162  1.00  0.00    -0.323 N 
HETATM   14  H   UNL     1     -43.920  60.061 -52.825  1.00  0.00     0.169 HD
HETATM   15  O   UNL     1     -45.780  58.015 -51.225  1.00  0.00    -0.267 OA
BRANCH  13  16
HETATM   16  C   UNL     1     -45.235  60.913 -51.510  1.00  0.00     0.035 A 
HETATM   17  C   UNL     1     -46.465  61.467 -51.867  1.00  0.00     0.029 A 
HETATM   18  C   UNL     1     -46.980  62.562 -51.165  1.00  0.00     0.002 A 
HETATM   19  C   UNL     1     -46.274  63.105 -50.093  1.00  0.00     0.000 A 
HETATM   20  C   UNL     1     -45.047  62.559 -49.728  1.00  0.00     0.002 A 
HETATM   21  C   UNL     1     -44.527  61.473 -50.437  1.00  0.00     0.029 A 
ENDBRANCH  13  16
ENDBRANCH  10  12
BRANCH   9  22
HETATM   22  C   UNL     1     -41.716  57.622 -51.806  1.00  0.00    -0.028 A 
HETATM   23  C   UNL     1     -40.914  58.065 -52.876  1.00  0.00     0.012 A 
HETATM   24  C   UNL     1     -39.767  58.826 -52.643  1.00  0.00     0.037 A 
HETATM   25  C   UNL     1     -39.409  59.138 -51.337  1.00  0.00     0.065 A 
HETATM   26  C   UNL     1     -40.176  58.702 -50.264  1.00  0.00     0.037 A 
HETATM   27  C   UNL     1     -41.324  57.944 -50.495  1.00  0.00     0.012 A 
BRANCH  25  28
HETATM   28  O   UNL     1     -38.293  59.872 -51.063  1.00  0.00    -0.361 OA
HETATM   29  H   UNL     1     -37.978  59.641 -50.173  1.00  0.00     0.217 HD
ENDBRANCH  25  28
ENDBRANCH   9  22
BRANCH   7  30
HETATM   30  C   UNL     1     -40.870  52.578 -53.279  1.00  0.00     0.036 A 
HETATM   31  C   UNL     1     -39.995  52.274 -52.226  1.00  0.00     0.048 A 
HETATM   32 CL   UNL     1     -39.750  53.316 -50.867  1.00  0.00    -0.083 Cl
HETATM   33  C   UNL     1     -39.230  51.099 -52.265  1.00  0.00     0.025 A 
HETATM   34  C   UNL     1     -39.327  50.223 -53.346  1.00  0.00     0.002 A 
HETATM   35  C   UNL     1     -40.185  50.519 -54.401  1.00  0.00     0.001 A 
HETATM   36  C   UNL     1     -40.946  51.688 -54.369  1.00  0.00     0.017 A 
ENDBRANCH   7  30
TORSDOF 5
ENDMDL
MODEL 2
REMARK VINA RESULT:      -9.3      1.841      2.353
REMARK  5 active torsions:
REMARK  status: ('A' for Active; 'I' for Inactive)
REMARK    1  A    between atoms: C_7  and  C_8 
REMARK    2  A    between atoms: C_16  and  C_17 
REMARK    3  A    between atoms: C_20  and  O_21 
REMARK    4  A    between atoms: C_24  and  C_25 
REMARK       I    between atoms: C_25  and  N_26 
REMARK    5  A    between atoms: N_26  and  C_27 
ROOT
HETATM    1  C   UNL     1     -43.011  57.546 -57.545  1.00  0.00     0.070 C 
HETATM    2  C   UNL     1     -42.674  56.850 -56.248  1.00  0.00     0.037 C 
HETATM    3  N   UNL     1     -41.775  55.789 -56.348  1.00  0.00    -0.192 N 
HETATM    4  C   UNL     1     -41.551  54.927 -55.336  1.00  0.00     0.726 A 
HETATM    5  N   UNL     1     -42.074  55.198 -54.107  1.00  0.00    -0.083 N 
HETATM    6  N   UNL     1     -41.807  54.220 -53.222  1.00  0.00    -0.135 NA
HETATM    7  C   UNL     1     -41.081  53.375 -53.981  1.00  0.00     0.200 A 
HETATM    8  N   UNL     1     -40.901  53.796 -55.286  1.00  0.00    -0.041 NA
HETATM    9  C   UNL     1     -42.791  56.432 -53.777  1.00  0.00     0.202 C 
HETATM   10  C   UNL     1     -43.194  57.190 -55.038  1.00  0.00     0.062 C 
HETATM   11  H   UNL     1     -41.495  55.506 -57.284  1.00  0.00     0.184 HD
ENDROOT
BRANCH  10  12
HETATM   12  C   UNL     1     -44.331  58.152 -54.944  1.00  0.00     0.256 C 
HETATM   13  N   UNL     1     -43.974  59.426 -54.560  1.00  0.00    -0.323 N 
HETATM   14  H   UNL     1     -42.995  59.628 -54.413  1.00  0.00     0.169 HD
HETATM   15  O   UNL     1     -45.469  57.753 -55.167  1.00  0.00    -0.267 OA
BRANCH  13  16
HETATM   16  C   UNL     1     -44.832  60.523 -54.329  1.00  0.00     0.035 A 
HETATM   17  C   UNL     1     -45.120  61.507 -55.276  1.00  0.00     0.029 A 
HETATM   18  C   UNL     1     -45.983  62.562 -54.962  1.00  0.00     0.002 A 
HETATM   19  C   UNL     1     -46.574  62.635 -53.703  1.00  0.00     0.000 A 
HETATM   20  C   UNL     1     -46.295  61.658 -52.751  1.00  0.00     0.002 A 
HETATM   21  C   UNL     1     -45.424  60.612 -53.061  1.00  0.00     0.029 A 
ENDBRANCH  13  16
ENDBRANCH  10  12
BRANCH   9  22
HETATM   22  C   UNL     1     -41.918  57.254 -52.826  1.00  0.00    -0.028 A 
HETATM   23  C   UNL     1     -42.109  57.222 -51.431  1.00  0.00     0.012 A 
HETATM   24  C   UNL     1     -41.303  57.983 -50.582  1.00  0.00     0.037 A 
HETATM   25  C   UNL     1     -40.309  58.788 -51.124  1.00  0.00     0.065 A 
HETATM   26  C   UNL     1     -40.109  58.847 -52.497  1.00  0.00     0.037 A 
HETATM   27  C   UNL     1     -40.912  58.086 -53.348  1.00  0.00     0.012 A 
BRANCH  25  28
HETATM   28  O   UNL     1     -39.504  59.553 -50.333  1.00  0.00    -0.361 OA
HETATM   29  H   UNL     1     -38.589  59.239 -50.422  1.00  0.00     0.217 HD
ENDBRANCH  25  28
ENDBRANCH   9  22
BRANCH   7  30
HETATM   30  C   UNL     1     -40.462  52.172 -53.441  1.00  0.00     0.036 A 
HETATM   31  C   UNL     1     -39.926  52.097 -52.148  1.00  0.00     0.048 A 
HETATM   32 CL   UNL     1     -39.866  53.447 -51.067  1.00  0.00    -0.083 Cl
HETATM   33  C   UNL     1     -39.358  50.899 -51.690  1.00  0.00     0.025 A 
HETATM   34  C   UNL     1     -39.318  49.772 -52.512  1.00  0.00     0.002 A 
HETATM   35  C   UNL     1     -39.839  49.838 -53.801  1.00  0.00     0.001 A 
HETATM   36  C   UNL     1     -40.403  51.028 -54.261  1.00  0.00     0.017 A 
ENDBRANCH   7  30
TORSDOF 5
ENDMDL
MODEL 3
REMARK VINA RESULT:      -9.1      2.324      3.503
REMARK  5 active torsions:
REMARK  status: ('A' for Active; 'I' for Inactive)
REMARK    1  A    between atoms: C_7  and  C_8 
REMARK    2  A    between atoms: C_16  and  C_17 
REMARK    3  A    between atoms: C_20  and  O_21 
REMARK    4  A    between atoms: C_24  and  C_25 
REMARK       I    between atoms: C_25  and  N_26 
REMARK    5  A    between atoms: N_26  and  C_27 
ROOT
HETATM    1  C   UNL     1     -45.942  58.524 -50.542  1.00  0.00     0.070 C 
HETATM    2  C   UNL     1     -44.759  58.031 -51.340  1.00  0.00     0.037 C 
HETATM    3  N   UNL     1     -44.594  56.647 -51.382  1.00  0.00    -0.192 N 
HETATM    4  C   UNL     1     -43.473  56.061 -51.849  1.00  0.00     0.726 A 
HETATM    5  N   UNL     1     -42.537  56.828 -52.476  1.00  0.00    -0.083 N 
HETATM    6  N   UNL     1     -41.459  56.108 -52.836  1.00  0.00    -0.135 NA
HETATM    7  C   UNL     1     -41.816  54.879 -52.415  1.00  0.00     0.200 A 
HETATM    8  N   UNL     1     -43.059  54.823 -51.813  1.00  0.00    -0.041 NA
HETATM    9  C   UNL     1     -42.711  58.252 -52.773  1.00  0.00     0.202 C 
HETATM   10  C   UNL     1     -43.877  58.840 -51.984  1.00  0.00     0.062 C 
HETATM   11  H   UNL     1     -45.215  56.089 -50.802  1.00  0.00     0.184 HD
ENDROOT
BRANCH  10  12
HETATM   12  C   UNL     1     -43.893  60.316 -51.753  1.00  0.00     0.256 C 
HETATM   13  N   UNL     1     -43.575  60.697 -50.468  1.00  0.00    -0.323 N 
HETATM   14  H   UNL     1     -43.320  59.982 -49.801  1.00  0.00     0.169 HD
HETATM   15  O   UNL     1     -44.214  61.060 -52.673  1.00  0.00    -0.267 OA
BRANCH  13  16
HETATM   16  C   UNL     1     -43.567  62.007 -49.942  1.00  0.00     0.035 A 
HETATM   17  C   UNL     1     -42.694  63.015 -50.357  1.00  0.00     0.029 A 
HETATM   18  C   UNL     1     -42.755  64.287 -49.779  1.00  0.00     0.002 A 
HETATM   19  C   UNL     1     -43.694  64.566 -48.790  1.00  0.00     0.000 A 
HETATM   20  C   UNL     1     -44.570  63.569 -48.369  1.00  0.00     0.002 A 
HETATM   21  C   UNL     1     -44.501  62.295 -48.937  1.00  0.00     0.029 A 
ENDBRANCH  13  16
ENDBRANCH  10  12
BRANCH   9  22
HETATM   22  C   UNL     1     -42.859  58.412 -54.287  1.00  0.00    -0.028 A 
HETATM   23  C   UNL     1     -43.811  57.677 -55.021  1.00  0.00     0.012 A 
HETATM   24  C   UNL     1     -43.928  57.837 -56.403  1.00  0.00     0.037 A 
HETATM   25  C   UNL     1     -43.085  58.725 -57.061  1.00  0.00     0.065 A 
HETATM   26  C   UNL     1     -42.130  59.452 -56.362  1.00  0.00     0.037 A 
HETATM   27  C   UNL     1     -42.013  59.295 -54.980  1.00  0.00     0.012 A 
BRANCH  25  28
HETATM   28  O   UNL     1     -43.160  58.907 -58.410  1.00  0.00    -0.361 OA
HETATM   29  H   UNL     1     -42.983  58.059 -58.850  1.00  0.00     0.217 HD
ENDBRANCH  25  28
ENDBRANCH   9  22
BRANCH   7  30
HETATM   30  C   UNL     1     -40.999  53.698 -52.662  1.00  0.00     0.036 A 
HETATM   31  C   UNL     1     -40.171  53.119 -51.689  1.00  0.00     0.048 A 
HETATM   32 CL   UNL     1     -39.963  53.784 -50.105  1.00  0.00    -0.083 Cl
HETATM   33  C   UNL     1     -39.424  51.972 -51.994  1.00  0.00     0.025 A 
HETATM   34  C   UNL     1     -39.493  51.395 -53.262  1.00  0.00     0.002 A 
HETATM   35  C   UNL     1     -40.304  51.966 -54.238  1.00  0.00     0.001 A 
HETATM   36  C   UNL     1     -41.047  53.109 -53.941  1.00  0.00     0.017 A 
ENDBRANCH   7  30
TORSDOF 5
ENDMDL
MODEL 4
REMARK VINA RESULT:      -8.9      2.905      8.834
REMARK  5 active torsions:
REMARK  status: ('A' for Active; 'I' for Inactive)
REMARK    1  A    between atoms: C_7  and  C_8 
REMARK    2  A    between atoms: C_16  and  C_17 
REMARK    3  A    between atoms: C_20  and  O_21 
REMARK    4  A    between atoms: C_24  and  C_25 
REMARK       I    between atoms: C_25  and  N_26 
REMARK    5  A    between atoms: N_26  and  C_27 
ROOT
HETATM    1  C   UNL     1     -40.438  56.195 -50.133  1.00  0.00     0.070 C 
HETATM    2  C   UNL     1     -41.575  56.702 -50.987  1.00  0.00     0.037 C 
HETATM    3  N   UNL     1     -41.927  58.037 -50.794  1.00  0.00    -0.192 N 
HETATM    4  C   UNL     1     -43.055  58.574 -51.301  1.00  0.00     0.726 A 
HETATM    5  N   UNL     1     -43.793  57.848 -52.187  1.00  0.00    -0.083 N 
HETATM    6  N   UNL     1     -44.911  58.499 -52.558  1.00  0.00    -0.135 NA
HETATM    7  C   UNL     1     -44.783  59.649 -51.869  1.00  0.00     0.200 A 
HETATM    8  N   UNL     1     -43.640  59.723 -51.094  1.00  0.00    -0.041 NA
HETATM    9  C   UNL     1     -43.387  56.544 -52.716  1.00  0.00     0.202 C 
HETATM   10  C   UNL     1     -42.252  55.945 -51.891  1.00  0.00     0.062 C 
HETATM   11  H   UNL     1     -41.463  58.533 -50.037  1.00  0.00     0.184 HD
ENDROOT
BRANCH  10  12
HETATM   12  C   UNL     1     -42.057  54.465 -51.938  1.00  0.00     0.256 C 
HETATM   13  N   UNL     1     -40.889  54.060 -52.546  1.00  0.00    -0.323 N 
HETATM   14  H   UNL     1     -40.244  54.767 -52.871  1.00  0.00     0.169 HD
HETATM   15  O   UNL     1     -42.932  53.734 -51.488  1.00  0.00    -0.267 OA
BRANCH  13  16
HETATM   16  C   UNL     1     -40.465  52.735 -52.789  1.00  0.00     0.035 A 
HETATM   17  C   UNL     1     -39.888  51.906 -51.826  1.00  0.00     0.029 A 
HETATM   18  C   UNL     1     -39.496  50.605 -52.154  1.00  0.00     0.002 A 
HETATM   19  C   UNL     1     -39.688  50.117 -53.445  1.00  0.00     0.000 A 
HETATM   20  C   UNL     1     -40.264  50.935 -54.413  1.00  0.00     0.002 A 
HETATM   21  C   UNL     1     -40.644  52.239 -54.088  1.00  0.00     0.029 A 
ENDBRANCH  13  16
ENDBRANCH  10  12
BRANCH   9  22
HETATM   22  C   UNL     1     -43.039  56.712 -54.196  1.00  0.00    -0.028 A 
HETATM   23  C   UNL     1     -43.201  55.660 -55.119  1.00  0.00     0.012 A 
HETATM   24  C   UNL     1     -42.875  55.835 -56.466  1.00  0.00     0.037 A 
HETATM   25  C   UNL     1     -42.375  57.058 -56.895  1.00  0.00     0.065 A 
HETATM   26  C   UNL     1     -42.195  58.107 -56.001  1.00  0.00     0.037 A 
HETATM   27  C   UNL     1     -42.522  57.936 -54.655  1.00  0.00     0.012 A 
BRANCH  25  28
HETATM   28  O   UNL     1     -42.037  57.270 -58.198  1.00  0.00    -0.361 OA
HETATM   29  H   UNL     1     -41.357  57.962 -58.236  1.00  0.00     0.217 HD
ENDBRANCH  25  28
ENDBRANCH   9  22
BRANCH   7  30
HETATM   30  C   UNL     1     -45.722  60.754 -52.006  1.00  0.00     0.036 A 
HETATM   31  C   UNL     1     -46.159  61.242 -53.246  1.00  0.00     0.048 A 
HETATM   32 CL   UNL     1     -45.576  60.640 -54.760  1.00  0.00    -0.083 Cl
HETATM   33  C   UNL     1     -47.077  62.301 -53.301  1.00  0.00     0.025 A 
HETATM   34  C   UNL     1     -47.564  62.881 -52.130  1.00  0.00     0.002 A 
HETATM   35  C   UNL     1     -47.130  62.411 -50.893  1.00  0.00     0.001 A 
HETATM   36  C   UNL     1     -46.215  61.360 -50.833  1.00  0.00     0.017 A 
ENDBRANCH   7  30
TORSDOF 5
ENDMDL
MODEL 5
REMARK VINA RESULT:      -8.8      3.569      4.718
REMARK  5 active torsions:
REMARK  status: ('A' for Active; 'I' for Inactive)
REMARK    1  A    between atoms: C_7  and  C_8 
REMARK    2  A    between atoms: C_16  and  C_17 
REMARK    3  A    between atoms: C_20  and  O_21 
REMARK    4  A    between atoms: C_24  and  C_25 
REMARK       I    between atoms: C_25  and  N_26 
REMARK    5  A    between atoms: N_26  and  C_27 
ROOT
HETATM    1  C   UNL     1     -45.109  58.691 -52.607  1.00  0.00     0.070 C 
HETATM    2  C   UNL     1     -44.050  57.841 -53.269  1.00  0.00     0.037 C 
HETATM    3  N   UNL     1     -44.009  56.506 -52.866  1.00  0.00    -0.192 N 
HETATM    4  C   UNL     1     -42.989  55.683 -53.181  1.00  0.00     0.726 A 
HETATM    5  N   UNL     1     -42.052  56.101 -54.077  1.00  0.00    -0.083 N 
HETATM    6  N   UNL     1     -41.077  55.189 -54.244  1.00  0.00    -0.135 NA
HETATM    7  C   UNL     1     -41.498  54.206 -53.426  1.00  0.00     0.200 A 
HETATM    8  N   UNL     1     -42.682  54.483 -52.767  1.00  0.00    -0.041 NA
HETATM    9  C   UNL     1     -42.130  57.366 -54.812  1.00  0.00     0.202 C 
HETATM   10  C   UNL     1     -43.165  58.300 -54.192  1.00  0.00     0.062 C 
HETATM   11  H   UNL     1     -44.620  56.235 -52.100  1.00  0.00     0.184 HD
ENDROOT
BRANCH  10  12
HETATM   12  C   UNL     1     -43.033  59.765 -54.454  1.00  0.00     0.256 C 
HETATM   13  N   UNL     1     -43.871  60.249 -55.434  1.00  0.00    -0.323 N 
HETATM   14  H   UNL     1     -44.526  59.613 -55.866  1.00  0.00     0.169 HD
HETATM   15  O   UNL     1     -42.192  60.407 -53.834  1.00  0.00    -0.267 OA
BRANCH  13  16
HETATM   16  C   UNL     1     -43.929  61.568 -55.935  1.00  0.00     0.035 A 
HETATM   17  C   UNL     1     -44.758  62.567 -55.423  1.00  0.00     0.029 A 
HETATM   18  C   UNL     1     -44.753  63.848 -55.982  1.00  0.00     0.002 A 
HETATM   19  C   UNL     1     -43.910  64.146 -57.051  1.00  0.00     0.000 A 
HETATM   20  C   UNL     1     -43.077  63.157 -57.568  1.00  0.00     0.002 A 
HETATM   21  C   UNL     1     -43.092  61.874 -57.018  1.00  0.00     0.029 A 
ENDBRANCH  13  16
ENDBRANCH  10  12
BRANCH   9  22
HETATM   22  C   UNL     1     -42.400  57.051 -56.284  1.00  0.00    -0.028 A 
HETATM   23  C   UNL     1     -42.983  55.832 -56.686  1.00  0.00     0.012 A 
HETATM   24  C   UNL     1     -43.219  55.564 -58.036  1.00  0.00     0.037 A 
HETATM   25  C   UNL     1     -42.864  56.507 -58.992  1.00  0.00     0.065 A 
HETATM   26  C   UNL     1     -42.276  57.710 -58.622  1.00  0.00     0.037 A 
HETATM   27  C   UNL     1     -42.041  57.982 -57.274  1.00  0.00     0.012 A 
BRANCH  25  28
HETATM   28  O   UNL     1     -43.069  56.283 -60.321  1.00  0.00    -0.361 OA
HETATM   29  H   UNL     1     -42.213  56.105 -60.744  1.00  0.00     0.217 HD
ENDBRANCH  25  28
ENDBRANCH   9  22
BRANCH   7  30
HETATM   30  C   UNL     1     -40.811  52.925 -53.320  1.00  0.00     0.036 A 
HETATM   31  C   UNL     1     -40.079  52.537 -52.189  1.00  0.00     0.048 A 
HETATM   32 CL   UNL     1     -39.841  53.562 -50.816  1.00  0.00    -0.083 Cl
HETATM   33  C   UNL     1     -39.456  51.281 -52.152  1.00  0.00     0.025 A 
HETATM   34  C   UNL     1     -39.554  50.407 -53.235  1.00  0.00     0.002 A 
HETATM   35  C   UNL     1     -40.270  50.786 -54.367  1.00  0.00     0.001 A 
HETATM   36  C   UNL     1     -40.890  52.035 -54.409  1.00  0.00     0.017 A 
ENDBRANCH   7  30
TORSDOF 5
ENDMDL
MODEL 6
REMARK VINA RESULT:      -8.7      2.678      3.676
REMARK  5 active torsions:
REMARK  status: ('A' for Active; 'I' for Inactive)
REMARK    1  A    between atoms: C_7  and  C_8 
REMARK    2  A    between atoms: C_16  and  C_17 
REMARK    3  A    between atoms: C_20  and  O_21 
REMARK    4  A    between atoms: C_24  and  C_25 
REMARK       I    between atoms: C_25  and  N_26 
REMARK    5  A    between atoms: N_26  and  C_27 
ROOT
HETATM    1  C   UNL     1     -45.456  58.402 -50.907  1.00  0.00     0.070 C 
HETATM    2  C   UNL     1     -44.356  57.777 -51.731  1.00  0.00     0.037 C 
HETATM    3  N   UNL     1     -44.252  56.389 -51.645  1.00  0.00    -0.192 N 
HETATM    4  C   UNL     1     -43.193  55.707 -52.127  1.00  0.00     0.726 A 
HETATM    5  N   UNL     1     -42.274  56.363 -52.890  1.00  0.00    -0.083 N 
HETATM    6  N   UNL     1     -41.256  55.560 -53.249  1.00  0.00    -0.135 NA
HETATM    7  C   UNL     1     -41.632  54.397 -52.683  1.00  0.00     0.200 A 
HETATM    8  N   UNL     1     -42.830  54.460 -51.995  1.00  0.00    -0.041 NA
HETATM    9  C   UNL     1     -42.411  57.758 -53.316  1.00  0.00     0.202 C 
HETATM   10  C   UNL     1     -43.491  58.477 -52.513  1.00  0.00     0.062 C 
HETATM   11  H   UNL     1     -44.851  55.921 -50.970  1.00  0.00     0.184 HD
ENDROOT
BRANCH  10  12
HETATM   12  C   UNL     1     -43.428  59.966 -52.430  1.00  0.00     0.256 C 
HETATM   13  N   UNL     1     -44.270  60.624 -53.300  1.00  0.00    -0.323 N 
HETATM   14  H   UNL     1     -44.883  60.075 -53.886  1.00  0.00     0.169 HD
HETATM   15  O   UNL     1     -42.635  60.487 -51.654  1.00  0.00    -0.267 OA
BRANCH  13  16
HETATM   16  C   UNL     1     -44.385  62.019 -53.489  1.00  0.00     0.035 A 
HETATM   17  C   UNL     1     -45.298  62.830 -52.813  1.00  0.00     0.029 A 
HETATM   18  C   UNL     1     -45.344  64.205 -53.063  1.00  0.00     0.002 A 
HETATM   19  C   UNL     1     -44.471  64.782 -53.983  1.00  0.00     0.000 A 
HETATM   20  C   UNL     1     -43.556  63.982 -54.661  1.00  0.00     0.002 A 
HETATM   21  C   UNL     1     -43.518  62.607 -54.420  1.00  0.00     0.029 A 
ENDBRANCH  13  16
ENDBRANCH  10  12
BRANCH   9  22
HETATM   22  C   UNL     1     -42.662  57.778 -54.825  1.00  0.00    -0.028 A 
HETATM   23  C   UNL     1     -43.410  56.769 -55.464  1.00  0.00     0.012 A 
HETATM   24  C   UNL     1     -43.625  56.805 -56.844  1.00  0.00     0.037 A 
HETATM   25  C   UNL     1     -43.085  57.843 -57.593  1.00  0.00     0.065 A 
HETATM   26  C   UNL     1     -42.333  58.842 -56.988  1.00  0.00     0.037 A 
HETATM   27  C   UNL     1     -42.118  58.810 -55.609  1.00  0.00     0.012 A 
BRANCH  25  28
HETATM   28  O   UNL     1     -43.264  57.913 -58.942  1.00  0.00    -0.361 OA
HETATM   29  H   UNL     1     -42.476  58.315 -59.342  1.00  0.00     0.217 HD
ENDBRANCH  25  28
ENDBRANCH   9  22
BRANCH   7  30
HETATM   30  C   UNL     1     -40.885  53.159 -52.865  1.00  0.00     0.036 A 
HETATM   31  C   UNL     1     -40.115  52.570 -51.852  1.00  0.00     0.048 A 
HETATM   32 CL   UNL     1     -39.898  53.284 -50.291  1.00  0.00    -0.083 Cl
HETATM   33  C   UNL     1     -39.434  51.368 -52.095  1.00  0.00     0.025 A 
HETATM   34  C   UNL     1     -39.512  50.747 -53.342  1.00  0.00     0.002 A 
HETATM   35  C   UNL     1     -40.266  51.327 -54.358  1.00  0.00     0.001 A 
HETATM   36  C   UNL     1     -40.943  52.524 -54.122  1.00  0.00     0.017 A 
ENDBRANCH   7  30
TORSDOF 5
ENDMDL
MODEL 7
REMARK VINA RESULT:      -8.6      3.719      8.524
REMARK  5 active torsions:
REMARK  status: ('A' for Active; 'I' for Inactive)
REMARK    1  A    between atoms: C_7  and  C_8 
REMARK    2  A    between atoms: C_16  and  C_17 
REMARK    3  A    between atoms: C_20  and  O_21 
REMARK    4  A    between atoms: C_24  and  C_25 
REMARK       I    between atoms: C_25  and  N_26 
REMARK    5  A    between atoms: N_26  and  C_27 
ROOT
HETATM    1  C   UNL     1     -43.589  54.224 -55.657  1.00  0.00     0.070 C 
HETATM    2  C   UNL     1     -42.992  55.590 -55.413  1.00  0.00     0.037 C 
HETATM    3  N   UNL     1     -43.767  56.671 -55.833  1.00  0.00    -0.192 N 
HETATM    4  C   UNL     1     -43.286  57.928 -55.901  1.00  0.00     0.726 A 
HETATM    5  N   UNL     1     -42.060  58.199 -55.370  1.00  0.00    -0.083 N 
HETATM    6  N   UNL     1     -41.703  59.481 -55.563  1.00  0.00    -0.135 NA
HETATM    7  C   UNL     1     -42.784  59.957 -56.209  1.00  0.00     0.200 A 
HETATM    8  N   UNL     1     -43.779  59.020 -56.419  1.00  0.00    -0.041 NA
HETATM    9  C   UNL     1     -41.258  57.224 -54.627  1.00  0.00     0.202 C 
HETATM   10  C   UNL     1     -41.779  55.806 -54.838  1.00  0.00     0.062 C 
HETATM   11  H   UNL     1     -44.617  56.458 -56.350  1.00  0.00     0.184 HD
ENDROOT
BRANCH  10  12
HETATM   12  C   UNL     1     -40.837  54.671 -54.607  1.00  0.00     0.256 C 
HETATM   13  N   UNL     1     -41.326  53.677 -53.788  1.00  0.00    -0.323 N 
HETATM   14  H   UNL     1     -42.273  53.758 -53.444  1.00  0.00     0.169 HD
HETATM   15  O   UNL     1     -39.718  54.714 -55.108  1.00  0.00    -0.267 OA
BRANCH  13  16
HETATM   16  C   UNL     1     -40.647  52.521 -53.346  1.00  0.00     0.035 A 
HETATM   17  C   UNL     1     -40.063  52.386 -52.086  1.00  0.00     0.029 A 
HETATM   18  C   UNL     1     -39.407  51.203 -51.731  1.00  0.00     0.002 A 
HETATM   19  C   UNL     1     -39.340  50.140 -52.629  1.00  0.00     0.000 A 
HETATM   20  C   UNL     1     -39.921  50.263 -53.888  1.00  0.00     0.002 A 
HETATM   21  C   UNL     1     -40.564  51.449 -54.247  1.00  0.00     0.029 A 
ENDBRANCH  13  16
ENDBRANCH  10  12
BRANCH   9  22
HETATM   22  C   UNL     1     -41.226  57.647 -53.157  1.00  0.00    -0.028 A 
HETATM   23  C   UNL     1     -42.129  57.117 -52.214  1.00  0.00     0.012 A 
HETATM   24  C   UNL     1     -42.084  57.519 -50.877  1.00  0.00     0.037 A 
HETATM   25  C   UNL     1     -41.145  58.462 -50.479  1.00  0.00     0.065 A 
HETATM   26  C   UNL     1     -40.253  59.010 -51.393  1.00  0.00     0.037 A 
HETATM   27  C   UNL     1     -40.294  58.608 -52.729  1.00  0.00     0.012 A 
BRANCH  25  28
HETATM   28  O   UNL     1     -41.071  58.889 -49.187  1.00  0.00    -0.361 OA
HETATM   29  H   UNL     1     -41.751  59.567 -49.042  1.00  0.00     0.217 HD
ENDBRANCH  25  28
ENDBRANCH   9  22
BRANCH   7  30
HETATM   30  C   UNL     1     -42.928  61.362 -56.568  1.00  0.00     0.036 A 
HETATM   31  C   UNL     1     -42.413  61.909 -57.752  1.00  0.00     0.048 A 
HETATM   32 CL   UNL     1     -41.480  60.998 -58.890  1.00  0.00    -0.083 Cl
HETATM   33  C   UNL     1     -42.602  63.269 -58.039  1.00  0.00     0.025 A 
HETATM   34  C   UNL     1     -43.301  64.091 -57.155  1.00  0.00     0.002 A 
HETATM   35  C   UNL     1     -43.808  63.561 -55.972  1.00  0.00     0.001 A 
HETATM   36  C   UNL     1     -43.620  62.210 -55.681  1.00  0.00     0.017 A 
ENDBRANCH   7  30
TORSDOF 5
ENDMDL
MODEL 8
REMARK VINA RESULT:      -8.3      1.898      2.374
REMARK  5 active torsions:
REMARK  status: ('A' for Active; 'I' for Inactive)
REMARK    1  A    between atoms: C_7  and  C_8 
REMARK    2  A    between atoms: C_16  and  C_17 
REMARK    3  A    between atoms: C_20  and  O_21 
REMARK    4  A    between atoms: C_24  and  C_25 
REMARK       I    between atoms: C_25  and  N_26 
REMARK    5  A    between atoms: N_26  and  C_27 
ROOT
HETATM    1  C   UNL     1     -42.807  59.562 -56.364  1.00  0.00     0.070 C 
HETATM    2  C   UNL     1     -42.381  58.687 -55.210  1.00  0.00     0.037 C 
HETATM    3  N   UNL     1     -41.716  57.511 -55.557  1.00  0.00    -0.192 N 
HETATM    4  C   UNL     1     -41.478  56.521 -54.674  1.00  0.00     0.726 A 
HETATM    5  N   UNL     1     -41.724  56.739 -53.352  1.00  0.00    -0.083 N 
HETATM    6  N   UNL     1     -41.486  55.642 -52.611  1.00  0.00    -0.135 NA
HETATM    7  C   UNL     1     -41.065  54.778 -53.554  1.00  0.00     0.200 A 
HETATM    8  N   UNL     1     -41.040  55.301 -54.834  1.00  0.00    -0.041 NA
HETATM    9  C   UNL     1     -42.141  58.030 -52.800  1.00  0.00     0.202 C 
HETATM   10  C   UNL     1     -42.615  58.974 -53.902  1.00  0.00     0.062 C 
HETATM   11  H   UNL     1     -41.656  57.289 -56.548  1.00  0.00     0.184 HD
ENDROOT
BRANCH  10  12
HETATM   12  C   UNL     1     -43.529  60.092 -53.522  1.00  0.00     0.256 C 
HETATM   13  N   UNL     1     -44.861  59.856 -53.783  1.00  0.00    -0.323 N 
HETATM   14  H   UNL     1     -45.127  58.957 -54.161  1.00  0.00     0.169 HD
HETATM   15  O   UNL     1     -43.051  61.121 -53.060  1.00  0.00    -0.267 OA
BRANCH  13  16
HETATM   16  C   UNL     1     -45.941  60.744 -53.588  1.00  0.00     0.035 A 
HETATM   17  C   UNL     1     -46.666  60.850 -52.400  1.00  0.00     0.029 A 
HETATM   18  C   UNL     1     -47.725  61.758 -52.295  1.00  0.00     0.002 A 
HETATM   19  C   UNL     1     -48.060  62.575 -53.372  1.00  0.00     0.000 A 
HETATM   20  C   UNL     1     -47.342  62.479 -54.561  1.00  0.00     0.002 A 
HETATM   21  C   UNL     1     -46.294  61.563 -54.670  1.00  0.00     0.029 A 
ENDBRANCH  13  16
ENDBRANCH  10  12
BRANCH   9  22
HETATM   22  C   UNL     1     -40.985  58.595 -51.971  1.00  0.00    -0.028 A 
HETATM   23  C   UNL     1     -41.162  58.999 -50.633  1.00  0.00     0.012 A 
HETATM   24  C   UNL     1     -40.093  59.514 -49.896  1.00  0.00     0.037 A 
HETATM   25  C   UNL     1     -38.846  59.638 -50.496  1.00  0.00     0.065 A 
HETATM   26  C   UNL     1     -38.651  59.259 -51.818  1.00  0.00     0.037 A 
HETATM   27  C   UNL     1     -39.716  58.741 -52.556  1.00  0.00     0.012 A 
BRANCH  25  28
HETATM   28  O   UNL     1     -37.778  60.143 -49.816  1.00  0.00    -0.361 OA
HETATM   29  H   UNL     1     -37.521  60.988 -50.219  1.00  0.00     0.217 HD
ENDBRANCH  25  28
ENDBRANCH   9  22
BRANCH   7  30
HETATM   30  C   UNL     1     -40.586  53.439 -53.234  1.00  0.00     0.036 A 
HETATM   31  C   UNL     1     -40.173  53.058 -51.950  1.00  0.00     0.048 A 
HETATM   32 CL   UNL     1     -40.111  54.151 -50.610  1.00  0.00    -0.083 Cl
HETATM   33  C   UNL     1     -39.738  51.746 -51.712  1.00  0.00     0.025 A 
HETATM   34  C   UNL     1     -39.709  50.809 -52.745  1.00  0.00     0.002 A 
HETATM   35  C   UNL     1     -40.107  51.179 -54.026  1.00  0.00     0.001 A 
HETATM   36  C   UNL     1     -40.538  52.484 -54.268  1.00  0.00     0.017 A 
ENDBRANCH   7  30
TORSDOF 5
ENDMDL
MODEL 9
REMARK VINA RESULT:      -8.3      4.543      7.988
REMARK  5 active torsions:
REMARK  status: ('A' for Active; 'I' for Inactive)
REMARK    1  A    between atoms: C_7  and  C_8 
REMARK    2  A    between atoms: C_16  and  C_17 
REMARK    3  A    between atoms: C_20  and  O_21 
REMARK    4  A    between atoms: C_24  and  C_25 
REMARK       I    between atoms: C_25  and  N_26 
REMARK    5  A    between atoms: N_26  and  C_27 
ROOT
HETATM    1  C   UNL     1     -43.273  53.710 -55.780  1.00  0.00     0.070 C 
HETATM    2  C   UNL     1     -42.951  55.156 -56.073  1.00  0.00     0.037 C 
HETATM    3  N   UNL     1     -43.593  55.704 -57.184  1.00  0.00    -0.192 N 
HETATM    4  C   UNL     1     -43.244  56.893 -57.713  1.00  0.00     0.726 A 
HETATM    5  N   UNL     1     -42.361  57.684 -57.040  1.00  0.00    -0.083 N 
HETATM    6  N   UNL     1     -42.077  58.809 -57.721  1.00  0.00    -0.135 NA
HETATM    7  C   UNL     1     -42.852  58.655 -58.811  1.00  0.00     0.200 A 
HETATM    8  N   UNL     1     -43.590  57.486 -58.824  1.00  0.00    -0.041 NA
HETATM    9  C   UNL     1     -41.832  57.372 -55.710  1.00  0.00     0.202 C 
HETATM   10  C   UNL     1     -42.093  55.914 -55.342  1.00  0.00     0.062 C 
HETATM   11  H   UNL     1     -44.144  55.071 -57.759  1.00  0.00     0.184 HD
ENDROOT
BRANCH  10  12
HETATM   12  C   UNL     1     -41.218  55.286 -54.307  1.00  0.00     0.256 C 
HETATM   13  N   UNL     1     -41.802  55.153 -53.067  1.00  0.00    -0.323 N 
HETATM   14  H   UNL     1     -42.765  55.440 -52.954  1.00  0.00     0.169 HD
HETATM   15  O   UNL     1     -40.069  54.979 -54.606  1.00  0.00    -0.267 OA
BRANCH  13  16
HETATM   16  C   UNL     1     -41.205  54.654 -51.889  1.00  0.00     0.035 A 
HETATM   17  C   UNL     1     -40.750  53.344 -51.733  1.00  0.00     0.029 A 
HETATM   18  C   UNL     1     -40.170  52.934 -50.528  1.00  0.00     0.002 A 
HETATM   19  C   UNL     1     -40.031  53.833 -49.473  1.00  0.00     0.000 A 
HETATM   20  C   UNL     1     -40.480  55.142 -49.618  1.00  0.00     0.002 A 
HETATM   21  C   UNL     1     -41.070  55.548 -50.817  1.00  0.00     0.029 A 
ENDBRANCH  13  16
ENDBRANCH  10  12
BRANCH   9  22
HETATM   22  C   UNL     1     -42.427  58.367 -54.711  1.00  0.00    -0.028 A 
HETATM   23  C   UNL     1     -41.647  59.383 -54.125  1.00  0.00     0.012 A 
HETATM   24  C   UNL     1     -42.209  60.279 -53.213  1.00  0.00     0.037 A 
HETATM   25  C   UNL     1     -43.551  60.157 -52.874  1.00  0.00     0.065 A 
HETATM   26  C   UNL     1     -44.337  59.155 -53.428  1.00  0.00     0.037 A 
HETATM   27  C   UNL     1     -43.779  58.259 -54.341  1.00  0.00     0.012 A 
BRANCH  25  28
HETATM   28  O   UNL     1     -44.138  61.005 -51.983  1.00  0.00    -0.361 OA
HETATM   29  H   UNL     1     -43.461  61.328 -51.366  1.00  0.00     0.217 HD
ENDBRANCH  25  28
ENDBRANCH   9  22
BRANCH   7  30
HETATM   30  C   UNL     1     -42.971  59.680 -59.840  1.00  0.00     0.036 A 
HETATM   31  C   UNL     1     -43.963  60.672 -59.826  1.00  0.00     0.048 A 
HETATM   32 CL   UNL     1     -45.208  60.749 -58.627  1.00  0.00    -0.083 Cl
HETATM   33  C   UNL     1     -44.007  61.636 -60.843  1.00  0.00     0.025 A 
HETATM   34  C   UNL     1     -43.072  61.621 -61.877  1.00  0.00     0.002 A 
HETATM   35  C   UNL     1     -42.089  60.636 -61.907  1.00  0.00     0.001 A 
HETATM   36  C   UNL     1     -42.042  59.673 -60.899  1.00  0.00     0.017 A 
ENDBRANCH   7  30
TORSDOF 5
ENDMDL
MODEL 10
REMARK VINA RESULT:      -8.0      5.534      9.237
REMARK  5 active torsions:
REMARK  status: ('A' for Active; 'I' for Inactive)
REMARK    1  A    between atoms: C_7  and  C_8 
REMARK    2  A    between atoms: C_16  and  C_17 
REMARK    3  A    between atoms: C_20  and  O_21 
REMARK    4  A    between atoms: C_24  and  C_25 
REMARK       I    between atoms: C_25  and  N_26 
REMARK    5  A    between atoms: N_26  and  C_27 
ROOT
HETATM    1  C   UNL     1     -45.203  57.621 -53.920  1.00  0.00     0.070 C 
HETATM    2  C   UNL     1     -45.046  57.710 -55.419  1.00  0.00     0.037 C 
HETATM    3  N   UNL     1     -46.189  58.086 -56.124  1.00  0.00    -0.192 N 
HETATM    4  C   UNL     1     -46.282  57.988 -57.466  1.00  0.00     0.726 A 
HETATM    5  N   UNL     1     -45.165  57.689 -58.187  1.00  0.00    -0.083 N 
HETATM    6  N   UNL     1     -45.432  57.578 -59.501  1.00  0.00    -0.135 NA
HETATM    7  C   UNL     1     -46.751  57.849 -59.521  1.00  0.00     0.200 A 
HETATM    8  N   UNL     1     -47.296  58.117 -58.279  1.00  0.00    -0.041 NA
HETATM    9  C   UNL     1     -43.826  57.563 -57.606  1.00  0.00     0.202 C 
HETATM   10  C   UNL     1     -43.893  57.442 -56.087  1.00  0.00     0.062 C 
HETATM   11  H   UNL     1     -47.052  58.175 -55.594  1.00  0.00     0.184 HD
ENDROOT
BRANCH  10  12
HETATM   12  C   UNL     1     -42.739  56.808 -55.383  1.00  0.00     0.256 C 
HETATM   13  N   UNL     1     -42.821  55.438 -55.265  1.00  0.00    -0.323 N 
HETATM   14  H   UNL     1     -43.609  54.964 -55.686  1.00  0.00     0.169 HD
HETATM   15  O   UNL     1     -41.848  57.523 -54.936  1.00  0.00    -0.267 OA
BRANCH  13  16
HETATM   16  C   UNL     1     -41.917  54.580 -54.603  1.00  0.00     0.035 A 
HETATM   17  C   UNL     1     -40.788  54.016 -55.200  1.00  0.00     0.029 A 
HETATM   18  C   UNL     1     -39.945  53.174 -54.468  1.00  0.00     0.002 A 
HETATM   19  C   UNL     1     -40.217  52.897 -53.130  1.00  0.00     0.000 A 
HETATM   20  C   UNL     1     -41.339  53.455 -52.525  1.00  0.00     0.002 A 
HETATM   21  C   UNL     1     -42.188  54.286 -53.259  1.00  0.00     0.029 A 
ENDBRANCH  13  16
ENDBRANCH  10  12
BRANCH   9  22
HETATM   22  C   UNL     1     -42.981  58.746 -58.084  1.00  0.00    -0.028 A 
HETATM   23  C   UNL     1     -42.683  59.833 -57.238  1.00  0.00     0.012 A 
HETATM   24  C   UNL     1     -41.912  60.904 -57.695  1.00  0.00     0.037 A 
HETATM   25  C   UNL     1     -41.446  60.900 -59.004  1.00  0.00     0.065 A 
HETATM   26  C   UNL     1     -41.738  59.847 -59.862  1.00  0.00     0.037 A 
HETATM   27  C   UNL     1     -42.506  58.774 -59.407  1.00  0.00     0.012 A 
BRANCH  25  28
HETATM   28  O   UNL     1     -40.697  61.928 -59.494  1.00  0.00    -0.361 OA
HETATM   29  H   UNL     1     -40.224  61.621 -60.285  1.00  0.00     0.217 HD
ENDBRANCH  25  28
ENDBRANCH   9  22
BRANCH   7  30
HETATM   30  C   UNL     1     -47.513  57.946 -60.760  1.00  0.00     0.036 A 
HETATM   31  C   UNL     1     -47.934  59.165 -61.310  1.00  0.00     0.048 A 
HETATM   32 CL   UNL     1     -47.664  60.694 -60.544  1.00  0.00    -0.083 Cl
HETATM   33  C   UNL     1     -48.651  59.182 -62.514  1.00  0.00     0.025 A 
HETATM   34  C   UNL     1     -48.956  57.993 -63.177  1.00  0.00     0.002 A 
HETATM   35  C   UNL     1     -48.552  56.777 -62.635  1.00  0.00     0.001 A 
HETATM   36  C   UNL     1     -47.840  56.754 -61.436  1.00  0.00     0.017 A 
ENDBRANCH   7  30
TORSDOF 5
ENDMDL
