MODEL 1
REMARK VINA RESULT:      -8.2      0.000      0.000
REMARK  2 active torsions:
REMARK  status: ('A' for Active; 'I' for Inactive)
REMARK    1  A    between atoms: N_10  and  S_11 
REMARK    2  A    between atoms: S_11  and  C_14 
ROOT
HETATM    1  S   UNL     1     -41.120  54.559 -53.669  1.00  0.00     0.245 S 
HETATM    2  O   UNL     1     -42.286  53.963 -54.289  1.00  0.00    -0.206 OA
HETATM    3  O   UNL     1     -40.067  55.097 -54.497  1.00  0.00    -0.206 OA
ENDROOT
BRANCH   1   4
HETATM    4  N   UNL     1     -41.722  55.873 -52.682  1.00  0.00    -0.201 NA
HETATM    5  C   UNL     1     -43.180  55.704 -52.223  1.00  0.00     0.096 C 
HETATM    6  C   UNL     1     -43.650  54.261 -52.025  1.00  0.00     0.029 C 
HETATM    7  C   UNL     1     -43.343  56.410 -50.854  1.00  0.00     0.252 C 
HETATM    8  N   UNL     1     -43.694  57.868 -50.960  1.00  0.00    -0.074 N 
HETATM    9  H   UNL     1     -44.718  57.952 -51.043  1.00  0.00     0.277 HD
HETATM   10  H   UNL     1     -43.474  58.295 -50.048  1.00  0.00     0.277 HD
HETATM   11  C   UNL     1     -43.081  58.704 -52.027  1.00  0.00     0.233 C 
HETATM   12  C   UNL     1     -41.631  58.352 -52.283  1.00  0.00     0.043 C 
HETATM   13  C   UNL     1     -41.484  57.217 -53.294  1.00  0.00     0.109 C 
ENDBRANCH   1   4
BRANCH   1  14
HETATM   14  C   UNL     1     -40.477  53.328 -52.534  1.00  0.00     0.088 A 
HETATM   15  C   UNL     1     -40.489  53.711 -51.178  1.00  0.00     0.026 A 
HETATM   16  C   UNL     1     -40.204  52.792 -50.177  1.00  0.00     0.002 A 
HETATM   17  C   UNL     1     -39.925  51.475 -50.517  1.00  0.00     0.014 A 
HETATM   18  C   UNL     1     -39.896  51.067 -51.859  1.00  0.00    -0.004 A 
HETATM   19  C   UNL     1     -39.607  49.733 -52.169  1.00  0.00     0.128 A 
HETATM   20  C   UNL     1     -40.149  51.984 -52.914  1.00  0.00     0.038 A 
HETATM   21  N   UNL     1     -39.517  49.233 -53.419  1.00  0.00    -0.269 NA
HETATM   22  C   UNL     1     -39.720  50.108 -54.419  1.00  0.00     0.159 A 
HETATM   23  C   UNL     1     -40.013  51.450 -54.220  1.00  0.00     0.146 A 
HETATM   24  F   UNL     1     -40.037  52.231 -55.307  1.00  0.00    -0.204 F 
ENDBRANCH   1  14
TORSDOF 2
ENDMDL
MODEL 2
REMARK VINA RESULT:      -7.7      1.001      1.027
REMARK  2 active torsions:
REMARK  status: ('A' for Active; 'I' for Inactive)
REMARK    1  A    between atoms: N_10  and  S_11 
REMARK    2  A    between atoms: S_11  and  C_14 
ROOT
HETATM    1  S   UNL     1     -41.368  54.818 -53.387  1.00  0.00     0.245 S 
HETATM    2  O   UNL     1     -42.548  54.233 -53.993  1.00  0.00    -0.206 OA
HETATM    3  O   UNL     1     -40.350  55.403 -54.227  1.00  0.00    -0.206 OA
ENDROOT
BRANCH   1   4
HETATM    4  N   UNL     1     -41.952  56.082 -52.327  1.00  0.00    -0.201 NA
HETATM    5  C   UNL     1     -43.083  56.937 -52.923  1.00  0.00     0.096 C 
HETATM    6  C   UNL     1     -44.004  56.220 -53.914  1.00  0.00     0.029 C 
HETATM    7  C   UNL     1     -43.984  57.427 -51.763  1.00  0.00     0.252 C 
HETATM    8  N   UNL     1     -43.527  58.719 -51.142  1.00  0.00    -0.074 N 
HETATM    9  H   UNL     1     -43.924  59.499 -51.685  1.00  0.00     0.277 HD
HETATM   10  H   UNL     1     -43.985  58.786 -50.222  1.00  0.00     0.277 HD
HETATM   11  C   UNL     1     -42.074  58.983 -50.962  1.00  0.00     0.233 C 
HETATM   12  C   UNL     1     -41.302  57.745 -50.559  1.00  0.00     0.043 C 
HETATM   13  C   UNL     1     -40.852  56.927 -51.768  1.00  0.00     0.109 C 
ENDBRANCH   1   4
BRANCH   1  14
HETATM   14  C   UNL     1     -40.673  53.549 -52.327  1.00  0.00     0.088 A 
HETATM   15  C   UNL     1     -40.699  53.851 -50.951  1.00  0.00     0.026 A 
HETATM   16  C   UNL     1     -40.374  52.887 -50.006  1.00  0.00     0.002 A 
HETATM   17  C   UNL     1     -40.040  51.605 -50.423  1.00  0.00     0.014 A 
HETATM   18  C   UNL     1     -39.997  51.279 -51.787  1.00  0.00    -0.004 A 
HETATM   19  C   UNL     1     -39.652  49.979 -52.175  1.00  0.00     0.128 A 
HETATM   20  C   UNL     1     -40.290  52.246 -52.785  1.00  0.00     0.038 A 
HETATM   21  N   UNL     1     -39.544  49.558 -53.452  1.00  0.00    -0.269 NA
HETATM   22  C   UNL     1     -39.784  50.482 -54.399  1.00  0.00     0.159 A 
HETATM   23  C   UNL     1     -40.133  51.796 -54.122  1.00  0.00     0.146 A 
HETATM   24  F   UNL     1     -40.192  52.638 -55.160  1.00  0.00    -0.204 F 
ENDBRANCH   1  14
TORSDOF 2
ENDMDL
MODEL 3
REMARK VINA RESULT:      -7.6      2.431      3.475
REMARK  2 active torsions:
REMARK  status: ('A' for Active; 'I' for Inactive)
REMARK    1  A    between atoms: N_10  and  S_11 
REMARK    2  A    between atoms: S_11  and  C_14 
ROOT
HETATM    1  S   UNL     1     -42.696  54.797 -54.475  1.00  0.00     0.245 S 
HETATM    2  O   UNL     1     -44.072  54.472 -54.154  1.00  0.00    -0.206 OA
HETATM    3  O   UNL     1     -42.275  54.833 -55.856  1.00  0.00    -0.206 OA
ENDROOT
BRANCH   1   4
HETATM    4  N   UNL     1     -42.412  56.390 -53.808  1.00  0.00    -0.201 NA
HETATM    5  C   UNL     1     -43.350  57.480 -54.350  1.00  0.00     0.096 C 
HETATM    6  C   UNL     1     -44.749  57.010 -54.758  1.00  0.00     0.029 C 
HETATM    7  C   UNL     1     -43.551  58.544 -53.243  1.00  0.00     0.252 C 
HETATM    8  N   UNL     1     -42.513  59.632 -53.250  1.00  0.00    -0.074 N 
HETATM    9  H   UNL     1     -42.814  60.366 -53.908  1.00  0.00     0.277 HD
HETATM   10  H   UNL     1     -42.550  60.085 -52.325  1.00  0.00     0.277 HD
HETATM   11  C   UNL     1     -41.094  59.303 -53.554  1.00  0.00     0.233 C 
HETATM   12  C   UNL     1     -40.662  57.980 -52.959  1.00  0.00     0.043 C 
HETATM   13  C   UNL     1     -40.977  56.804 -53.881  1.00  0.00     0.109 C 
ENDBRANCH   1   4
BRANCH   1  14
HETATM   14  C   UNL     1     -41.683  53.662 -53.526  1.00  0.00     0.088 A 
HETATM   15  C   UNL     1     -40.893  52.788 -54.299  1.00  0.00     0.026 A 
HETATM   16  C   UNL     1     -39.922  51.994 -53.704  1.00  0.00     0.002 A 
HETATM   17  C   UNL     1     -39.714  52.078 -52.334  1.00  0.00     0.014 A 
HETATM   18  C   UNL     1     -40.493  52.932 -51.537  1.00  0.00    -0.004 A 
HETATM   19  C   UNL     1     -40.262  52.991 -50.158  1.00  0.00     0.128 A 
HETATM   20  C   UNL     1     -41.518  53.736 -52.104  1.00  0.00     0.038 A 
HETATM   21  N   UNL     1     -40.966  53.745 -49.290  1.00  0.00    -0.269 NA
HETATM   22  C   UNL     1     -41.961  54.478 -49.818  1.00  0.00     0.159 A 
HETATM   23  C   UNL     1     -42.272  54.493 -51.171  1.00  0.00     0.146 A 
HETATM   24  F   UNL     1     -43.382  55.148 -51.529  1.00  0.00    -0.204 F 
ENDBRANCH   1  14
TORSDOF 2
ENDMDL
MODEL 4
REMARK VINA RESULT:      -7.4      1.696      2.132
REMARK  2 active torsions:
REMARK  status: ('A' for Active; 'I' for Inactive)
REMARK    1  A    between atoms: N_10  and  S_11 
REMARK    2  A    between atoms: S_11  and  C_14 
ROOT
HETATM    1  S   UNL     1     -41.034  54.336 -54.379  1.00  0.00     0.245 S 
HETATM    2  O   UNL     1     -42.165  53.538 -54.810  1.00  0.00    -0.206 OA
HETATM    3  O   UNL     1     -39.862  54.426 -55.217  1.00  0.00    -0.206 OA
ENDROOT
BRANCH   1   4
HETATM    4  N   UNL     1     -41.648  55.962 -54.173  1.00  0.00    -0.201 NA
HETATM    5  C   UNL     1     -42.268  56.571 -55.442  1.00  0.00     0.096 C 
HETATM    6  C   UNL     1     -42.919  55.574 -56.405  1.00  0.00     0.029 C 
HETATM    7  C   UNL     1     -43.382  57.557 -55.013  1.00  0.00     0.252 C 
HETATM    8  N   UNL     1     -42.890  58.955 -54.755  1.00  0.00    -0.074 N 
HETATM    9  H   UNL     1     -42.880  59.467 -55.649  1.00  0.00     0.277 HD
HETATM   10  H   UNL     1     -43.614  59.427 -54.195  1.00  0.00     0.277 HD
HETATM   11  C   UNL     1     -41.574  59.168 -54.094  1.00  0.00     0.233 C 
HETATM   12  C   UNL     1     -41.299  58.157 -53.001  1.00  0.00     0.043 C 
HETATM   13  C   UNL     1     -40.653  56.885 -53.544  1.00  0.00     0.109 C 
ENDBRANCH   1   4
BRANCH   1  14
HETATM   14  C   UNL     1     -40.606  53.745 -52.740  1.00  0.00     0.088 A 
HETATM   15  C   UNL     1     -40.844  54.667 -51.701  1.00  0.00     0.026 A 
HETATM   16  C   UNL     1     -40.742  54.279 -50.371  1.00  0.00     0.002 A 
HETATM   17  C   UNL     1     -40.425  52.963 -50.064  1.00  0.00     0.014 A 
HETATM   18  C   UNL     1     -40.173  52.026 -51.079  1.00  0.00    -0.004 A 
HETATM   19  C   UNL     1     -39.850  50.708 -50.737  1.00  0.00     0.128 A 
HETATM   20  C   UNL     1     -40.234  52.392 -52.450  1.00  0.00     0.038 A 
HETATM   21  N   UNL     1     -39.555  49.732 -51.620  1.00  0.00    -0.269 NA
HETATM   22  C   UNL     1     -39.576  50.085 -52.917  1.00  0.00     0.159 A 
HETATM   23  C   UNL     1     -39.884  51.363 -53.362  1.00  0.00     0.146 A 
HETATM   24  F   UNL     1     -39.715  51.606 -54.667  1.00  0.00    -0.204 F 
ENDBRANCH   1  14
TORSDOF 2
ENDMDL
MODEL 5
REMARK VINA RESULT:      -7.3      2.739      4.046
REMARK  2 active torsions:
REMARK  status: ('A' for Active; 'I' for Inactive)
REMARK    1  A    between atoms: N_10  and  S_11 
REMARK    2  A    between atoms: S_11  and  C_14 
ROOT
HETATM    1  S   UNL     1     -42.366  56.690 -51.741  1.00  0.00     0.245 S 
HETATM    2  O   UNL     1     -41.260  57.126 -50.912  1.00  0.00    -0.206 OA
HETATM    3  O   UNL     1     -43.618  56.321 -51.124  1.00  0.00    -0.206 OA
ENDROOT
BRANCH   1   4
HETATM    4  N   UNL     1     -42.699  58.018 -52.831  1.00  0.00    -0.201 NA
HETATM    5  C   UNL     1     -41.590  59.080 -52.893  1.00  0.00     0.096 C 
HETATM    6  C   UNL     1     -40.168  58.570 -52.648  1.00  0.00     0.029 C 
HETATM    7  C   UNL     1     -41.594  59.705 -54.310  1.00  0.00     0.252 C 
HETATM    8  N   UNL     1     -42.528  60.875 -54.456  1.00  0.00    -0.074 N 
HETATM    9  H   UNL     1     -42.030  61.728 -54.160  1.00  0.00     0.277 HD
HETATM   10  H   UNL     1     -42.685  61.006 -55.466  1.00  0.00     0.277 HD
HETATM   11  C   UNL     1     -43.850  60.859 -53.775  1.00  0.00     0.233 C 
HETATM   12  C   UNL     1     -44.496  59.491 -53.787  1.00  0.00     0.043 C 
HETATM   13  C   UNL     1     -44.045  58.630 -52.609  1.00  0.00     0.109 C 
ENDBRANCH   1   4
BRANCH   1  14
HETATM   14  C   UNL     1     -41.731  55.351 -52.752  1.00  0.00     0.088 A 
HETATM   15  C   UNL     1     -41.680  55.628 -54.133  1.00  0.00     0.026 A 
HETATM   16  C   UNL     1     -41.035  54.763 -55.007  1.00  0.00     0.002 A 
HETATM   17  C   UNL     1     -40.416  53.624 -54.511  1.00  0.00     0.014 A 
HETATM   18  C   UNL     1     -40.459  53.318 -53.142  1.00  0.00    -0.004 A 
HETATM   19  C   UNL     1     -39.829  52.159 -52.673  1.00  0.00     0.128 A 
HETATM   20  C   UNL     1     -41.137  54.160 -52.220  1.00  0.00     0.038 A 
HETATM   21  N   UNL     1     -39.832  51.745 -51.390  1.00  0.00    -0.269 NA
HETATM   22  C   UNL     1     -40.505  52.520 -50.522  1.00  0.00     0.159 A 
HETATM   23  C   UNL     1     -41.162  53.688 -50.883  1.00  0.00     0.146 A 
HETATM   24  F   UNL     1     -41.915  54.272 -49.944  1.00  0.00    -0.204 F 
ENDBRANCH   1  14
TORSDOF 2
ENDMDL
MODEL 6
REMARK VINA RESULT:      -7.0      3.400      4.787
REMARK  2 active torsions:
REMARK  status: ('A' for Active; 'I' for Inactive)
REMARK    1  A    between atoms: N_10  and  S_11 
REMARK    2  A    between atoms: S_11  and  C_14 
ROOT
HETATM    1  S   UNL     1     -41.934  56.577 -53.894  1.00  0.00     0.245 S 
HETATM    2  O   UNL     1     -40.819  57.443 -53.569  1.00  0.00    -0.206 OA
HETATM    3  O   UNL     1     -43.209  56.782 -53.248  1.00  0.00    -0.206 OA
ENDROOT
BRANCH   1   4
HETATM    4  N   UNL     1     -42.194  56.757 -55.615  1.00  0.00    -0.201 NA
HETATM    5  C   UNL     1     -42.587  58.178 -56.052  1.00  0.00     0.096 C 
HETATM    6  C   UNL     1     -42.026  59.315 -55.193  1.00  0.00     0.029 C 
HETATM    7  C   UNL     1     -42.056  58.410 -57.488  1.00  0.00     0.252 C 
HETATM    8  N   UNL     1     -43.006  57.968 -58.566  1.00  0.00    -0.074 N 
HETATM    9  H   UNL     1     -43.660  58.741 -58.761  1.00  0.00     0.277 HD
HETATM   10  H   UNL     1     -42.453  57.875 -59.431  1.00  0.00     0.277 HD
HETATM   11  C   UNL     1     -43.808  56.728 -58.387  1.00  0.00     0.233 C 
HETATM   12  C   UNL     1     -43.033  55.627 -57.697  1.00  0.00     0.043 C 
HETATM   13  C   UNL     1     -43.122  55.727 -56.176  1.00  0.00     0.109 C 
ENDBRANCH   1   4
BRANCH   1  14
HETATM   14  C   UNL     1     -41.351  54.900 -53.642  1.00  0.00     0.088 A 
HETATM   15  C   UNL     1     -40.997  54.216 -54.822  1.00  0.00     0.026 A 
HETATM   16  C   UNL     1     -40.351  52.987 -54.765  1.00  0.00     0.002 A 
HETATM   17  C   UNL     1     -40.032  52.440 -53.530  1.00  0.00     0.014 A 
HETATM   18  C   UNL     1     -40.380  53.094 -52.338  1.00  0.00    -0.004 A 
HETATM   19  C   UNL     1     -40.049  52.514 -51.109  1.00  0.00     0.128 A 
HETATM   20  C   UNL     1     -41.071  54.335 -52.355  1.00  0.00     0.038 A 
HETATM   21  N   UNL     1     -40.360  53.030 -49.902  1.00  0.00    -0.269 NA
HETATM   22  C   UNL     1     -41.046  54.186 -49.916  1.00  0.00     0.159 A 
HETATM   23  C   UNL     1     -41.423  54.844 -51.078  1.00  0.00     0.146 A 
HETATM   24  F   UNL     1     -42.233  55.900 -50.939  1.00  0.00    -0.204 F 
ENDBRANCH   1  14
TORSDOF 2
ENDMDL
MODEL 7
REMARK VINA RESULT:      -6.6     13.720     15.672
REMARK  2 active torsions:
REMARK  status: ('A' for Active; 'I' for Inactive)
REMARK    1  A    between atoms: N_10  and  S_11 
REMARK    2  A    between atoms: S_11  and  C_14 
ROOT
HETATM    1  S   UNL     1     -36.047  41.927 -56.160  1.00  0.00     0.245 S 
HETATM    2  O   UNL     1     -35.112  42.676 -56.976  1.00  0.00    -0.206 OA
HETATM    3  O   UNL     1     -37.381  42.438 -55.952  1.00  0.00    -0.206 OA
ENDROOT
BRANCH   1   4
HETATM    4  N   UNL     1     -36.209  40.363 -56.930  1.00  0.00    -0.201 NA
HETATM    5  C   UNL     1     -37.033  40.378 -58.228  1.00  0.00     0.096 C 
HETATM    6  C   UNL     1     -36.975  41.677 -59.035  1.00  0.00     0.029 C 
HETATM    7  C   UNL     1     -36.497  39.260 -59.157  1.00  0.00     0.252 C 
HETATM    8  N   UNL     1     -37.141  37.921 -58.930  1.00  0.00    -0.074 N 
HETATM    9  H   UNL     1     -38.004  37.874 -59.492  1.00  0.00     0.277 HD
HETATM   10  H   UNL     1     -36.520  37.216 -59.353  1.00  0.00     0.277 HD
HETATM   11  C   UNL     1     -37.475  37.481 -57.548  1.00  0.00     0.233 C 
HETATM   12  C   UNL     1     -36.425  37.891 -56.537  1.00  0.00     0.043 C 
HETATM   13  C   UNL     1     -36.670  39.296 -55.990  1.00  0.00     0.109 C 
ENDBRANCH   1   4
BRANCH   1  14
HETATM   14  C   UNL     1     -35.220  41.638 -54.595  1.00  0.00     0.088 A 
HETATM   15  C   UNL     1     -35.950  42.043 -53.459  1.00  0.00     0.026 A 
HETATM   16  C   UNL     1     -35.520  41.706 -52.182  1.00  0.00     0.002 A 
HETATM   17  C   UNL     1     -34.371  40.944 -52.026  1.00  0.00     0.014 A 
HETATM   18  C   UNL     1     -33.619  40.535 -53.139  1.00  0.00    -0.004 A 
HETATM   19  C   UNL     1     -32.462  39.771 -52.947  1.00  0.00     0.128 A 
HETATM   20  C   UNL     1     -34.007  40.887 -54.459  1.00  0.00     0.038 A 
HETATM   21  N   UNL     1     -31.643  39.350 -53.933  1.00  0.00    -0.269 NA
HETATM   22  C   UNL     1     -31.988  39.714 -55.181  1.00  0.00     0.159 A 
HETATM   23  C   UNL     1     -33.114  40.469 -55.479  1.00  0.00     0.146 A 
HETATM   24  F   UNL     1     -33.246  40.884 -56.744  1.00  0.00    -0.204 F 
ENDBRANCH   1  14
TORSDOF 2
ENDMDL
MODEL 8
REMARK VINA RESULT:      -6.6      2.614      6.958
REMARK  2 active torsions:
REMARK  status: ('A' for Active; 'I' for Inactive)
REMARK    1  A    between atoms: N_10  and  S_11 
REMARK    2  A    between atoms: S_11  and  C_14 
ROOT
HETATM    1  S   UNL     1     -42.804  55.120 -51.927  1.00  0.00     0.245 S 
HETATM    2  O   UNL     1     -43.865  54.784 -52.855  1.00  0.00    -0.206 OA
HETATM    3  O   UNL     1     -43.022  54.969 -50.508  1.00  0.00    -0.206 OA
ENDROOT
BRANCH   1   4
HETATM    4  N   UNL     1     -41.452  54.093 -52.353  1.00  0.00    -0.201 NA
HETATM    5  C   UNL     1     -41.632  53.324 -53.672  1.00  0.00     0.096 C 
HETATM    6  C   UNL     1     -42.489  54.019 -54.734  1.00  0.00     0.029 C 
HETATM    7  C   UNL     1     -40.235  53.111 -54.306  1.00  0.00     0.252 C 
HETATM    8  N   UNL     1     -39.539  51.863 -53.837  1.00  0.00    -0.074 N 
HETATM    9  H   UNL     1     -39.847  51.077 -54.428  1.00  0.00     0.277 HD
HETATM   10  H   UNL     1     -38.539  51.978 -54.061  1.00  0.00     0.277 HD
HETATM   11  C   UNL     1     -39.654  51.437 -52.417  1.00  0.00     0.233 C 
HETATM   12  C   UNL     1     -39.638  52.605 -51.454  1.00  0.00     0.043 C 
HETATM   13  C   UNL     1     -41.031  53.191 -51.237  1.00  0.00     0.109 C 
ENDBRANCH   1   4
BRANCH   1  14
HETATM   14  C   UNL     1     -42.309  56.798 -52.324  1.00  0.00     0.088 A 
HETATM   15  C   UNL     1     -41.009  56.920 -52.854  1.00  0.00     0.026 A 
HETATM   16  C   UNL     1     -40.568  58.125 -53.383  1.00  0.00     0.002 A 
HETATM   17  C   UNL     1     -41.426  59.217 -53.409  1.00  0.00     0.014 A 
HETATM   18  C   UNL     1     -42.723  59.127 -52.879  1.00  0.00    -0.004 A 
HETATM   19  C   UNL     1     -43.562  60.246 -52.914  1.00  0.00     0.128 A 
HETATM   20  C   UNL     1     -43.199  57.921 -52.298  1.00  0.00     0.038 A 
HETATM   21  N   UNL     1     -44.811  60.291 -52.407  1.00  0.00    -0.269 NA
HETATM   22  C   UNL     1     -45.251  59.162 -51.824  1.00  0.00     0.159 A 
HETATM   23  C   UNL     1     -44.500  57.998 -51.736  1.00  0.00     0.146 A 
HETATM   24  F   UNL     1     -45.006  57.006 -50.996  1.00  0.00    -0.204 F 
ENDBRANCH   1  14
TORSDOF 2
ENDMDL
MODEL 9
REMARK VINA RESULT:      -6.5      3.032      4.031
REMARK  2 active torsions:
REMARK  status: ('A' for Active; 'I' for Inactive)
REMARK    1  A    between atoms: N_10  and  S_11 
REMARK    2  A    between atoms: S_11  and  C_14 
ROOT
HETATM    1  S   UNL     1     -41.673  57.858 -52.086  1.00  0.00     0.245 S 
HETATM    2  O   UNL     1     -40.399  58.402 -52.511  1.00  0.00    -0.206 OA
HETATM    3  O   UNL     1     -42.399  58.493 -51.012  1.00  0.00    -0.206 OA
ENDROOT
BRANCH   1   4
HETATM    4  N   UNL     1     -42.705  57.896 -53.499  1.00  0.00    -0.201 NA
HETATM    5  C   UNL     1     -43.133  59.307 -53.934  1.00  0.00     0.096 C 
HETATM    6  C   UNL     1     -42.133  60.426 -53.629  1.00  0.00     0.029 C 
HETATM    7  C   UNL     1     -43.332  59.304 -55.470  1.00  0.00     0.252 C 
HETATM    8  N   UNL     1     -44.717  58.905 -55.901  1.00  0.00    -0.074 N 
HETATM    9  H   UNL     1     -45.314  59.745 -55.899  1.00  0.00     0.277 HD
HETATM   10  H   UNL     1     -44.653  58.637 -56.895  1.00  0.00     0.277 HD
HETATM   11  C   UNL     1     -45.441  57.829 -55.172  1.00  0.00     0.233 C 
HETATM   12  C   UNL     1     -44.530  56.699 -54.744  1.00  0.00     0.043 C 
HETATM   13  C   UNL     1     -43.874  56.969 -53.392  1.00  0.00     0.109 C 
ENDBRANCH   1   4
BRANCH   1  14
HETATM   14  C   UNL     1     -41.377  56.127 -51.722  1.00  0.00     0.088 A 
HETATM   15  C   UNL     1     -41.710  55.735 -50.410  1.00  0.00     0.026 A 
HETATM   16  C   UNL     1     -41.715  54.394 -50.049  1.00  0.00     0.002 A 
HETATM   17  C   UNL     1     -41.410  53.428 -50.999  1.00  0.00     0.014 A 
HETATM   18  C   UNL     1     -41.066  53.790 -52.310  1.00  0.00    -0.004 A 
HETATM   19  C   UNL     1     -40.758  52.793 -53.243  1.00  0.00     0.128 A 
HETATM   20  C   UNL     1     -41.016  55.152 -52.709  1.00  0.00     0.038 A 
HETATM   21  N   UNL     1     -40.382  53.019 -54.518  1.00  0.00    -0.269 NA
HETATM   22  C   UNL     1     -40.298  54.309 -54.888  1.00  0.00     0.159 A 
HETATM   23  C   UNL     1     -40.581  55.372 -54.042  1.00  0.00     0.146 A 
HETATM   24  F   UNL     1     -40.307  56.599 -54.499  1.00  0.00    -0.204 F 
ENDBRANCH   1  14
TORSDOF 2
ENDMDL
MODEL 10
REMARK VINA RESULT:      -6.5      3.631      6.654
REMARK  2 active torsions:
REMARK  status: ('A' for Active; 'I' for Inactive)
REMARK    1  A    between atoms: N_10  and  S_11 
REMARK    2  A    between atoms: S_11  and  C_14 
ROOT
HETATM    1  S   UNL     1     -42.776  55.481 -54.666  1.00  0.00     0.245 S 
HETATM    2  O   UNL     1     -41.433  55.773 -55.127  1.00  0.00    -0.206 OA
HETATM    3  O   UNL     1     -43.379  54.208 -54.984  1.00  0.00    -0.206 OA
ENDROOT
BRANCH   1   4
HETATM    4  N   UNL     1     -42.720  55.603 -52.921  1.00  0.00    -0.201 NA
HETATM    5  C   UNL     1     -41.514  56.387 -52.379  1.00  0.00     0.096 C 
HETATM    6  C   UNL     1     -40.984  57.500 -53.287  1.00  0.00     0.029 C 
HETATM    7  C   UNL     1     -41.932  57.067 -51.051  1.00  0.00     0.252 C 
HETATM    8  N   UNL     1     -41.735  56.201 -49.837  1.00  0.00    -0.074 N 
HETATM    9  H   UNL     1     -40.765  56.318 -49.508  1.00  0.00     0.277 HD
HETATM   10  H   UNL     1     -42.312  56.605 -49.086  1.00  0.00     0.277 HD
HETATM   11  C   UNL     1     -42.017  54.742 -49.911  1.00  0.00     0.233 C 
HETATM   12  C   UNL     1     -43.229  54.425 -50.760  1.00  0.00     0.043 C 
HETATM   13  C   UNL     1     -42.875  54.281 -52.239  1.00  0.00     0.109 C 
ENDBRANCH   1   4
BRANCH   1  14
HETATM   14  C   UNL     1     -43.803  56.836 -55.235  1.00  0.00     0.088 A 
HETATM   15  C   UNL     1     -44.443  57.562 -54.211  1.00  0.00     0.026 A 
HETATM   16  C   UNL     1     -45.109  58.748 -54.491  1.00  0.00     0.002 A 
HETATM   17  C   UNL     1     -45.125  59.234 -55.791  1.00  0.00     0.014 A 
HETATM   18  C   UNL     1     -44.505  58.527 -56.833  1.00  0.00    -0.004 A 
HETATM   19  C   UNL     1     -44.543  59.040 -58.135  1.00  0.00     0.128 A 
HETATM   20  C   UNL     1     -43.842  57.293 -56.594  1.00  0.00     0.038 A 
HETATM   21  N   UNL     1     -44.015  58.436 -59.218  1.00  0.00    -0.269 NA
HETATM   22  C   UNL     1     -43.420  57.251 -59.000  1.00  0.00     0.159 A 
HETATM   23  C   UNL     1     -43.326  56.655 -57.750  1.00  0.00     0.146 A 
HETATM   24  F   UNL     1     -42.844  55.407 -57.710  1.00  0.00    -0.204 F 
ENDBRANCH   1  14
TORSDOF 2
ENDMDL
