MODEL 1
REMARK VINA RESULT:      -8.7      0.000      0.000
REMARK  4 active torsions:
REMARK  status: ('A' for Active; 'I' for Inactive)
REMARK       I    between atoms: C_2  and  N_3 
REMARK    1  A    between atoms: N_3  and  C_4 
REMARK    2  A    between atoms: C_10  and  C_11 
REMARK    3  A    between atoms: C_14  and  C_15 
REMARK    4  A    between atoms: C_22  and  N_23 
REMARK       I    between atoms: N_23  and  C_24 
ROOT
HETATM    1  C   UNL     1     -32.783  39.733 -49.760  1.00  0.00     0.010 A 
HETATM    2  C   UNL     1     -32.065  40.143 -50.893  1.00  0.00     0.016 A 
HETATM    3  C   UNL     1     -32.722  40.504 -52.073  1.00  0.00     0.017 A 
HETATM    4  C   UNL     1     -34.120  40.459 -52.157  1.00  0.00     0.017 A 
HETATM    5  C   UNL     1     -34.838  40.036 -51.029  1.00  0.00     0.017 A 
HETATM    6  C   UNL     1     -34.180  39.677 -49.844  1.00  0.00     0.016 A 
ENDROOT
BRANCH   1   7
HETATM    7  C   UNL     1     -32.043  39.381 -48.544  1.00  0.00     0.139 A 
HETATM    8  N   UNL     1     -32.475  38.482 -47.594  1.00  0.00    -0.338 N 
HETATM    9  C   UNL     1     -31.555  38.429 -46.580  1.00  0.00     0.063 A 
HETATM   10  H   UNL     1     -33.343  37.971 -47.625  1.00  0.00     0.167 HD
HETATM   11  C   UNL     1     -30.567  39.321 -46.971  1.00  0.00     0.088 A 
HETATM   12  C   UNL     1     -31.502  37.707 -45.389  1.00  0.00     0.034 A 
HETATM   13  C   UNL     1     -29.446  39.520 -46.147  1.00  0.00     0.063 A 
HETATM   14  N   UNL     1     -30.884  39.898 -48.174  1.00  0.00    -0.228 NA
HETATM   15  C   UNL     1     -29.353  38.813 -44.942  1.00  0.00     0.037 A 
HETATM   16  C   UNL     1     -30.377  37.921 -44.580  1.00  0.00     0.032 A 
BRANCH  15  17
HETATM   17  N   UNL     1     -28.271  38.939 -44.042  1.00  0.00    -0.327 N 
HETATM   18  C   UNL     1     -27.975  40.016 -43.226  1.00  0.00     0.218 C 
HETATM   19  C   UNL     1     -26.735  39.795 -42.395  1.00  0.00     0.117 C 
HETATM   20  O   UNL     1     -28.614  41.055 -43.116  1.00  0.00    -0.274 OA
HETATM   21  H   UNL     1     -27.649  38.143 -43.989  1.00  0.00     0.169 HD
ENDBRANCH  15  17
ENDBRANCH   1   7
BRANCH   4  22
HETATM   22  C   UNL     1     -34.831  40.837 -53.376  1.00  0.00     0.180 A 
HETATM   23  O   UNL     1     -36.153  40.467 -53.451  1.00  0.00    -0.289 OA
HETATM   24  C   UNL     1     -36.556  40.924 -54.668  1.00  0.00     0.107 A 
HETATM   25  C   UNL     1     -35.476  41.545 -55.269  1.00  0.00     0.095 A 
HETATM   26  C   UNL     1     -37.813  40.807 -55.238  1.00  0.00     0.042 A 
HETATM   27  N   UNL     1     -34.382  41.482 -54.441  1.00  0.00    -0.221 NA
HETATM   28  C   UNL     1     -35.639  42.106 -56.543  1.00  0.00     0.064 A 
HETATM   29  C   UNL     1     -36.898  42.017 -57.169  1.00  0.00     0.037 A 
HETATM   30  C   UNL     1     -37.960  41.373 -56.515  1.00  0.00     0.032 A 
BRANCH  29  31
HETATM   31  N   UNL     1     -37.009  42.600 -58.451  1.00  0.00    -0.327 N 
HETATM   32  C   UNL     1     -37.277  41.961 -59.648  1.00  0.00     0.218 C 
HETATM   33  C   UNL     1     -37.324  42.909 -60.823  1.00  0.00     0.117 C 
HETATM   34  O   UNL     1     -37.453  40.761 -59.818  1.00  0.00    -0.274 OA
HETATM   35  H   UNL     1     -36.868  43.602 -58.491  1.00  0.00     0.169 HD
ENDBRANCH  29  31
ENDBRANCH   4  22
TORSDOF 4
ENDMDL
MODEL 2
REMARK VINA RESULT:      -8.5      1.874     12.666
REMARK  4 active torsions:
REMARK  status: ('A' for Active; 'I' for Inactive)
REMARK       I    between atoms: C_2  and  N_3 
REMARK    1  A    between atoms: N_3  and  C_4 
REMARK    2  A    between atoms: C_10  and  C_11 
REMARK    3  A    between atoms: C_14  and  C_15 
REMARK    4  A    between atoms: C_22  and  N_23 
REMARK       I    between atoms: N_23  and  C_24 
ROOT
HETATM    1  C   UNL     1     -33.660  40.216 -52.420  1.00  0.00     0.010 A 
HETATM    2  C   UNL     1     -32.273  40.370 -52.285  1.00  0.00     0.016 A 
HETATM    3  C   UNL     1     -31.638  40.162 -51.056  1.00  0.00     0.017 A 
HETATM    4  C   UNL     1     -32.376  39.801 -49.922  1.00  0.00     0.017 A 
HETATM    5  C   UNL     1     -33.765  39.661 -50.052  1.00  0.00     0.017 A 
HETATM    6  C   UNL     1     -34.402  39.865 -51.286  1.00  0.00     0.016 A 
ENDROOT
BRANCH   1   7
HETATM    7  C   UNL     1     -34.270  40.430 -53.736  1.00  0.00     0.139 A 
HETATM    8  N   UNL     1     -34.203  41.606 -54.450  1.00  0.00    -0.338 N 
HETATM    9  C   UNL     1     -34.915  41.462 -55.613  1.00  0.00     0.063 A 
HETATM   10  H   UNL     1     -33.735  42.447 -54.151  1.00  0.00     0.167 HD
HETATM   11  C   UNL     1     -35.395  40.161 -55.558  1.00  0.00     0.088 A 
HETATM   12  C   UNL     1     -35.180  42.328 -56.672  1.00  0.00     0.034 A 
HETATM   13  C   UNL     1     -36.182  39.666 -56.612  1.00  0.00     0.063 A 
HETATM   14  N   UNL     1     -34.992  39.545 -54.400  1.00  0.00    -0.228 NA
HETATM   15  C   UNL     1     -36.470  40.504 -57.696  1.00  0.00     0.037 A 
HETATM   16  C   UNL     1     -35.969  41.817 -57.712  1.00  0.00     0.032 A 
BRANCH  15  17
HETATM   17  N   UNL     1     -37.251  40.107 -58.805  1.00  0.00    -0.327 N 
HETATM   18  C   UNL     1     -36.853  39.337 -59.883  1.00  0.00     0.218 C 
HETATM   19  C   UNL     1     -37.962  39.115 -60.883  1.00  0.00     0.117 C 
HETATM   20  O   UNL     1     -35.750  38.834 -60.063  1.00  0.00    -0.274 OA
HETATM   21  H   UNL     1     -38.213  40.422 -58.801  1.00  0.00     0.169 HD
ENDBRANCH  15  17
ENDBRANCH   1   7
BRANCH   4  22
HETATM   22  C   UNL     1     -31.738  39.573 -48.627  1.00  0.00     0.180 A 
HETATM   23  O   UNL     1     -31.763  38.284 -48.153  1.00  0.00    -0.289 OA
HETATM   24  C   UNL     1     -31.123  38.360 -46.954  1.00  0.00     0.107 A 
HETATM   25  C   UNL     1     -30.743  39.675 -46.757  1.00  0.00     0.095 A 
HETATM   26  C   UNL     1     -30.880  37.328 -46.062  1.00  0.00     0.042 A 
HETATM   27  N   UNL     1     -31.140  40.440 -47.826  1.00  0.00    -0.221 NA
HETATM   28  C   UNL     1     -30.059  40.014 -45.581  1.00  0.00     0.064 A 
HETATM   29  C   UNL     1     -29.784  39.003 -44.639  1.00  0.00     0.037 A 
HETATM   30  C   UNL     1     -30.195  37.684 -44.889  1.00  0.00     0.032 A 
BRANCH  29  31
HETATM   31  N   UNL     1     -29.091  39.397 -43.473  1.00  0.00    -0.327 N 
HETATM   32  C   UNL     1     -27.744  39.685 -43.349  1.00  0.00     0.218 C 
HETATM   33  C   UNL     1     -27.352  40.077 -41.944  1.00  0.00     0.117 C 
HETATM   34  O   UNL     1     -26.897  39.635 -44.233  1.00  0.00    -0.274 OA
HETATM   35  H   UNL     1     -29.651  39.470 -42.633  1.00  0.00     0.169 HD
ENDBRANCH  29  31
ENDBRANCH   4  22
TORSDOF 4
ENDMDL
MODEL 3
REMARK VINA RESULT:      -7.5     21.213     23.380
REMARK  4 active torsions:
REMARK  status: ('A' for Active; 'I' for Inactive)
REMARK       I    between atoms: C_2  and  N_3 
REMARK    1  A    between atoms: N_3  and  C_4 
REMARK    2  A    between atoms: C_10  and  C_11 
REMARK    3  A    between atoms: C_14  and  C_15 
REMARK    4  A    between atoms: C_22  and  N_23 
REMARK       I    between atoms: N_23  and  C_24 
ROOT
HETATM    1  C   UNL     1     -44.729  61.087 -50.413  1.00  0.00     0.010 A 
HETATM    2  C   UNL     1     -43.526  60.441 -50.731  1.00  0.00     0.016 A 
HETATM    3  C   UNL     1     -43.379  59.734 -51.929  1.00  0.00     0.017 A 
HETATM    4  C   UNL     1     -44.436  59.647 -52.843  1.00  0.00     0.017 A 
HETATM    5  C   UNL     1     -45.645  60.280 -52.520  1.00  0.00     0.017 A 
HETATM    6  C   UNL     1     -45.792  60.992 -51.320  1.00  0.00     0.016 A 
ENDROOT
BRANCH   1   7
HETATM    7  C   UNL     1     -44.823  61.826 -49.150  1.00  0.00     0.139 A 
HETATM    8  N   UNL     1     -44.723  63.195 -49.033  1.00  0.00    -0.338 N 
HETATM    9  C   UNL     1     -44.817  63.535 -47.708  1.00  0.00     0.063 A 
HETATM   10  H   UNL     1     -44.572  63.838 -49.794  1.00  0.00     0.167 HD
HETATM   11  C   UNL     1     -44.982  62.322 -47.056  1.00  0.00     0.088 A 
HETATM   12  C   UNL     1     -44.769  64.758 -47.042  1.00  0.00     0.034 A 
HETATM   13  C   UNL     1     -45.116  62.298 -45.657  1.00  0.00     0.063 A 
HETATM   14  N   UNL     1     -44.980  61.286 -47.955  1.00  0.00    -0.228 NA
HETATM   15  C   UNL     1     -45.073  63.505 -44.950  1.00  0.00     0.037 A 
HETATM   16  C   UNL     1     -44.900  64.713 -45.647  1.00  0.00     0.032 A 
BRANCH  15  17
HETATM   17  N   UNL     1     -45.196  63.593 -43.545  1.00  0.00    -0.327 N 
HETATM   18  C   UNL     1     -44.247  63.265 -42.594  1.00  0.00     0.218 C 
HETATM   19  C   UNL     1     -44.733  63.489 -41.182  1.00  0.00     0.117 C 
HETATM   20  O   UNL     1     -43.110  62.856 -42.797  1.00  0.00    -0.274 OA
HETATM   21  H   UNL     1     -46.082  63.943 -43.202  1.00  0.00     0.169 HD
ENDBRANCH  15  17
ENDBRANCH   1   7
BRANCH   4  22
HETATM   22  C   UNL     1     -44.307  58.920 -54.104  1.00  0.00     0.180 A 
HETATM   23  O   UNL     1     -43.231  58.072 -54.212  1.00  0.00    -0.289 OA
HETATM   24  C   UNL     1     -43.348  57.547 -55.463  1.00  0.00     0.107 A 
HETATM   25  C   UNL     1     -44.476  58.093 -56.049  1.00  0.00     0.095 A 
HETATM   26  C   UNL     1     -42.508  56.631 -56.074  1.00  0.00     0.042 A 
HETATM   27  N   UNL     1     -45.078  58.967 -55.178  1.00  0.00    -0.221 NA
HETATM   28  C   UNL     1     -44.816  57.706 -57.353  1.00  0.00     0.064 A 
HETATM   29  C   UNL     1     -43.997  56.776 -58.022  1.00  0.00     0.037 A 
HETATM   30  C   UNL     1     -42.862  56.255 -57.380  1.00  0.00     0.032 A 
BRANCH  29  31
HETATM   31  N   UNL     1     -44.386  56.419 -59.332  1.00  0.00    -0.327 N 
HETATM   32  C   UNL     1     -44.624  55.149 -59.826  1.00  0.00     0.218 C 
HETATM   33  C   UNL     1     -45.026  55.147 -61.281  1.00  0.00     0.117 C 
HETATM   34  O   UNL     1     -44.525  54.092 -59.213  1.00  0.00    -0.274 OA
HETATM   35  H   UNL     1     -44.495  57.187 -59.982  1.00  0.00     0.169 HD
ENDBRANCH  29  31
ENDBRANCH   4  22
TORSDOF 4
ENDMDL
MODEL 4
REMARK VINA RESULT:      -7.3     22.908     24.388
REMARK  4 active torsions:
REMARK  status: ('A' for Active; 'I' for Inactive)
REMARK       I    between atoms: C_2  and  N_3 
REMARK    1  A    between atoms: N_3  and  C_4 
REMARK    2  A    between atoms: C_10  and  C_11 
REMARK    3  A    between atoms: C_14  and  C_15 
REMARK    4  A    between atoms: C_22  and  N_23 
REMARK       I    between atoms: N_23  and  C_24 
ROOT
HETATM    1  C   UNL     1     -45.041  61.702 -47.863  1.00  0.00     0.010 A 
HETATM    2  C   UNL     1     -44.407  62.411 -48.893  1.00  0.00     0.016 A 
HETATM    3  C   UNL     1     -44.346  61.898 -50.193  1.00  0.00     0.017 A 
HETATM    4  C   UNL     1     -44.912  60.654 -50.499  1.00  0.00     0.017 A 
HETATM    5  C   UNL     1     -45.534  59.937 -49.467  1.00  0.00     0.017 A 
HETATM    6  C   UNL     1     -45.599  60.452 -48.164  1.00  0.00     0.016 A 
ENDROOT
BRANCH   1   7
HETATM    7  C   UNL     1     -45.089  62.294 -46.523  1.00  0.00     0.139 A 
HETATM    8  N   UNL     1     -45.737  63.467 -46.205  1.00  0.00    -0.338 N 
HETATM    9  C   UNL     1     -45.542  63.737 -44.876  1.00  0.00     0.063 A 
HETATM   10  H   UNL     1     -46.245  64.048 -46.853  1.00  0.00     0.167 HD
HETATM   11  C   UNL     1     -44.763  62.681 -44.425  1.00  0.00     0.088 A 
HETATM   12  C   UNL     1     -45.959  64.782 -44.054  1.00  0.00     0.034 A 
HETATM   13  C   UNL     1     -44.368  62.636 -43.077  1.00  0.00     0.063 A 
HETATM   14  N   UNL     1     -44.493  61.809 -45.448  1.00  0.00    -0.228 NA
HETATM   15  C   UNL     1     -44.766  63.667 -42.217  1.00  0.00     0.037 A 
HETATM   16  C   UNL     1     -45.551  64.721 -42.714  1.00  0.00     0.032 A 
BRANCH  15  17
HETATM   17  N   UNL     1     -44.423  63.719 -40.847  1.00  0.00    -0.327 N 
HETATM   18  C   UNL     1     -45.262  63.543 -39.762  1.00  0.00     0.218 C 
HETATM   19  C   UNL     1     -44.543  63.669 -38.441  1.00  0.00     0.117 C 
HETATM   20  O   UNL     1     -46.460  63.285 -39.790  1.00  0.00    -0.274 OA
HETATM   21  H   UNL     1     -43.449  63.900 -40.644  1.00  0.00     0.169 HD
ENDBRANCH  15  17
ENDBRANCH   1   7
BRANCH   4  22
HETATM   22  C   UNL     1     -44.867  60.098 -51.850  1.00  0.00     0.180 A 
HETATM   23  O   UNL     1     -45.313  60.915 -52.862  1.00  0.00    -0.289 OA
HETATM   24  C   UNL     1     -45.174  60.157 -53.984  1.00  0.00     0.107 A 
HETATM   25  C   UNL     1     -44.655  58.931 -53.608  1.00  0.00     0.095 A 
HETATM   26  C   UNL     1     -45.486  60.514 -55.285  1.00  0.00     0.042 A 
HETATM   27  N   UNL     1     -44.466  58.902 -52.248  1.00  0.00    -0.221 NA
HETATM   28  C   UNL     1     -44.417  57.965 -54.595  1.00  0.00     0.064 A 
HETATM   29  C   UNL     1     -44.716  58.275 -55.937  1.00  0.00     0.037 A 
HETATM   30  C   UNL     1     -45.243  59.535 -56.262  1.00  0.00     0.032 A 
BRANCH  29  31
HETATM   31  N   UNL     1     -44.455  57.267 -56.891  1.00  0.00    -0.327 N 
HETATM   32  C   UNL     1     -43.278  57.044 -57.583  1.00  0.00     0.218 C 
HETATM   33  C   UNL     1     -43.363  55.869 -58.527  1.00  0.00     0.117 C 
HETATM   34  O   UNL     1     -42.244  57.696 -57.503  1.00  0.00    -0.274 OA
HETATM   35  H   UNL     1     -45.226  56.643 -57.092  1.00  0.00     0.169 HD
ENDBRANCH  29  31
ENDBRANCH   4  22
TORSDOF 4
ENDMDL
MODEL 5
REMARK VINA RESULT:      -7.1     26.037     29.857
REMARK  4 active torsions:
REMARK  status: ('A' for Active; 'I' for Inactive)
REMARK       I    between atoms: C_2  and  N_3 
REMARK    1  A    between atoms: N_3  and  C_4 
REMARK    2  A    between atoms: C_10  and  C_11 
REMARK    3  A    between atoms: C_14  and  C_15 
REMARK    4  A    between atoms: C_22  and  N_23 
REMARK       I    between atoms: N_23  and  C_24 
ROOT
HETATM    1  C   UNL     1     -47.834  63.625 -49.422  1.00  0.00     0.010 A 
HETATM    2  C   UNL     1     -46.933  62.628 -49.024  1.00  0.00     0.016 A 
HETATM    3  C   UNL     1     -46.318  62.668 -47.768  1.00  0.00     0.017 A 
HETATM    4  C   UNL     1     -46.581  63.714 -46.875  1.00  0.00     0.017 A 
HETATM    5  C   UNL     1     -47.471  64.720 -47.277  1.00  0.00     0.017 A 
HETATM    6  C   UNL     1     -48.092  64.678 -48.535  1.00  0.00     0.016 A 
ENDROOT
BRANCH   1   7
HETATM    7  C   UNL     1     -48.462  63.524 -50.743  1.00  0.00     0.139 A 
HETATM    8  N   UNL     1     -49.682  64.071 -51.076  1.00  0.00    -0.338 N 
HETATM    9  C   UNL     1     -49.973  63.748 -52.377  1.00  0.00     0.063 A 
HETATM   10  H   UNL     1     -50.278  64.594 -50.455  1.00  0.00     0.167 HD
HETATM   11  C   UNL     1     -48.881  63.001 -52.794  1.00  0.00     0.088 A 
HETATM   12  C   UNL     1     -51.063  64.030 -53.198  1.00  0.00     0.034 A 
HETATM   13  C   UNL     1     -48.845  62.498 -54.106  1.00  0.00     0.063 A 
HETATM   14  N   UNL     1     -47.967  62.871 -51.779  1.00  0.00    -0.228 NA
HETATM   15  C   UNL     1     -49.920  62.758 -54.964  1.00  0.00     0.037 A 
HETATM   16  C   UNL     1     -51.009  63.516 -54.501  1.00  0.00     0.032 A 
BRANCH  15  17
HETATM   17  N   UNL     1     -49.985  62.300 -56.299  1.00  0.00    -0.327 N 
HETATM   18  C   UNL     1     -50.624  61.167 -56.770  1.00  0.00     0.218 C 
HETATM   19  C   UNL     1     -50.479  60.994 -58.263  1.00  0.00     0.117 C 
HETATM   20  O   UNL     1     -51.274  60.361 -56.116  1.00  0.00    -0.274 OA
HETATM   21  H   UNL     1     -49.512  62.874 -56.984  1.00  0.00     0.169 HD
ENDBRANCH  15  17
ENDBRANCH   1   7
BRANCH   4  22
HETATM   22  C   UNL     1     -45.956  63.777 -45.556  1.00  0.00     0.180 A 
HETATM   23  O   UNL     1     -44.908  62.916 -45.334  1.00  0.00    -0.289 OA
HETATM   24  C   UNL     1     -44.533  63.175 -44.052  1.00  0.00     0.107 A 
HETATM   25  C   UNL     1     -45.358  64.169 -43.559  1.00  0.00     0.095 A 
HETATM   26  C   UNL     1     -43.513  62.571 -43.335  1.00  0.00     0.042 A 
HETATM   27  N   UNL     1     -46.263  64.544 -44.522  1.00  0.00    -0.221 NA
HETATM   28  C   UNL     1     -45.169  64.617 -42.244  1.00  0.00     0.064 A 
HETATM   29  C   UNL     1     -44.146  64.037 -41.469  1.00  0.00     0.037 A 
HETATM   30  C   UNL     1     -43.338  63.029 -42.019  1.00  0.00     0.032 A 
BRANCH  29  31
HETATM   31  N   UNL     1     -43.996  64.526 -40.152  1.00  0.00    -0.327 N 
HETATM   32  C   UNL     1     -44.517  63.990 -38.989  1.00  0.00     0.218 C 
HETATM   33  C   UNL     1     -44.148  64.782 -37.758  1.00  0.00     0.117 C 
HETATM   34  O   UNL     1     -45.222  62.992 -38.890  1.00  0.00    -0.274 OA
HETATM   35  H   UNL     1     -43.447  65.372 -40.058  1.00  0.00     0.169 HD
ENDBRANCH  29  31
ENDBRANCH   4  22
TORSDOF 4
ENDMDL
MODEL 6
REMARK VINA RESULT:      -7.0     17.262     21.047
REMARK  4 active torsions:
REMARK  status: ('A' for Active; 'I' for Inactive)
REMARK       I    between atoms: C_2  and  N_3 
REMARK    1  A    between atoms: N_3  and  C_4 
REMARK    2  A    between atoms: C_10  and  C_11 
REMARK    3  A    between atoms: C_14  and  C_15 
REMARK    4  A    between atoms: C_22  and  N_23 
REMARK       I    between atoms: N_23  and  C_24 
ROOT
HETATM    1  C   UNL     1     -43.081  56.179 -56.300  1.00  0.00     0.010 A 
HETATM    2  C   UNL     1     -43.905  57.267 -55.976  1.00  0.00     0.016 A 
HETATM    3  C   UNL     1     -44.612  57.959 -56.965  1.00  0.00     0.017 A 
HETATM    4  C   UNL     1     -44.509  57.587 -58.311  1.00  0.00     0.017 A 
HETATM    5  C   UNL     1     -43.674  56.508 -58.638  1.00  0.00     0.017 A 
HETATM    6  C   UNL     1     -42.968  55.811 -57.647  1.00  0.00     0.016 A 
ENDROOT
BRANCH   1   7
HETATM    7  C   UNL     1     -42.376  55.481 -55.221  1.00  0.00     0.139 A 
HETATM    8  N   UNL     1     -41.785  54.243 -55.342  1.00  0.00    -0.338 N 
HETATM    9  C   UNL     1     -41.255  53.882 -54.130  1.00  0.00     0.063 A 
HETATM   10  H   UNL     1     -41.773  53.679 -56.178  1.00  0.00     0.167 HD
HETATM   11  C   UNL     1     -41.550  54.952 -53.298  1.00  0.00     0.088 A 
HETATM   12  C   UNL     1     -40.570  52.747 -53.699  1.00  0.00     0.034 A 
HETATM   13  C   UNL     1     -41.144  54.918 -51.954  1.00  0.00     0.063 A 
HETATM   14  N   UNL     1     -42.240  55.921 -53.983  1.00  0.00    -0.228 NA
HETATM   15  C   UNL     1     -40.453  53.797 -51.480  1.00  0.00     0.037 A 
HETATM   16  C   UNL     1     -40.177  52.732 -52.353  1.00  0.00     0.032 A 
BRANCH  15  17
HETATM   17  N   UNL     1     -40.001  53.662 -50.148  1.00  0.00    -0.327 N 
HETATM   18  C   UNL     1     -40.684  53.987 -48.990  1.00  0.00     0.218 C 
HETATM   19  C   UNL     1     -39.883  53.705 -47.741  1.00  0.00     0.117 C 
HETATM   20  O   UNL     1     -41.821  54.435 -48.905  1.00  0.00    -0.274 OA
HETATM   21  H   UNL     1     -39.073  53.275 -50.036  1.00  0.00     0.169 HD
ENDBRANCH  15  17
ENDBRANCH   1   7
BRANCH   4  22
HETATM   22  C   UNL     1     -45.241  58.289 -59.363  1.00  0.00     0.180 A 
HETATM   23  O   UNL     1     -44.540  59.240 -60.064  1.00  0.00    -0.289 OA
HETATM   24  C   UNL     1     -45.446  59.732 -60.952  1.00  0.00     0.107 A 
HETATM   25  C   UNL     1     -46.641  59.065 -60.754  1.00  0.00     0.095 A 
HETATM   26  C   UNL     1     -45.246  60.724 -61.898  1.00  0.00     0.042 A 
HETATM   27  N   UNL     1     -46.502  58.151 -59.739  1.00  0.00    -0.221 NA
HETATM   28  C   UNL     1     -47.743  59.395 -61.555  1.00  0.00     0.064 A 
HETATM   29  C   UNL     1     -47.595  60.396 -62.535  1.00  0.00     0.037 A 
HETATM   30  C   UNL     1     -46.359  61.043 -62.692  1.00  0.00     0.032 A 
BRANCH  29  31
HETATM   31  N   UNL     1     -48.734  60.689 -63.317  1.00  0.00    -0.327 N 
HETATM   32  C   UNL     1     -49.774  61.546 -63.007  1.00  0.00     0.218 C 
HETATM   33  C   UNL     1     -50.826  61.612 -64.087  1.00  0.00     0.117 C 
HETATM   34  O   UNL     1     -49.904  62.202 -61.980  1.00  0.00    -0.274 OA
HETATM   35  H   UNL     1     -48.792  60.205 -64.205  1.00  0.00     0.169 HD
ENDBRANCH  29  31
ENDBRANCH   4  22
TORSDOF 4
ENDMDL
MODEL 7
REMARK VINA RESULT:      -6.9     23.608     24.810
REMARK  4 active torsions:
REMARK  status: ('A' for Active; 'I' for Inactive)
REMARK       I    between atoms: C_2  and  N_3 
REMARK    1  A    between atoms: N_3  and  C_4 
REMARK    2  A    between atoms: C_10  and  C_11 
REMARK    3  A    between atoms: C_14  and  C_15 
REMARK    4  A    between atoms: C_22  and  N_23 
REMARK       I    between atoms: N_23  and  C_24 
ROOT
HETATM    1  C   UNL     1     -45.106  62.157 -46.741  1.00  0.00     0.010 A 
HETATM    2  C   UNL     1     -45.529  60.838 -46.957  1.00  0.00     0.016 A 
HETATM    3  C   UNL     1     -45.535  60.281 -48.240  1.00  0.00     0.017 A 
HETATM    4  C   UNL     1     -45.125  61.032 -49.348  1.00  0.00     0.017 A 
HETATM    5  C   UNL     1     -44.715  62.356 -49.136  1.00  0.00     0.017 A 
HETATM    6  C   UNL     1     -44.705  62.915 -47.849  1.00  0.00     0.016 A 
ENDROOT
BRANCH   1   7
HETATM    7  C   UNL     1     -45.105  62.685 -45.373  1.00  0.00     0.139 A 
HETATM    8  N   UNL     1     -46.026  63.580 -44.876  1.00  0.00    -0.338 N 
HETATM    9  C   UNL     1     -45.698  63.883 -43.580  1.00  0.00     0.063 A 
HETATM   10  H   UNL     1     -46.797  63.974 -45.393  1.00  0.00     0.167 HD
HETATM   11  C   UNL     1     -44.559  63.130 -43.333  1.00  0.00     0.088 A 
HETATM   12  C   UNL     1     -46.275  64.726 -42.632  1.00  0.00     0.034 A 
HETATM   13  C   UNL     1     -43.942  63.198 -42.073  1.00  0.00     0.063 A 
HETATM   14  N   UNL     1     -44.209  62.405 -44.444  1.00  0.00    -0.228 NA
HETATM   15  C   UNL     1     -44.490  64.033 -41.092  1.00  0.00     0.037 A 
HETATM   16  C   UNL     1     -45.642  64.782 -41.382  1.00  0.00     0.032 A 
BRANCH  15  17
HETATM   17  N   UNL     1     -43.949  64.175 -39.794  1.00  0.00    -0.327 N 
HETATM   18  C   UNL     1     -44.444  63.653 -38.613  1.00  0.00     0.218 C 
HETATM   19  C   UNL     1     -43.599  64.014 -37.415  1.00  0.00     0.117 C 
HETATM   20  O   UNL     1     -45.437  62.948 -38.478  1.00  0.00    -0.274 OA
HETATM   21  H   UNL     1     -43.097  64.718 -39.730  1.00  0.00     0.169 HD
ENDBRANCH  15  17
ENDBRANCH   1   7
BRANCH   4  22
HETATM   22  C   UNL     1     -45.116  60.472 -50.698  1.00  0.00     0.180 A 
HETATM   23  O   UNL     1     -44.703  59.167 -50.816  1.00  0.00    -0.289 OA
HETATM   24  C   UNL     1     -44.780  58.915 -52.151  1.00  0.00     0.107 A 
HETATM   25  C   UNL     1     -45.233  60.062 -52.775  1.00  0.00     0.095 A 
HETATM   26  C   UNL     1     -44.469  57.733 -52.804  1.00  0.00     0.042 A 
HETATM   27  N   UNL     1     -45.441  61.049 -51.844  1.00  0.00    -0.221 NA
HETATM   28  C   UNL     1     -45.399  60.056 -54.168  1.00  0.00     0.064 A 
HETATM   29  C   UNL     1     -45.098  58.880 -54.882  1.00  0.00     0.037 A 
HETATM   30  C   UNL     1     -44.640  57.743 -54.198  1.00  0.00     0.032 A 
BRANCH  29  31
HETATM   31  N   UNL     1     -45.285  58.926 -56.282  1.00  0.00    -0.327 N 
HETATM   32  C   UNL     1     -44.359  59.280 -57.246  1.00  0.00     0.218 C 
HETATM   33  C   UNL     1     -44.914  59.211 -58.649  1.00  0.00     0.117 C 
HETATM   34  O   UNL     1     -43.202  59.636 -57.058  1.00  0.00    -0.274 OA
HETATM   35  H   UNL     1     -46.210  58.674 -56.609  1.00  0.00     0.169 HD
ENDBRANCH  29  31
ENDBRANCH   4  22
TORSDOF 4
ENDMDL
MODEL 8
REMARK VINA RESULT:      -6.9     21.635     25.878
REMARK  4 active torsions:
REMARK  status: ('A' for Active; 'I' for Inactive)
REMARK       I    between atoms: C_2  and  N_3 
REMARK    1  A    between atoms: N_3  and  C_4 
REMARK    2  A    between atoms: C_10  and  C_11 
REMARK    3  A    between atoms: C_14  and  C_15 
REMARK    4  A    between atoms: C_22  and  N_23 
REMARK       I    between atoms: N_23  and  C_24 
ROOT
HETATM    1  C   UNL     1     -44.324  60.109 -52.409  1.00  0.00     0.010 A 
HETATM    2  C   UNL     1     -43.230  60.135 -51.533  1.00  0.00     0.016 A 
HETATM    3  C   UNL     1     -43.336  60.707 -50.261  1.00  0.00     0.017 A 
HETATM    4  C   UNL     1     -44.540  61.277 -49.830  1.00  0.00     0.017 A 
HETATM    5  C   UNL     1     -45.632  61.264 -50.711  1.00  0.00     0.017 A 
HETATM    6  C   UNL     1     -45.527  60.687 -51.986  1.00  0.00     0.016 A 
ENDROOT
BRANCH   1   7
HETATM    7  C   UNL     1     -44.161  59.482 -53.725  1.00  0.00     0.139 A 
HETATM    8  N   UNL     1     -42.956  59.315 -54.371  1.00  0.00    -0.338 N 
HETATM    9  C   UNL     1     -43.183  58.731 -55.591  1.00  0.00     0.063 A 
HETATM   10  H   UNL     1     -42.058  59.604 -54.018  1.00  0.00     0.167 HD
HETATM   11  C   UNL     1     -44.559  58.557 -55.634  1.00  0.00     0.088 A 
HETATM   12  C   UNL     1     -42.334  58.357 -56.631  1.00  0.00     0.034 A 
HETATM   13  C   UNL     1     -45.149  57.972 -56.767  1.00  0.00     0.063 A 
HETATM   14  N   UNL     1     -45.142  59.026 -54.484  1.00  0.00    -0.228 NA
HETATM   15  C   UNL     1     -44.332  57.581 -57.834  1.00  0.00     0.037 A 
HETATM   16  C   UNL     1     -42.943  57.778 -57.753  1.00  0.00     0.032 A 
BRANCH  15  17
HETATM   17  N   UNL     1     -44.822  56.985 -59.018  1.00  0.00    -0.327 N 
HETATM   18  C   UNL     1     -44.630  55.685 -59.448  1.00  0.00     0.218 C 
HETATM   19  C   UNL     1     -45.306  55.400 -60.767  1.00  0.00     0.117 C 
HETATM   20  O   UNL     1     -44.014  54.799 -58.867  1.00  0.00    -0.274 OA
HETATM   21  H   UNL     1     -45.383  57.583 -59.611  1.00  0.00     0.169 HD
ENDBRANCH  15  17
ENDBRANCH   1   7
BRANCH   4  22
HETATM   22  C   UNL     1     -44.680  61.876 -48.505  1.00  0.00     0.180 A 
HETATM   23  O   UNL     1     -44.777  63.246 -48.461  1.00  0.00    -0.289 OA
HETATM   24  C   UNL     1     -44.882  63.528 -47.133  1.00  0.00     0.107 A 
HETATM   25  C   UNL     1     -44.847  62.332 -46.440  1.00  0.00     0.095 A 
HETATM   26  C   UNL     1     -45.004  64.776 -46.544  1.00  0.00     0.042 A 
HETATM   27  N   UNL     1     -44.715  61.286 -47.321  1.00  0.00    -0.221 NA
HETATM   28  C   UNL     1     -44.941  62.355 -45.042  1.00  0.00     0.064 A 
HETATM   29  C   UNL     1     -45.067  63.598 -44.390  1.00  0.00     0.037 A 
HETATM   30  C   UNL     1     -45.096  64.783 -45.143  1.00  0.00     0.032 A 
BRANCH  29  31
HETATM   31  N   UNL     1     -45.161  63.566 -42.981  1.00  0.00    -0.327 N 
HETATM   32  C   UNL     1     -44.127  63.626 -42.065  1.00  0.00     0.218 C 
HETATM   33  C   UNL     1     -44.604  63.568 -40.633  1.00  0.00     0.117 C 
HETATM   34  O   UNL     1     -42.929  63.703 -42.312  1.00  0.00    -0.274 OA
HETATM   35  H   UNL     1     -46.098  63.483 -42.606  1.00  0.00     0.169 HD
ENDBRANCH  29  31
ENDBRANCH   4  22
TORSDOF 4
ENDMDL
MODEL 9
REMARK VINA RESULT:      -6.9     22.131     24.250
REMARK  4 active torsions:
REMARK  status: ('A' for Active; 'I' for Inactive)
REMARK       I    between atoms: C_2  and  N_3 
REMARK    1  A    between atoms: N_3  and  C_4 
REMARK    2  A    between atoms: C_10  and  C_11 
REMARK    3  A    between atoms: C_14  and  C_15 
REMARK    4  A    between atoms: C_22  and  N_23 
REMARK       I    between atoms: N_23  and  C_24 
ROOT
HETATM    1  C   UNL     1     -45.703  61.508 -49.914  1.00  0.00     0.010 A 
HETATM    2  C   UNL     1     -45.579  60.119 -50.063  1.00  0.00     0.016 A 
HETATM    3  C   UNL     1     -45.429  59.537 -51.326  1.00  0.00     0.017 A 
HETATM    4  C   UNL     1     -45.408  60.329 -52.481  1.00  0.00     0.017 A 
HETATM    5  C   UNL     1     -45.547  61.717 -52.335  1.00  0.00     0.017 A 
HETATM    6  C   UNL     1     -45.693  62.302 -51.068  1.00  0.00     0.016 A 
ENDROOT
BRANCH   1   7
HETATM    7  C   UNL     1     -45.841  62.065 -48.565  1.00  0.00     0.139 A 
HETATM    8  N   UNL     1     -46.961  62.715 -48.095  1.00  0.00    -0.338 N 
HETATM    9  C   UNL     1     -46.725  63.134 -46.811  1.00  0.00     0.063 A 
HETATM   10  H   UNL     1     -47.804  62.883 -48.621  1.00  0.00     0.167 HD
HETATM   11  C   UNL     1     -45.434  62.703 -46.544  1.00  0.00     0.088 A 
HETATM   12  C   UNL     1     -47.500  63.836 -45.890  1.00  0.00     0.034 A 
HETATM   13  C   UNL     1     -44.859  62.968 -45.290  1.00  0.00     0.063 A 
HETATM   14  N   UNL     1     -44.907  62.053 -47.631  1.00  0.00    -0.228 NA
HETATM   15  C   UNL     1     -45.604  63.670 -44.335  1.00  0.00     0.037 A 
HETATM   16  C   UNL     1     -46.908  64.093 -44.646  1.00  0.00     0.032 A 
BRANCH  15  17
HETATM   17  N   UNL     1     -45.122  63.989 -43.046  1.00  0.00    -0.327 N 
HETATM   18  C   UNL     1     -44.068  63.400 -42.371  1.00  0.00     0.218 C 
HETATM   19  C   UNL     1     -43.838  64.002 -41.006  1.00  0.00     0.117 C 
HETATM   20  O   UNL     1     -43.339  62.503 -42.780  1.00  0.00    -0.274 OA
HETATM   21  H   UNL     1     -45.604  64.740 -42.569  1.00  0.00     0.169 HD
ENDBRANCH  15  17
ENDBRANCH   1   7
BRANCH   4  22
HETATM   22  C   UNL     1     -45.247  59.748 -53.812  1.00  0.00     0.180 A 
HETATM   23  O   UNL     1     -45.439  60.596 -54.876  1.00  0.00    -0.289 OA
HETATM   24  C   UNL     1     -45.243  59.807 -55.968  1.00  0.00     0.107 A 
HETATM   25  C   UNL     1     -44.944  58.532 -55.523  1.00  0.00     0.095 A 
HETATM   26  C   UNL     1     -45.323  60.178 -57.300  1.00  0.00     0.042 A 
HETATM   27  N   UNL     1     -44.952  58.503 -54.150  1.00  0.00    -0.221 NA
HETATM   28  C   UNL     1     -44.697  57.525 -56.467  1.00  0.00     0.064 A 
HETATM   29  C   UNL     1     -44.764  57.847 -57.837  1.00  0.00     0.037 A 
HETATM   30  C   UNL     1     -45.074  59.158 -58.233  1.00  0.00     0.032 A 
BRANCH  29  31
HETATM   31  N   UNL     1     -44.504  56.798 -58.746  1.00  0.00    -0.327 N 
HETATM   32  C   UNL     1     -45.393  56.201 -59.622  1.00  0.00     0.218 C 
HETATM   33  C   UNL     1     -44.760  55.106 -60.448  1.00  0.00     0.117 C 
HETATM   34  O   UNL     1     -46.581  56.467 -59.759  1.00  0.00    -0.274 OA
HETATM   35  H   UNL     1     -43.556  56.442 -58.746  1.00  0.00     0.169 HD
ENDBRANCH  29  31
ENDBRANCH   4  22
TORSDOF 4
ENDMDL
MODEL 10
REMARK VINA RESULT:      -6.8     17.267     24.338
REMARK  4 active torsions:
REMARK  status: ('A' for Active; 'I' for Inactive)
REMARK       I    between atoms: C_2  and  N_3 
REMARK    1  A    between atoms: N_3  and  C_4 
REMARK    2  A    between atoms: C_10  and  C_11 
REMARK    3  A    between atoms: C_14  and  C_15 
REMARK    4  A    between atoms: C_22  and  N_23 
REMARK       I    between atoms: N_23  and  C_24 
ROOT
HETATM    1  C   UNL     1     -44.579  57.553 -58.187  1.00  0.00     0.010 A 
HETATM    2  C   UNL     1     -44.884  57.911 -56.867  1.00  0.00     0.016 A 
HETATM    3  C   UNL     1     -44.217  57.326 -55.786  1.00  0.00     0.017 A 
HETATM    4  C   UNL     1     -43.228  56.357 -55.995  1.00  0.00     0.017 A 
HETATM    5  C   UNL     1     -42.931  55.987 -57.315  1.00  0.00     0.017 A 
HETATM    6  C   UNL     1     -43.597  56.577 -58.400  1.00  0.00     0.016 A 
ENDROOT
BRANCH   1   7
HETATM    7  C   UNL     1     -45.298  58.211 -59.283  1.00  0.00     0.139 A 
HETATM    8  N   UNL     1     -44.810  59.265 -60.022  1.00  0.00    -0.338 N 
HETATM    9  C   UNL     1     -45.762  59.650 -60.930  1.00  0.00     0.063 A 
HETATM   10  H   UNL     1     -43.912  59.704 -59.892  1.00  0.00     0.167 HD
HETATM   11  C   UNL     1     -46.820  58.782 -60.703  1.00  0.00     0.088 A 
HETATM   12  C   UNL     1     -45.793  60.653 -61.897  1.00  0.00     0.034 A 
HETATM   13  C   UNL     1     -47.988  58.894 -61.476  1.00  0.00     0.063 A 
HETATM   14  N   UNL     1     -46.519  57.909 -59.688  1.00  0.00    -0.228 NA
HETATM   15  C   UNL     1     -48.061  59.888 -62.458  1.00  0.00     0.037 A 
HETATM   16  C   UNL     1     -46.969  60.750 -62.655  1.00  0.00     0.032 A 
BRANCH  15  17
HETATM   17  N   UNL     1     -49.187  60.087 -63.289  1.00  0.00    -0.327 N 
HETATM   18  C   UNL     1     -50.413  60.617 -62.932  1.00  0.00     0.218 C 
HETATM   19  C   UNL     1     -51.382  60.678 -64.088  1.00  0.00     0.117 C 
HETATM   20  O   UNL     1     -50.742  61.036 -61.828  1.00  0.00    -0.274 OA
HETATM   21  H   UNL     1     -49.074  59.813 -64.256  1.00  0.00     0.169 HD
ENDBRANCH  15  17
ENDBRANCH   1   7
BRANCH   4  22
HETATM   22  C   UNL     1     -42.512  55.734 -54.884  1.00  0.00     0.180 A 
HETATM   23  O   UNL     1     -42.012  54.474 -55.110  1.00  0.00    -0.289 OA
HETATM   24  C   UNL     1     -41.417  54.138 -53.932  1.00  0.00     0.107 A 
HETATM   25  C   UNL     1     -41.580  55.195 -53.056  1.00  0.00     0.095 A 
HETATM   26  C   UNL     1     -40.760  52.957 -53.628  1.00  0.00     0.042 A 
HETATM   27  N   UNL     1     -42.280  56.205 -53.669  1.00  0.00    -0.221 NA
HETATM   28  C   UNL     1     -41.049  55.092 -51.763  1.00  0.00     0.064 A 
HETATM   29  C   UNL     1     -40.369  53.913 -51.400  1.00  0.00     0.037 A 
HETATM   30  C   UNL     1     -40.235  52.869 -52.328  1.00  0.00     0.032 A 
BRANCH  29  31
HETATM   31  N   UNL     1     -39.852  53.861 -50.086  1.00  0.00    -0.327 N 
HETATM   32  C   UNL     1     -40.542  54.034 -48.900  1.00  0.00     0.218 C 
HETATM   33  C   UNL     1     -39.659  53.907 -47.681  1.00  0.00     0.117 C 
HETATM   34  O   UNL     1     -41.735  54.282 -48.773  1.00  0.00    -0.274 OA
HETATM   35  H   UNL     1     -38.858  53.682 -50.013  1.00  0.00     0.169 HD
ENDBRANCH  29  31
ENDBRANCH   4  22
TORSDOF 4
ENDMDL
