MODEL 1
REMARK VINA RESULT:      -8.3      0.000      0.000
REMARK  7 active torsions:
REMARK  status: ('A' for Active; 'I' for Inactive)
REMARK    1  A    between atoms: O_2  and  C_3 
REMARK    2  A    between atoms: C_4  and  O_5 
REMARK    3  A    between atoms: C_9  and  C_10 
REMARK    4  A    between atoms: C_11  and  C_12 
REMARK       I    between atoms: C_12  and  N_13 
REMARK    5  A    between atoms: N_13  and  C_14 
REMARK    6  A    between atoms: C_14  and  C_15 
REMARK    7  A    between atoms: C_15  and  C_16 
ROOT
HETATM    1  C   UNL     1     -42.138  59.189 -55.505  1.00  0.00     0.040 C 
HETATM    2  C   UNL     1     -42.348  58.120 -56.301  1.00  0.00     0.113 C 
HETATM    3  C   UNL     1     -42.252  58.279 -57.713  1.00  0.00     0.105 C 
HETATM    4  N   UNL     1     -42.214  58.399 -58.866  1.00  0.00    -0.191 NA
ENDROOT
BRANCH   2   5
HETATM    5  C   UNL     1     -42.661  56.758 -55.771  1.00  0.00     0.262 C 
HETATM    6  N   UNL     1     -41.648  55.830 -55.905  1.00  0.00    -0.356 N 
HETATM    7  H   UNL     1     -40.722  56.117 -56.200  1.00  0.00     0.162 HD
HETATM    8  O   UNL     1     -43.747  56.487 -55.273  1.00  0.00    -0.267 OA
BRANCH   6   9
HETATM    9  C   UNL     1     -41.805  54.481 -55.383  1.00  0.00     0.127 C 
BRANCH   9  10
HETATM   10  C   UNL     1     -40.456  53.812 -55.118  1.00  0.00     0.060 C 
BRANCH  10  11
HETATM   11  C   UNL     1     -40.334  53.310 -53.715  1.00  0.00    -0.029 A 
HETATM   12  C   UNL     1     -40.053  51.966 -53.305  1.00  0.00    -0.002 A 
HETATM   13  C   UNL     1     -40.022  51.955 -51.910  1.00  0.00     0.042 A 
HETATM   14  C   UNL     1     -39.819  50.758 -53.991  1.00  0.00     0.014 A 
HETATM   15  C   UNL     1     -39.768  50.796 -51.166  1.00  0.00     0.030 A 
HETATM   16  N   UNL     1     -40.278  53.238 -51.487  1.00  0.00    -0.365 N 
HETATM   17  C   UNL     1     -39.537  49.611 -51.871  1.00  0.00     0.002 A 
HETATM   18  C   UNL     1     -39.563  49.589 -53.263  1.00  0.00     0.001 A 
HETATM   19  H   UNL     1     -40.318  53.524 -50.519  1.00  0.00     0.165 HD
HETATM   20  C   UNL     1     -40.468  54.062 -52.564  1.00  0.00     0.096 A 
ENDBRANCH  10  11
ENDBRANCH   9  10
ENDBRANCH   6   9
ENDBRANCH   2   5
BRANCH   1  21
HETATM   21  C   UNL     1     -42.214  59.280 -54.036  1.00  0.00    -0.030 A 
HETATM   22  C   UNL     1     -41.023  59.210 -53.300  1.00  0.00     0.033 A 
HETATM   23  C   UNL     1     -41.038  59.343 -51.909  1.00  0.00     0.047 A 
HETATM   24  C   UNL     1     -42.248  59.541 -51.248  1.00  0.00     0.116 A 
HETATM   25 BR   UNL     1     -39.396  59.247 -50.969  1.00  0.00    -0.048 Br
HETATM   26  C   UNL     1     -43.448  59.604 -51.966  1.00  0.00     0.103 A 
HETATM   27  C   UNL     1     -43.422  59.509 -53.360  1.00  0.00     0.051 A 
BRANCH  24  28
HETATM   28  O   UNL     1     -42.287  59.669 -49.883  1.00  0.00    -0.357 OA
HETATM   29  H   UNL     1     -41.963  60.572 -49.698  1.00  0.00     0.218 HD
ENDBRANCH  24  28
BRANCH  26  30
HETATM   30  O   UNL     1     -44.579  59.791 -51.208  1.00  0.00    -0.353 OA
HETATM   31  C   UNL     1     -45.394  58.633 -51.036  1.00  0.00     0.210 C 
ENDBRANCH  26  30
ENDBRANCH   1  21
TORSDOF 7
ENDMDL
MODEL 2
REMARK VINA RESULT:      -8.3      2.595      4.713
REMARK  7 active torsions:
REMARK  status: ('A' for Active; 'I' for Inactive)
REMARK    1  A    between atoms: O_2  and  C_3 
REMARK    2  A    between atoms: C_4  and  O_5 
REMARK    3  A    between atoms: C_9  and  C_10 
REMARK    4  A    between atoms: C_11  and  C_12 
REMARK       I    between atoms: C_12  and  N_13 
REMARK    5  A    between atoms: N_13  and  C_14 
REMARK    6  A    between atoms: C_14  and  C_15 
REMARK    7  A    between atoms: C_15  and  C_16 
ROOT
HETATM    1  C   UNL     1     -44.870  58.522 -53.399  1.00  0.00     0.040 C 
HETATM    2  C   UNL     1     -44.460  58.443 -52.116  1.00  0.00     0.113 C 
HETATM    3  C   UNL     1     -45.365  58.799 -51.076  1.00  0.00     0.105 C 
HETATM    4  N   UNL     1     -46.077  59.120 -50.219  1.00  0.00    -0.191 NA
ENDROOT
BRANCH   2   5
HETATM    5  C   UNL     1     -43.094  57.976 -51.724  1.00  0.00     0.262 C 
HETATM    6  N   UNL     1     -42.945  56.607 -51.639  1.00  0.00    -0.356 N 
HETATM    7  H   UNL     1     -43.675  55.987 -51.972  1.00  0.00     0.162 HD
HETATM    8  O   UNL     1     -42.184  58.759 -51.479  1.00  0.00    -0.267 OA
BRANCH   6   9
HETATM    9  C   UNL     1     -41.653  56.020 -51.318  1.00  0.00     0.127 C 
BRANCH   9  10
HETATM   10  C   UNL     1     -41.160  55.086 -52.423  1.00  0.00     0.060 C 
BRANCH  10  11
HETATM   11  C   UNL     1     -40.668  53.780 -51.890  1.00  0.00    -0.029 A 
HETATM   12  C   UNL     1     -40.381  52.596 -52.644  1.00  0.00    -0.002 A 
HETATM   13  C   UNL     1     -39.941  51.625 -51.745  1.00  0.00     0.042 A 
HETATM   14  C   UNL     1     -40.453  52.261 -54.012  1.00  0.00     0.014 A 
HETATM   15  C   UNL     1     -39.568  50.336 -52.143  1.00  0.00     0.030 A 
HETATM   16  N   UNL     1     -39.962  52.192 -50.492  1.00  0.00    -0.365 N 
HETATM   17  C   UNL     1     -39.646  50.030 -53.505  1.00  0.00     0.002 A 
HETATM   18  C   UNL     1     -40.084  50.977 -54.427  1.00  0.00     0.001 A 
HETATM   19  H   UNL     1     -39.693  51.714 -49.644  1.00  0.00     0.165 HD
HETATM   20  C   UNL     1     -40.398  53.487 -50.567  1.00  0.00     0.096 A 
ENDBRANCH  10  11
ENDBRANCH   9  10
ENDBRANCH   6   9
ENDBRANCH   2   5
BRANCH   1  21
HETATM   21  C   UNL     1     -44.114  58.243 -54.632  1.00  0.00    -0.030 A 
HETATM   22  C   UNL     1     -43.538  59.320 -55.321  1.00  0.00     0.033 A 
HETATM   23  C   UNL     1     -42.769  59.101 -56.467  1.00  0.00     0.047 A 
HETATM   24  C   UNL     1     -42.576  57.802 -56.932  1.00  0.00     0.116 A 
HETATM   25 BR   UNL     1     -42.010  60.595 -57.352  1.00  0.00    -0.048 Br
HETATM   26  C   UNL     1     -43.151  56.716 -56.261  1.00  0.00     0.103 A 
HETATM   27  C   UNL     1     -43.887  56.937 -55.095  1.00  0.00     0.051 A 
BRANCH  24  28
HETATM   28  O   UNL     1     -41.829  57.564 -58.056  1.00  0.00    -0.357 OA
HETATM   29  H   UNL     1     -41.347  58.396 -58.229  1.00  0.00     0.218 HD
ENDBRANCH  24  28
BRANCH  26  30
HETATM   30  O   UNL     1     -42.904  55.483 -56.817  1.00  0.00    -0.353 OA
HETATM   31  C   UNL     1     -42.922  54.389 -55.903  1.00  0.00     0.210 C 
ENDBRANCH  26  30
ENDBRANCH   1  21
TORSDOF 7
ENDMDL
MODEL 3
REMARK VINA RESULT:      -8.2      2.868      4.740
REMARK  7 active torsions:
REMARK  status: ('A' for Active; 'I' for Inactive)
REMARK    1  A    between atoms: O_2  and  C_3 
REMARK    2  A    between atoms: C_4  and  O_5 
REMARK    3  A    between atoms: C_9  and  C_10 
REMARK    4  A    between atoms: C_11  and  C_12 
REMARK       I    between atoms: C_12  and  N_13 
REMARK    5  A    between atoms: N_13  and  C_14 
REMARK    6  A    between atoms: C_14  and  C_15 
REMARK    7  A    between atoms: C_15  and  C_16 
ROOT
HETATM    1  C   UNL     1     -44.656  58.612 -53.461  1.00  0.00     0.040 C 
HETATM    2  C   UNL     1     -44.326  58.389 -52.172  1.00  0.00     0.113 C 
HETATM    3  C   UNL     1     -45.304  58.602 -51.160  1.00  0.00     0.105 C 
HETATM    4  N   UNL     1     -46.078  58.806 -50.320  1.00  0.00    -0.191 NA
ENDROOT
BRANCH   2   5
HETATM    5  C   UNL     1     -42.976  57.905 -51.749  1.00  0.00     0.262 C 
HETATM    6  N   UNL     1     -42.786  56.542 -51.844  1.00  0.00    -0.356 N 
HETATM    7  H   UNL     1     -43.468  55.958 -52.314  1.00  0.00     0.162 HD
HETATM    8  O   UNL     1     -42.113  58.667 -51.330  1.00  0.00    -0.267 OA
BRANCH   6   9
HETATM    9  C   UNL     1     -41.500  55.947 -51.513  1.00  0.00     0.127 C 
BRANCH   9  10
HETATM   10  C   UNL     1     -41.037  54.956 -52.581  1.00  0.00     0.060 C 
BRANCH  10  11
HETATM   11  C   UNL     1     -40.598  53.652 -51.997  1.00  0.00    -0.029 A 
HETATM   12  C   UNL     1     -40.312  52.443 -52.711  1.00  0.00    -0.002 A 
HETATM   13  C   UNL     1     -39.930  51.485 -51.772  1.00  0.00     0.042 A 
HETATM   14  C   UNL     1     -40.341  52.076 -54.072  1.00  0.00     0.014 A 
HETATM   15  C   UNL     1     -39.574  50.177 -52.124  1.00  0.00     0.030 A 
HETATM   16  N   UNL     1     -39.985  52.083 -50.536  1.00  0.00    -0.365 N 
HETATM   17  C   UNL     1     -39.609  49.839 -53.480  1.00  0.00     0.002 A 
HETATM   18  C   UNL     1     -39.988  50.772 -54.442  1.00  0.00     0.001 A 
HETATM   19  H   UNL     1     -39.759  51.621 -49.666  1.00  0.00     0.165 HD
HETATM   20  C   UNL     1     -40.385  53.387 -50.658  1.00  0.00     0.096 A 
ENDBRANCH  10  11
ENDBRANCH   9  10
ENDBRANCH   6   9
ENDBRANCH   2   5
BRANCH   1  21
HETATM   21  C   UNL     1     -43.816  58.496 -54.667  1.00  0.00    -0.030 A 
HETATM   22  C   UNL     1     -43.842  57.292 -55.385  1.00  0.00     0.033 A 
HETATM   23  C   UNL     1     -43.103  57.151 -56.563  1.00  0.00     0.047 A 
HETATM   24  C   UNL     1     -42.330  58.214 -57.024  1.00  0.00     0.116 A 
HETATM   25 BR   UNL     1     -43.183  55.504 -57.495  1.00  0.00    -0.048 Br
HETATM   26  C   UNL     1     -42.285  59.420 -56.314  1.00  0.00     0.103 A 
HETATM   27  C   UNL     1     -43.056  59.569 -55.159  1.00  0.00     0.051 A 
BRANCH  24  28
HETATM   28  O   UNL     1     -41.593  58.097 -58.175  1.00  0.00    -0.357 OA
HETATM   29  H   UNL     1     -41.275  57.173 -58.186  1.00  0.00     0.218 HD
ENDBRANCH  24  28
BRANCH  26  30
HETATM   30  O   UNL     1     -41.480  60.393 -56.857  1.00  0.00    -0.353 OA
HETATM   31  C   UNL     1     -42.168  61.503 -57.429  1.00  0.00     0.210 C 
ENDBRANCH  26  30
ENDBRANCH   1  21
TORSDOF 7
ENDMDL
MODEL 4
REMARK VINA RESULT:      -8.1      1.243      2.330
REMARK  7 active torsions:
REMARK  status: ('A' for Active; 'I' for Inactive)
REMARK    1  A    between atoms: O_2  and  C_3 
REMARK    2  A    between atoms: C_4  and  O_5 
REMARK    3  A    between atoms: C_9  and  C_10 
REMARK    4  A    between atoms: C_11  and  C_12 
REMARK       I    between atoms: C_12  and  N_13 
REMARK    5  A    between atoms: N_13  and  C_14 
REMARK    6  A    between atoms: C_14  and  C_15 
REMARK    7  A    between atoms: C_15  and  C_16 
ROOT
HETATM    1  C   UNL     1     -42.232  58.732 -55.386  1.00  0.00     0.040 C 
HETATM    2  C   UNL     1     -42.431  57.583 -56.066  1.00  0.00     0.113 C 
HETATM    3  C   UNL     1     -42.416  57.609 -57.489  1.00  0.00     0.105 C 
HETATM    4  N   UNL     1     -42.444  57.620 -58.649  1.00  0.00    -0.191 NA
ENDROOT
BRANCH   2   5
HETATM    5  C   UNL     1     -42.649  56.266 -55.393  1.00  0.00     0.262 C 
HETATM    6  N   UNL     1     -41.642  55.340 -55.578  1.00  0.00    -0.356 N 
HETATM    7  H   UNL     1     -40.766  55.611 -56.008  1.00  0.00     0.162 HD
HETATM    8  O   UNL     1     -43.659  56.026 -54.743  1.00  0.00    -0.267 OA
BRANCH   6   9
HETATM    9  C   UNL     1     -41.706  54.036 -54.935  1.00  0.00     0.127 C 
BRANCH   9  10
HETATM   10  C   UNL     1     -40.329  53.559 -54.474  1.00  0.00     0.060 C 
BRANCH  10  11
HETATM   11  C   UNL     1     -40.303  53.207 -53.022  1.00  0.00    -0.029 A 
HETATM   12  C   UNL     1     -40.705  54.041 -51.929  1.00  0.00    -0.002 A 
HETATM   13  C   UNL     1     -40.523  53.307 -50.756  1.00  0.00     0.042 A 
HETATM   14  C   UNL     1     -41.210  55.353 -51.827  1.00  0.00     0.014 A 
HETATM   15  C   UNL     1     -40.820  53.817 -49.487  1.00  0.00     0.030 A 
HETATM   16  N   UNL     1     -40.025  52.077 -51.120  1.00  0.00    -0.365 N 
HETATM   17  C   UNL     1     -41.322  55.120 -49.414  1.00  0.00     0.002 A 
HETATM   18  C   UNL     1     -41.514  55.879 -50.566  1.00  0.00     0.001 A 
HETATM   19  H   UNL     1     -39.796  51.338 -50.471  1.00  0.00     0.165 HD
HETATM   20  C   UNL     1     -39.889  52.006 -52.480  1.00  0.00     0.096 A 
ENDBRANCH  10  11
ENDBRANCH   9  10
ENDBRANCH   6   9
ENDBRANCH   2   5
BRANCH   1  21
HETATM   21  C   UNL     1     -42.235  58.959 -53.930  1.00  0.00    -0.030 A 
HETATM   22  C   UNL     1     -41.008  58.963 -53.252  1.00  0.00     0.033 A 
HETATM   23  C   UNL     1     -40.956  59.226 -51.880  1.00  0.00     0.047 A 
HETATM   24  C   UNL     1     -42.133  59.481 -51.180  1.00  0.00     0.116 A 
HETATM   25 BR   UNL     1     -39.269  59.224 -51.018  1.00  0.00    -0.048 Br
HETATM   26  C   UNL     1     -43.367  59.473 -51.840  1.00  0.00     0.103 A 
HETATM   27  C   UNL     1     -43.411  59.248 -53.218  1.00  0.00     0.051 A 
BRANCH  24  28
HETATM   28  O   UNL     1     -42.105  59.737 -49.833  1.00  0.00    -0.357 OA
HETATM   29  H   UNL     1     -41.196  60.040 -49.645  1.00  0.00     0.218 HD
ENDBRANCH  24  28
BRANCH  26  30
HETATM   30  O   UNL     1     -44.461  59.725 -51.047  1.00  0.00    -0.353 OA
HETATM   31  C   UNL     1     -45.422  58.674 -50.980  1.00  0.00     0.210 C 
ENDBRANCH  26  30
ENDBRANCH   1  21
TORSDOF 7
ENDMDL
MODEL 5
REMARK VINA RESULT:      -8.0      2.226      2.666
REMARK  7 active torsions:
REMARK  status: ('A' for Active; 'I' for Inactive)
REMARK    1  A    between atoms: O_2  and  C_3 
REMARK    2  A    between atoms: C_4  and  O_5 
REMARK    3  A    between atoms: C_9  and  C_10 
REMARK    4  A    between atoms: C_11  and  C_12 
REMARK       I    between atoms: C_12  and  N_13 
REMARK    5  A    between atoms: N_13  and  C_14 
REMARK    6  A    between atoms: C_14  and  C_15 
REMARK    7  A    between atoms: C_15  and  C_16 
ROOT
HETATM    1  C   UNL     1     -44.119  58.047 -54.257  1.00  0.00     0.040 C 
HETATM    2  C   UNL     1     -44.033  57.514 -55.494  1.00  0.00     0.113 C 
HETATM    3  C   UNL     1     -44.840  58.050 -56.537  1.00  0.00     0.105 C 
HETATM    4  N   UNL     1     -45.517  58.451 -57.389  1.00  0.00    -0.191 NA
ENDROOT
BRANCH   2   5
HETATM    5  C   UNL     1     -43.108  56.389 -55.833  1.00  0.00     0.262 C 
HETATM    6  N   UNL     1     -43.368  55.201 -55.182  1.00  0.00    -0.356 N 
HETATM    7  H   UNL     1     -44.218  55.084 -54.642  1.00  0.00     0.162 HD
HETATM    8  O   UNL     1     -42.178  56.526 -56.619  1.00  0.00    -0.267 OA
BRANCH   6   9
HETATM    9  C   UNL     1     -42.575  54.013 -55.462  1.00  0.00     0.127 C 
BRANCH   9  10
HETATM   10  C   UNL     1     -41.094  54.230 -55.155  1.00  0.00     0.060 C 
BRANCH  10  11
HETATM   11  C   UNL     1     -40.682  53.607 -53.860  1.00  0.00    -0.029 A 
HETATM   12  C   UNL     1     -40.327  52.237 -53.641  1.00  0.00    -0.002 A 
HETATM   13  C   UNL     1     -40.004  52.101 -52.290  1.00  0.00     0.042 A 
HETATM   14  C   UNL     1     -40.247  51.097 -54.467  1.00  0.00     0.014 A 
HETATM   15  C   UNL     1     -39.605  50.884 -51.724  1.00  0.00     0.030 A 
HETATM   16  N   UNL     1     -40.160  53.337 -51.709  1.00  0.00    -0.365 N 
HETATM   17  C   UNL     1     -39.532  49.771 -52.565  1.00  0.00     0.002 A 
HETATM   18  C   UNL     1     -39.849  49.873 -53.917  1.00  0.00     0.001 A 
HETATM   19  H   UNL     1     -39.995  53.535 -50.732  1.00  0.00     0.165 HD
HETATM   20  C   UNL     1     -40.568  54.251 -52.643  1.00  0.00     0.096 A 
ENDBRANCH  10  11
ENDBRANCH   9  10
ENDBRANCH   6   9
ENDBRANCH   2   5
BRANCH   1  21
HETATM   21  C   UNL     1     -43.419  57.646 -53.024  1.00  0.00    -0.030 A 
HETATM   22  C   UNL     1     -43.918  56.556 -52.297  1.00  0.00     0.033 A 
HETATM   23  C   UNL     1     -43.259  56.106 -51.150  1.00  0.00     0.047 A 
HETATM   24  C   UNL     1     -42.099  56.748 -50.722  1.00  0.00     0.116 A 
HETATM   25 BR   UNL     1     -43.976  54.624 -50.212  1.00  0.00    -0.048 Br
HETATM   26  C   UNL     1     -41.592  57.844 -51.431  1.00  0.00     0.103 A 
HETATM   27  C   UNL     1     -42.233  58.266 -52.598  1.00  0.00     0.051 A 
BRANCH  24  28
HETATM   28  O   UNL     1     -41.439  56.326 -49.597  1.00  0.00    -0.357 OA
HETATM   29  H   UNL     1     -40.780  57.022 -49.406  1.00  0.00     0.218 HD
ENDBRANCH  24  28
BRANCH  26  30
HETATM   30  O   UNL     1     -40.452  58.405 -50.910  1.00  0.00    -0.353 OA
HETATM   31  C   UNL     1     -40.616  59.704 -50.344  1.00  0.00     0.210 C 
ENDBRANCH  26  30
ENDBRANCH   1  21
TORSDOF 7
ENDMDL
MODEL 6
REMARK VINA RESULT:      -7.9      1.422      2.086
REMARK  7 active torsions:
REMARK  status: ('A' for Active; 'I' for Inactive)
REMARK    1  A    between atoms: O_2  and  C_3 
REMARK    2  A    between atoms: C_4  and  O_5 
REMARK    3  A    between atoms: C_9  and  C_10 
REMARK    4  A    between atoms: C_11  and  C_12 
REMARK       I    between atoms: C_12  and  N_13 
REMARK    5  A    between atoms: N_13  and  C_14 
REMARK    6  A    between atoms: C_14  and  C_15 
REMARK    7  A    between atoms: C_15  and  C_16 
ROOT
HETATM    1  C   UNL     1     -42.461  59.092 -55.604  1.00  0.00     0.040 C 
HETATM    2  C   UNL     1     -42.492  57.920 -56.272  1.00  0.00     0.113 C 
HETATM    3  C   UNL     1     -42.328  57.924 -57.686  1.00  0.00     0.105 C 
HETATM    4  N   UNL     1     -42.234  57.913 -58.843  1.00  0.00    -0.191 NA
ENDROOT
BRANCH   2   5
HETATM    5  C   UNL     1     -42.672  56.600 -55.593  1.00  0.00     0.262 C 
HETATM    6  N   UNL     1     -41.700  55.661 -55.870  1.00  0.00    -0.356 N 
HETATM    7  H   UNL     1     -40.859  55.923 -56.372  1.00  0.00     0.162 HD
HETATM    8  O   UNL     1     -43.627  56.370 -54.861  1.00  0.00    -0.267 OA
BRANCH   6   9
HETATM    9  C   UNL     1     -41.729  54.353 -55.233  1.00  0.00     0.127 C 
BRANCH   9  10
HETATM   10  C   UNL     1     -40.324  53.846 -54.907  1.00  0.00     0.060 C 
BRANCH  10  11
HETATM   11  C   UNL     1     -40.235  53.255 -53.537  1.00  0.00    -0.029 A 
HETATM   12  C   UNL     1     -39.965  51.887 -53.208  1.00  0.00    -0.002 A 
HETATM   13  C   UNL     1     -39.965  51.786 -51.816  1.00  0.00     0.042 A 
HETATM   14  C   UNL     1     -39.716  50.724 -53.965  1.00  0.00     0.014 A 
HETATM   15  C   UNL     1     -39.730  50.581 -51.143  1.00  0.00     0.030 A 
HETATM   16  N   UNL     1     -40.230  53.039 -51.318  1.00  0.00    -0.365 N 
HETATM   17  C   UNL     1     -39.484  49.443 -51.917  1.00  0.00     0.002 A 
HETATM   18  C   UNL     1     -39.478  49.511 -53.308  1.00  0.00     0.001 A 
HETATM   19  H   UNL     1     -40.293  53.263 -50.335  1.00  0.00     0.165 HD
HETATM   20  C   UNL     1     -40.395  53.931 -52.343  1.00  0.00     0.096 A 
ENDBRANCH  10  11
ENDBRANCH   9  10
ENDBRANCH   6   9
ENDBRANCH   2   5
BRANCH   1  21
HETATM   21  C   UNL     1     -42.638  59.343 -54.163  1.00  0.00    -0.030 A 
HETATM   22  C   UNL     1     -43.920  59.661 -53.693  1.00  0.00     0.033 A 
HETATM   23  C   UNL     1     -44.147  59.857 -52.328  1.00  0.00     0.047 A 
HETATM   24  C   UNL     1     -43.091  59.740 -51.428  1.00  0.00     0.116 A 
HETATM   25 BR   UNL     1     -45.902  60.277 -51.751  1.00  0.00    -0.048 Br
HETATM   26  C   UNL     1     -41.803  59.432 -51.881  1.00  0.00     0.103 A 
HETATM   27  C   UNL     1     -41.588  59.199 -53.242  1.00  0.00     0.051 A 
BRANCH  24  28
HETATM   28  O   UNL     1     -43.291  59.932 -50.085  1.00  0.00    -0.357 OA
HETATM   29  H   UNL     1     -44.184  60.319 -50.008  1.00  0.00     0.218 HD
ENDBRANCH  24  28
BRANCH  26  30
HETATM   30  O   UNL     1     -40.838  59.355 -50.906  1.00  0.00    -0.353 OA
HETATM   31  C   UNL     1     -39.507  59.157 -51.379  1.00  0.00     0.210 C 
ENDBRANCH  26  30
ENDBRANCH   1  21
TORSDOF 7
ENDMDL
MODEL 7
REMARK VINA RESULT:      -7.9      3.076      4.421
REMARK  7 active torsions:
REMARK  status: ('A' for Active; 'I' for Inactive)
REMARK    1  A    between atoms: O_2  and  C_3 
REMARK    2  A    between atoms: C_4  and  O_5 
REMARK    3  A    between atoms: C_9  and  C_10 
REMARK    4  A    between atoms: C_11  and  C_12 
REMARK       I    between atoms: C_12  and  N_13 
REMARK    5  A    between atoms: N_13  and  C_14 
REMARK    6  A    between atoms: C_14  and  C_15 
REMARK    7  A    between atoms: C_15  and  C_16 
ROOT
HETATM    1  C   UNL     1     -42.501  60.648 -51.297  1.00  0.00     0.040 C 
HETATM    2  C   UNL     1     -42.208  59.468 -51.882  1.00  0.00     0.113 C 
HETATM    3  C   UNL     1     -40.924  59.286 -52.471  1.00  0.00     0.105 C 
HETATM    4  N   UNL     1     -39.896  59.136 -52.987  1.00  0.00    -0.191 NA
ENDROOT
BRANCH   2   5
HETATM    5  C   UNL     1     -43.165  58.320 -51.928  1.00  0.00     0.262 C 
HETATM    6  N   UNL     1     -42.968  57.355 -50.962  1.00  0.00    -0.356 N 
HETATM    7  H   UNL     1     -42.319  57.512 -50.200  1.00  0.00     0.162 HD
HETATM    8  O   UNL     1     -44.046  58.240 -52.776  1.00  0.00    -0.267 OA
BRANCH   6   9
HETATM    9  C   UNL     1     -43.863  56.211 -50.863  1.00  0.00     0.127 C 
BRANCH   9  10
HETATM   10  C   UNL     1     -43.096  54.895 -50.730  1.00  0.00     0.060 C 
BRANCH  10  11
HETATM   11  C   UNL     1     -42.635  54.368 -52.050  1.00  0.00    -0.029 A 
HETATM   12  C   UNL     1     -41.539  53.476 -52.283  1.00  0.00    -0.002 A 
HETATM   13  C   UNL     1     -41.477  53.243 -53.658  1.00  0.00     0.042 A 
HETATM   14  C   UNL     1     -40.594  52.841 -51.452  1.00  0.00     0.014 A 
HETATM   15  C   UNL     1     -40.518  52.407 -54.243  1.00  0.00     0.030 A 
HETATM   16  N   UNL     1     -42.490  53.968 -54.239  1.00  0.00    -0.365 N 
HETATM   17  C   UNL     1     -39.594  51.789 -53.396  1.00  0.00     0.002 A 
HETATM   18  C   UNL     1     -39.629  52.002 -52.020  1.00  0.00     0.001 A 
HETATM   19  H   UNL     1     -42.683  53.989 -55.230  1.00  0.00     0.165 HD
HETATM   20  C   UNL     1     -43.194  54.648 -53.282  1.00  0.00     0.096 A 
ENDBRANCH  10  11
ENDBRANCH   9  10
ENDBRANCH   6   9
ENDBRANCH   2   5
BRANCH   1  21
HETATM   21  C   UNL     1     -43.757  61.079 -50.659  1.00  0.00    -0.030 A 
HETATM   22  C   UNL     1     -43.873  60.962 -49.267  1.00  0.00     0.033 A 
HETATM   23  C   UNL     1     -45.025  61.405 -48.610  1.00  0.00     0.047 A 
HETATM   24  C   UNL     1     -46.068  61.963 -49.346  1.00  0.00     0.116 A 
HETATM   25 BR   UNL     1     -45.122  61.228 -46.726  1.00  0.00    -0.048 Br
HETATM   26  C   UNL     1     -45.973  62.079 -50.738  1.00  0.00     0.103 A 
HETATM   27  C   UNL     1     -44.804  61.670 -51.385  1.00  0.00     0.051 A 
BRANCH  24  28
HETATM   28  O   UNL     1     -47.209  62.400 -48.723  1.00  0.00    -0.357 OA
HETATM   29  H   UNL     1     -47.155  62.055 -47.811  1.00  0.00     0.218 HD
ENDBRANCH  24  28
BRANCH  26  30
HETATM   30  O   UNL     1     -47.066  62.632 -51.359  1.00  0.00    -0.353 OA
HETATM   31  C   UNL     1     -47.557  61.909 -52.486  1.00  0.00     0.210 C 
ENDBRANCH  26  30
ENDBRANCH   1  21
TORSDOF 7
ENDMDL
MODEL 8
REMARK VINA RESULT:      -7.7      2.727      4.577
REMARK  7 active torsions:
REMARK  status: ('A' for Active; 'I' for Inactive)
REMARK    1  A    between atoms: O_2  and  C_3 
REMARK    2  A    between atoms: C_4  and  O_5 
REMARK    3  A    between atoms: C_9  and  C_10 
REMARK    4  A    between atoms: C_11  and  C_12 
REMARK       I    between atoms: C_12  and  N_13 
REMARK    5  A    between atoms: N_13  and  C_14 
REMARK    6  A    between atoms: C_14  and  C_15 
REMARK    7  A    between atoms: C_15  and  C_16 
ROOT
HETATM    1  C   UNL     1     -40.827  59.008 -53.561  1.00  0.00     0.040 C 
HETATM    2  C   UNL     1     -40.872  58.834 -52.223  1.00  0.00     0.113 C 
HETATM    3  C   UNL     1     -39.771  59.267 -51.431  1.00  0.00     0.105 C 
HETATM    4  N   UNL     1     -38.867  59.581 -50.775  1.00  0.00    -0.191 NA
ENDROOT
BRANCH   2   5
HETATM    5  C   UNL     1     -42.040  58.220 -51.520  1.00  0.00     0.262 C 
HETATM    6  N   UNL     1     -41.987  56.847 -51.386  1.00  0.00    -0.356 N 
HETATM    7  H   UNL     1     -41.141  56.339 -51.615  1.00  0.00     0.162 HD
HETATM    8  O   UNL     1     -42.981  58.890 -51.113  1.00  0.00    -0.267 OA
BRANCH   6   9
HETATM    9  C   UNL     1     -43.035  56.131 -50.676  1.00  0.00     0.127 C 
BRANCH   9  10
HETATM   10  C   UNL     1     -43.221  54.711 -51.211  1.00  0.00     0.060 C 
BRANCH  10  11
HETATM   11  C   UNL     1     -41.986  53.881 -51.068  1.00  0.00    -0.029 A 
HETATM   12  C   UNL     1     -41.284  53.198 -52.114  1.00  0.00    -0.002 A 
HETATM   13  C   UNL     1     -40.188  52.560 -51.532  1.00  0.00     0.042 A 
HETATM   14  C   UNL     1     -41.478  53.064 -53.503  1.00  0.00     0.014 A 
HETATM   15  C   UNL     1     -39.276  51.795 -52.269  1.00  0.00     0.030 A 
HETATM   16  N   UNL     1     -40.223  52.839 -50.186  1.00  0.00    -0.365 N 
HETATM   17  C   UNL     1     -39.490  51.681 -53.646  1.00  0.00     0.002 A 
HETATM   18  C   UNL     1     -40.575  52.304 -54.256  1.00  0.00     0.001 A 
HETATM   19  H   UNL     1     -39.547  52.503 -49.514  1.00  0.00     0.165 HD
HETATM   20  C   UNL     1     -41.300  53.633 -49.895  1.00  0.00     0.096 A 
ENDBRANCH  10  11
ENDBRANCH   9  10
ENDBRANCH   6   9
ENDBRANCH   2   5
BRANCH   1  21
HETATM   21  C   UNL     1     -41.816  58.616 -54.580  1.00  0.00    -0.030 A 
HETATM   22  C   UNL     1     -41.876  57.271 -54.971  1.00  0.00     0.033 A 
HETATM   23  C   UNL     1     -42.831  56.842 -55.896  1.00  0.00     0.047 A 
HETATM   24  C   UNL     1     -43.729  57.759 -56.438  1.00  0.00     0.116 A 
HETATM   25 BR   UNL     1     -42.868  55.011 -56.381  1.00  0.00    -0.048 Br
HETATM   26  C   UNL     1     -43.678  59.107 -56.065  1.00  0.00     0.103 A 
HETATM   27  C   UNL     1     -42.746  59.524 -55.111  1.00  0.00     0.051 A 
BRANCH  24  28
HETATM   28  O   UNL     1     -44.672  57.360 -57.350  1.00  0.00    -0.357 OA
HETATM   29  H   UNL     1     -44.166  57.024 -58.116  1.00  0.00     0.218 HD
ENDBRANCH  24  28
BRANCH  26  30
HETATM   30  O   UNL     1     -44.604  59.921 -56.672  1.00  0.00    -0.353 OA
HETATM   31  C   UNL     1     -45.563  60.511 -55.798  1.00  0.00     0.210 C 
ENDBRANCH  26  30
ENDBRANCH   1  21
TORSDOF 7
ENDMDL
MODEL 9
REMARK VINA RESULT:      -7.7      2.159      3.341
REMARK  7 active torsions:
REMARK  status: ('A' for Active; 'I' for Inactive)
REMARK    1  A    between atoms: O_2  and  C_3 
REMARK    2  A    between atoms: C_4  and  O_5 
REMARK    3  A    between atoms: C_9  and  C_10 
REMARK    4  A    between atoms: C_11  and  C_12 
REMARK       I    between atoms: C_12  and  N_13 
REMARK    5  A    between atoms: N_13  and  C_14 
REMARK    6  A    between atoms: C_14  and  C_15 
REMARK    7  A    between atoms: C_15  and  C_16 
ROOT
HETATM    1  C   UNL     1     -42.904  57.583 -55.548  1.00  0.00     0.040 C 
HETATM    2  C   UNL     1     -42.956  56.304 -55.975  1.00  0.00     0.113 C 
HETATM    3  C   UNL     1     -43.028  56.043 -57.373  1.00  0.00     0.105 C 
HETATM    4  N   UNL     1     -43.124  55.815 -58.506  1.00  0.00    -0.191 NA
ENDROOT
BRANCH   2   5
HETATM    5  C   UNL     1     -42.923  55.133 -55.047  1.00  0.00     0.262 C 
HETATM    6  N   UNL     1     -41.861  54.272 -55.228  1.00  0.00    -0.356 N 
HETATM    7  H   UNL     1     -41.094  54.521 -55.843  1.00  0.00     0.162 HD
HETATM    8  O   UNL     1     -43.791  54.947 -54.202  1.00  0.00    -0.267 OA
BRANCH   6   9
HETATM    9  C   UNL     1     -41.682  53.120 -54.356  1.00  0.00     0.127 C 
BRANCH   9  10
HETATM   10  C   UNL     1     -40.258  53.037 -53.805  1.00  0.00     0.060 C 
BRANCH  10  11
HETATM   11  C   UNL     1     -40.229  52.710 -52.347  1.00  0.00    -0.029 A 
HETATM   12  C   UNL     1     -40.547  53.590 -51.262  1.00  0.00    -0.002 A 
HETATM   13  C   UNL     1     -40.395  52.865 -50.080  1.00  0.00     0.042 A 
HETATM   14  C   UNL     1     -40.954  54.937 -51.176  1.00  0.00     0.014 A 
HETATM   15  C   UNL     1     -40.629  53.418 -48.815  1.00  0.00     0.030 A 
HETATM   16  N   UNL     1     -39.996  51.596 -50.429  1.00  0.00    -0.365 N 
HETATM   17  C   UNL     1     -41.033  54.755 -48.758  1.00  0.00     0.002 A 
HETATM   18  C   UNL     1     -41.193  55.506 -49.920  1.00  0.00     0.001 A 
HETATM   19  H   UNL     1     -39.809  50.854 -49.770  1.00  0.00     0.165 HD
HETATM   20  C   UNL     1     -39.893  51.491 -51.790  1.00  0.00     0.096 A 
ENDBRANCH  10  11
ENDBRANCH   9  10
ENDBRANCH   6   9
ENDBRANCH   2   5
BRANCH   1  21
HETATM   21  C   UNL     1     -42.859  58.098 -54.168  1.00  0.00    -0.030 A 
HETATM   22  C   UNL     1     -44.043  58.592 -53.601  1.00  0.00     0.033 A 
HETATM   23  C   UNL     1     -44.062  59.044 -52.279  1.00  0.00     0.047 A 
HETATM   24  C   UNL     1     -42.896  59.007 -51.519  1.00  0.00     0.116 A 
HETATM   25 BR   UNL     1     -45.692  59.694 -51.565  1.00  0.00    -0.048 Br
HETATM   26  C   UNL     1     -41.703  58.525 -52.072  1.00  0.00     0.103 A 
HETATM   27  C   UNL     1     -41.698  58.039 -53.381  1.00  0.00     0.051 A 
BRANCH  24  28
HETATM   28  O   UNL     1     -42.891  59.449 -50.221  1.00  0.00    -0.357 OA
HETATM   29  H   UNL     1     -43.369  60.300 -50.235  1.00  0.00     0.218 HD
ENDBRANCH  24  28
BRANCH  26  30
HETATM   30  O   UNL     1     -40.615  58.547 -51.234  1.00  0.00    -0.353 OA
HETATM   31  C   UNL     1     -39.446  59.164 -51.769  1.00  0.00     0.210 C 
ENDBRANCH  26  30
ENDBRANCH   1  21
TORSDOF 7
ENDMDL
MODEL 10
REMARK VINA RESULT:      -7.6      3.291      4.837
REMARK  7 active torsions:
REMARK  status: ('A' for Active; 'I' for Inactive)
REMARK    1  A    between atoms: O_2  and  C_3 
REMARK    2  A    between atoms: C_4  and  O_5 
REMARK    3  A    between atoms: C_9  and  C_10 
REMARK    4  A    between atoms: C_11  and  C_12 
REMARK       I    between atoms: C_12  and  N_13 
REMARK    5  A    between atoms: N_13  and  C_14 
REMARK    6  A    between atoms: C_14  and  C_15 
REMARK    7  A    between atoms: C_15  and  C_16 
ROOT
HETATM    1  C   UNL     1     -42.119  60.936 -50.519  1.00  0.00     0.040 C 
HETATM    2  C   UNL     1     -41.688  59.765 -51.031  1.00  0.00     0.113 C 
HETATM    3  C   UNL     1     -40.289  59.502 -51.081  1.00  0.00     0.105 C 
HETATM    4  N   UNL     1     -39.152  59.289 -51.162  1.00  0.00    -0.191 NA
ENDROOT
BRANCH   2   5
HETATM    5  C   UNL     1     -42.615  58.707 -51.538  1.00  0.00     0.262 C 
HETATM    6  N   UNL     1     -42.800  57.635 -50.690  1.00  0.00    -0.356 N 
HETATM    7  H   UNL     1     -42.447  57.662 -49.740  1.00  0.00     0.162 HD
HETATM    8  O   UNL     1     -43.153  58.784 -52.636  1.00  0.00    -0.267 OA
BRANCH   6   9
HETATM    9  C   UNL     1     -43.718  56.561 -51.040  1.00  0.00     0.127 C 
BRANCH   9  10
HETATM   10  C   UNL     1     -43.084  55.183 -50.851  1.00  0.00     0.060 C 
BRANCH  10  11
HETATM   11  C   UNL     1     -42.634  54.581 -52.142  1.00  0.00    -0.029 A 
HETATM   12  C   UNL     1     -41.575  53.633 -52.325  1.00  0.00    -0.002 A 
HETATM   13  C   UNL     1     -41.510  53.339 -53.688  1.00  0.00     0.042 A 
HETATM   14  C   UNL     1     -40.667  52.994 -51.457  1.00  0.00     0.014 A 
HETATM   15  C   UNL     1     -40.582  52.439 -54.226  1.00  0.00     0.030 A 
HETATM   16  N   UNL     1     -42.485  54.081 -54.311  1.00  0.00    -0.365 N 
HETATM   17  C   UNL     1     -39.694  51.818 -53.344  1.00  0.00     0.002 A 
HETATM   18  C   UNL     1     -39.733  52.091 -51.979  1.00  0.00     0.001 A 
HETATM   19  H   UNL     1     -42.667  54.069 -55.304  1.00  0.00     0.165 HD
HETATM   20  C   UNL     1     -43.168  54.832 -53.391  1.00  0.00     0.096 A 
ENDBRANCH  10  11
ENDBRANCH   9  10
ENDBRANCH   6   9
ENDBRANCH   2   5
BRANCH   1  21
HETATM   21  C   UNL     1     -43.497  61.442 -50.394  1.00  0.00    -0.030 A 
HETATM   22  C   UNL     1     -44.041  62.169 -51.462  1.00  0.00     0.033 A 
HETATM   23  C   UNL     1     -45.361  62.626 -51.411  1.00  0.00     0.047 A 
HETATM   24  C   UNL     1     -46.141  62.360 -50.288  1.00  0.00     0.116 A 
HETATM   25 BR   UNL     1     -46.044  63.597 -52.888  1.00  0.00    -0.048 Br
HETATM   26  C   UNL     1     -45.611  61.643 -49.209  1.00  0.00     0.103 A 
HETATM   27  C   UNL     1     -44.304  61.156 -49.281  1.00  0.00     0.051 A 
BRANCH  24  28
HETATM   28  O   UNL     1     -47.437  62.802 -50.216  1.00  0.00    -0.357 OA
HETATM   29  H   UNL     1     -47.380  63.777 -50.224  1.00  0.00     0.218 HD
ENDBRANCH  24  28
BRANCH  26  30
HETATM   30  O   UNL     1     -46.468  61.451 -48.152  1.00  0.00    -0.353 OA
HETATM   31  C   UNL     1     -45.851  61.028 -46.938  1.00  0.00     0.210 C 
ENDBRANCH  26  30
ENDBRANCH   1  21
TORSDOF 7
ENDMDL
