MODEL 1
REMARK VINA RESULT:      -7.1      0.000      0.000
REMARK  11 active torsions:
REMARK  status: ('A' for Active; 'I' for Inactive)
REMARK    1  A    between atoms: C_1  and  C_17 
REMARK    2  A    between atoms: C_1  and  S_18 
REMARK    3  A    between atoms: C_2  and  N_23 
REMARK    4  A    between atoms: C_3  and  C_13 
REMARK    5  A    between atoms: C_6  and  S_18 
REMARK    6  A    between atoms: C_6  and  S_19 
REMARK    7  A    between atoms: C_7  and  C_20 
REMARK    8  A    between atoms: C_7  and  C_21 
REMARK    9  A    between atoms: C_9  and  C_24 
REMARK   10  A    between atoms: C_16  and  C_17 
REMARK   11  A    between atoms: S_19  and  C_20 
ROOT
HETATM    1  C           1     -44.502  56.942 -54.672  0.00  0.00     0.092 C 
HETATM    2  C           1     -43.033  55.378 -53.578  0.00  0.00     0.156 C 
HETATM    3  C           1     -43.309  57.714 -54.182  0.00  0.00     0.127 C 
HETATM    4  C           1     -42.772  56.829 -53.036  0.00  0.00     0.136 C 
HETATM    5  C           1     -43.543  57.010 -51.773  0.00  0.00     0.079 C 
HETATM    6  N           1     -44.104  57.244 -50.785  0.00  0.00    -0.196 NA
HETATM    7  C           1     -43.231  59.247 -53.783  0.00  0.00     0.248 C 
HETATM    8  C           1     -40.965  58.635 -52.936  0.00  0.00     0.105 C 
HETATM    9  N           1     -44.323  55.682 -54.370  0.00  0.00    -0.350 N 
HETATM   10  N           1     -41.743  59.685 -53.579  0.00  0.00    -0.040 N 
HETATM   11  C           1     -39.573  59.056 -52.528  0.00  0.00     0.075 C 
HETATM   12  C           1     -41.387  57.366 -52.720  0.00  0.00     0.036 C 
HETATM   13  H           1     -44.997  54.951 -54.634  0.00  0.00     0.163 HD
HETATM   14  H           1     -41.307  59.984 -54.477  0.00  0.00     0.284 HD
HETATM   15  H           1     -41.742  60.522 -52.953  0.00  0.00     0.284 HD
ENDROOT
BRANCH   2  16
HETATM   16  S           1     -43.447  54.169 -52.277  0.00  0.00    -0.125 SA
BRANCH  16  17
HETATM   17  C           1     -41.881  54.001 -51.370  0.00  0.00     0.077 C 
BRANCH  17  18
HETATM   18  C           1     -42.122  54.353 -49.893  0.00  0.00     0.010 C 
BRANCH  18  19
HETATM   19  C           1     -40.916  55.087 -49.283  0.00  0.00    -0.004 C 
HETATM   20  C           1     -39.600  54.344 -49.549  0.00  0.00     0.005 C 
ENDBRANCH  18  19
ENDBRANCH  17  18
ENDBRANCH  16  17
ENDBRANCH   2  16
BRANCH   2  21
HETATM   21  S           1     -41.710  54.879 -54.733  0.00  0.00    -0.125 SA
BRANCH  21  22
HETATM   22  C           1     -41.673  53.082 -54.444  0.00  0.00     0.077 C 
BRANCH  22  23
HETATM   23  C           1     -40.211  52.608 -54.472  0.00  0.00     0.010 C 
BRANCH  23  24
HETATM   24  C           1     -39.995  51.386 -53.565  0.00  0.00    -0.004 C 
HETATM   25  C           1     -39.999  50.073 -54.361  0.00  0.00     0.005 C 
ENDBRANCH  23  24
ENDBRANCH  22  23
ENDBRANCH  21  22
ENDBRANCH   2  21
BRANCH   3  26
HETATM   26  C           1     -42.318  57.830 -55.291  0.00  0.00     0.105 C 
HETATM   27  N           1     -42.352  58.002 -56.437  0.00  0.00    -0.151 N 
ENDBRANCH   3  26
BRANCH   1  28
HETATM   28  N           1     -45.472  57.404 -55.342  0.00  0.00    -0.388 N 
HETATM   29  H           1     -46.228  57.964 -54.877  0.00  0.00     0.157 HD
HETATM   30  H           1     -45.539  57.228 -56.375  0.00  0.00     0.157 HD
ENDBRANCH   1  28
BRANCH   7  31
HETATM   31  C           1     -44.106  59.686 -52.618  0.00  0.00    -0.026 A 
HETATM   32  C           1     -43.536  60.239 -51.531  0.00  0.00     0.009 A 
HETATM   33  C           1     -44.266  60.634 -50.475  0.00  0.00     0.001 A 
HETATM   34  C           1     -45.597  60.474 -50.485  0.00  0.00     0.000 A 
HETATM   35  C           1     -46.184  59.916 -51.553  0.00  0.00     0.001 A 
HETATM   36  C           1     -45.443  59.527 -52.604  0.00  0.00     0.009 A 
ENDBRANCH   7  31
TORSDOF 11
ENDMDL
MODEL 2
REMARK VINA RESULT:      -6.8     16.452     19.107
REMARK  11 active torsions:
REMARK  status: ('A' for Active; 'I' for Inactive)
REMARK    1  A    between atoms: C_1  and  C_17 
REMARK    2  A    between atoms: C_1  and  S_18 
REMARK    3  A    between atoms: C_2  and  N_23 
REMARK    4  A    between atoms: C_3  and  C_13 
REMARK    5  A    between atoms: C_6  and  S_18 
REMARK    6  A    between atoms: C_6  and  S_19 
REMARK    7  A    between atoms: C_7  and  C_20 
REMARK    8  A    between atoms: C_7  and  C_21 
REMARK    9  A    between atoms: C_9  and  C_24 
REMARK   10  A    between atoms: C_16  and  C_17 
REMARK   11  A    between atoms: S_19  and  C_20 
ROOT
HETATM    1  C           1     -33.635  40.333 -53.241  0.00  0.00     0.092 C 
HETATM    2  C           1     -34.946  38.394 -52.670  0.00  0.00     0.156 C 
HETATM    3  C           1     -35.055  40.790 -53.056  0.00  0.00     0.127 C 
HETATM    4  C           1     -35.867  39.500 -53.301  0.00  0.00     0.136 C 
HETATM    5  C           1     -36.037  39.205 -54.752  0.00  0.00     0.079 C 
HETATM    6  N           1     -36.228  39.057 -55.887  0.00  0.00    -0.196 NA
HETATM    7  C           1     -35.776  42.036 -53.721  0.00  0.00     0.248 C 
HETATM    8  C           1     -37.835  41.030 -52.734  0.00  0.00     0.105 C 
HETATM    9  N           1     -33.586  39.048 -52.996  0.00  0.00    -0.350 N 
HETATM   10  N           1     -37.168  42.284 -53.051  0.00  0.00    -0.040 N 
HETATM   11  C           1     -39.263  41.188 -52.267  0.00  0.00     0.075 C 
HETATM   12  C           1     -37.270  39.800 -52.804  0.00  0.00     0.036 C 
HETATM   13  H           1     -32.707  38.515 -53.028  0.00  0.00     0.163 HD
HETATM   14  H           1     -37.081  42.892 -52.209  0.00  0.00     0.284 HD
HETATM   15  H           1     -37.760  42.806 -53.736  0.00  0.00     0.284 HD
ENDROOT
BRANCH   2  16
HETATM   16  S           1     -35.018  36.793 -53.538  0.00  0.00    -0.125 SA
BRANCH  16  17
HETATM   17  C           1     -33.361  36.658 -54.273  0.00  0.00     0.077 C 
BRANCH  17  18
HETATM   18  C           1     -33.490  36.714 -55.804  0.00  0.00     0.010 C 
BRANCH  18  19
HETATM   19  C           1     -32.327  37.493 -56.441  0.00  0.00    -0.004 C 
HETATM   20  C           1     -32.663  38.981 -56.615  0.00  0.00     0.005 C 
ENDBRANCH  18  19
ENDBRANCH  17  18
ENDBRANCH  16  17
ENDBRANCH   2  16
BRANCH   2  21
HETATM   21  S           1     -35.174  38.328 -50.860  0.00  0.00    -0.125 SA
BRANCH  21  22
HETATM   22  C           1     -33.475  37.955 -50.323  0.00  0.00     0.077 C 
BRANCH  22  23
HETATM   23  C           1     -33.290  38.460 -48.882  0.00  0.00     0.010 C 
BRANCH  23  24
HETATM   24  C           1     -32.180  39.519 -48.791  0.00  0.00    -0.004 C 
HETATM   25  C           1     -31.628  39.890 -50.175  0.00  0.00     0.005 C 
ENDBRANCH  23  24
ENDBRANCH  22  23
ENDBRANCH  21  22
ENDBRANCH   2  21
BRANCH   3  26
HETATM   26  C           1     -35.226  41.286 -51.660  0.00  0.00     0.105 C 
HETATM   27  N           1     -34.622  41.940 -50.918  0.00  0.00    -0.151 N 
ENDBRANCH   3  26
BRANCH   1  28
HETATM   28  N           1     -32.636  41.067 -53.497  0.00  0.00    -0.388 N 
HETATM   29  H           1     -32.477  41.441 -54.464  0.00  0.00     0.157 HD
HETATM   30  H           1     -31.945  41.310 -52.745  0.00  0.00     0.157 HD
ENDBRANCH   1  28
BRANCH   7  31
HETATM   31  C           1     -35.883  42.021 -55.239  0.00  0.00    -0.026 A 
HETATM   32  C           1     -37.097  42.060 -55.820  0.00  0.00     0.009 A 
HETATM   33  C           1     -37.242  42.041 -57.155  0.00  0.00     0.001 A 
HETATM   34  C           1     -36.161  41.975 -57.944  0.00  0.00     0.000 A 
HETATM   35  C           1     -34.943  41.925 -57.386  0.00  0.00     0.001 A 
HETATM   36  C           1     -34.811  41.947 -56.051  0.00  0.00     0.009 A 
ENDBRANCH   7  31
TORSDOF 11
ENDMDL
MODEL 3
REMARK VINA RESULT:      -6.7      2.330      6.207
REMARK  11 active torsions:
REMARK  status: ('A' for Active; 'I' for Inactive)
REMARK    1  A    between atoms: C_1  and  C_17 
REMARK    2  A    between atoms: C_1  and  S_18 
REMARK    3  A    between atoms: C_2  and  N_23 
REMARK    4  A    between atoms: C_3  and  C_13 
REMARK    5  A    between atoms: C_6  and  S_18 
REMARK    6  A    between atoms: C_6  and  S_19 
REMARK    7  A    between atoms: C_7  and  C_20 
REMARK    8  A    between atoms: C_7  and  C_21 
REMARK    9  A    between atoms: C_9  and  C_24 
REMARK   10  A    between atoms: C_16  and  C_17 
REMARK   11  A    between atoms: S_19  and  C_20 
ROOT
HETATM    1  C           1     -44.007  57.765 -52.513  0.00  0.00     0.092 C 
HETATM    2  C           1     -42.524  58.718 -54.155  0.00  0.00     0.156 C 
HETATM    3  C           1     -42.732  58.130 -51.807  0.00  0.00     0.127 C 
HETATM    4  C           1     -41.695  58.141 -52.952  0.00  0.00     0.136 C 
HETATM    5  C           1     -41.232  56.770 -53.309  0.00  0.00     0.079 C 
HETATM    6  N           1     -40.826  55.699 -53.497  0.00  0.00    -0.196 NA
HETATM    7  C           1     -42.113  57.473 -50.503  0.00  0.00     0.248 C 
HETATM    8  C           1     -40.122  58.868 -51.071  0.00  0.00     0.105 C 
HETATM    9  N           1     -43.894  58.119 -53.767  0.00  0.00    -0.350 N 
HETATM   10  N           1     -40.915  58.331 -49.975  0.00  0.00    -0.040 N 
HETATM   11  C           1     -38.841  59.540 -50.639  0.00  0.00     0.075 C 
HETATM   12  C           1     -40.465  58.825 -52.382  0.00  0.00     0.036 C 
HETATM   13  H           1     -44.658  57.998 -54.445  0.00  0.00     0.163 HD
HETATM   14  H           1     -41.241  59.088 -49.336  0.00  0.00     0.284 HD
HETATM   15  H           1     -40.303  57.703 -49.406  0.00  0.00     0.284 HD
ENDROOT
BRANCH   2  16
HETATM   16  S           1     -42.050  58.028 -55.774  0.00  0.00    -0.125 SA
BRANCH  16  17
HETATM   17  C           1     -43.453  56.945 -56.177  0.00  0.00     0.077 C 
BRANCH  17  18
HETATM   18  C           1     -42.919  55.668 -56.847  0.00  0.00     0.010 C 
BRANCH  18  19
HETATM   19  C           1     -42.910  54.479 -55.871  0.00  0.00    -0.004 C 
HETATM   20  C           1     -43.887  54.689 -54.706  0.00  0.00     0.005 C 
ENDBRANCH  18  19
ENDBRANCH  17  18
ENDBRANCH  16  17
ENDBRANCH   2  16
BRANCH   2  21
HETATM   21  S           1     -42.606  60.539 -54.060  0.00  0.00    -0.125 SA
BRANCH  21  22
HETATM   22  C           1     -44.305  60.829 -54.648  0.00  0.00     0.077 C 
BRANCH  22  23
HETATM   23  C           1     -45.066  61.634 -53.581  0.00  0.00     0.010 C 
BRANCH  23  24
HETATM   24  C           1     -46.188  60.802 -52.939  0.00  0.00    -0.004 C 
HETATM   25  C           1     -47.381  61.675 -52.524  0.00  0.00     0.005 C 
ENDBRANCH  23  24
ENDBRANCH  22  23
ENDBRANCH  21  22
ENDBRANCH   2  21
BRANCH   3  26
HETATM   26  C           1     -42.886  59.482 -51.197  0.00  0.00     0.105 C 
HETATM   27  N           1     -43.704  60.053 -50.607  0.00  0.00    -0.151 N 
ENDBRANCH   3  26
BRANCH   1  28
HETATM   28  N           1     -45.050  57.284 -51.980  0.00  0.00    -0.388 N 
HETATM   29  H           1     -45.042  56.955 -50.984  0.00  0.00     0.157 HD
HETATM   30  H           1     -45.942  57.202 -52.530  0.00  0.00     0.157 HD
ENDBRANCH   1  28
BRANCH   7  31
HETATM   31  C           1     -41.743  56.001 -50.600  0.00  0.00    -0.026 A 
HETATM   32  C           1     -42.667  55.109 -51.006  0.00  0.00     0.009 A 
HETATM   33  C           1     -42.389  53.798 -51.099  0.00  0.00     0.001 A 
HETATM   34  C           1     -41.168  53.349 -50.777  0.00  0.00     0.000 A 
HETATM   35  C           1     -40.236  54.218 -50.361  0.00  0.00     0.001 A 
HETATM   36  C           1     -40.525  55.526 -50.274  0.00  0.00     0.009 A 
ENDBRANCH   7  31
TORSDOF 11
ENDMDL
MODEL 4
REMARK VINA RESULT:      -6.7      2.068      4.989
REMARK  11 active torsions:
REMARK  status: ('A' for Active; 'I' for Inactive)
REMARK    1  A    between atoms: C_1  and  C_17 
REMARK    2  A    between atoms: C_1  and  S_18 
REMARK    3  A    between atoms: C_2  and  N_23 
REMARK    4  A    between atoms: C_3  and  C_13 
REMARK    5  A    between atoms: C_6  and  S_18 
REMARK    6  A    between atoms: C_6  and  S_19 
REMARK    7  A    between atoms: C_7  and  C_20 
REMARK    8  A    between atoms: C_7  and  C_21 
REMARK    9  A    between atoms: C_9  and  C_24 
REMARK   10  A    between atoms: C_16  and  C_17 
REMARK   11  A    between atoms: S_19  and  C_20 
ROOT
HETATM    1  C           1     -43.908  56.715 -51.493  0.00  0.00     0.092 C 
HETATM    2  C           1     -41.595  56.589 -50.833  0.00  0.00     0.156 C 
HETATM    3  C           1     -43.241  55.710 -52.389  0.00  0.00     0.127 C 
HETATM    4  C           1     -41.755  56.125 -52.326  0.00  0.00     0.136 C 
HETATM    5  C           1     -41.452  57.281 -53.217  0.00  0.00     0.079 C 
HETATM    6  N           1     -41.234  58.119 -53.989  0.00  0.00    -0.196 NA
HETATM    7  C           1     -43.641  55.298 -53.867  0.00  0.00     0.248 C 
HETATM    8  C           1     -41.464  54.077 -53.829  0.00  0.00     0.105 C 
HETATM    9  N           1     -43.019  57.154 -50.640  0.00  0.00    -0.350 N 
HETATM   10  N           1     -42.834  54.036 -54.321  0.00  0.00    -0.040 N 
HETATM   11  C           1     -40.572  52.995 -54.388  0.00  0.00     0.075 C 
HETATM   12  C           1     -40.981  54.965 -52.926  0.00  0.00     0.036 C 
HETATM   13  H           1     -43.251  57.831 -49.901  0.00  0.00     0.163 HD
HETATM   14  H           1     -43.313  53.156 -54.037  0.00  0.00     0.284 HD
HETATM   15  H           1     -42.806  54.038 -55.366  0.00  0.00     0.284 HD
ENDROOT
BRANCH   2  16
HETATM   16  S           1     -40.415  57.960 -50.611  0.00  0.00    -0.125 SA
BRANCH  16  17
HETATM   17  C           1     -41.462  59.290 -49.946  0.00  0.00     0.077 C 
BRANCH  17  18
HETATM   18  C           1     -41.703  60.332 -51.050  0.00  0.00     0.010 C 
BRANCH  18  19
HETATM   19  C           1     -43.184  60.738 -51.129  0.00  0.00    -0.004 C 
HETATM   20  C           1     -43.807  60.368 -52.483  0.00  0.00     0.005 C 
ENDBRANCH  18  19
ENDBRANCH  17  18
ENDBRANCH  16  17
ENDBRANCH   2  16
BRANCH   2  21
HETATM   21  S           1     -41.355  55.149 -49.738  0.00  0.00    -0.125 SA
BRANCH  21  22
HETATM   22  C           1     -39.546  54.961 -49.824  0.00  0.00     0.077 C 
BRANCH  22  23
HETATM   23  C           1     -39.219  53.517 -50.239  0.00  0.00     0.010 C 
BRANCH  23  24
HETATM   24  C           1     -40.462  52.615 -50.181  0.00  0.00    -0.004 C 
HETATM   25  C           1     -40.175  51.208 -50.721  0.00  0.00     0.005 C 
ENDBRANCH  23  24
ENDBRANCH  22  23
ENDBRANCH  21  22
ENDBRANCH   2  21
BRANCH   3  26
HETATM   26  C           1     -43.450  54.345 -51.825  0.00  0.00     0.105 C 
HETATM   27  N           1     -44.207  53.835 -51.111  0.00  0.00    -0.151 N 
ENDBRANCH   3  26
BRANCH   1  28
HETATM   28  N           1     -45.136  57.024 -51.494  0.00  0.00    -0.388 N 
HETATM   29  H           1     -45.526  57.682 -50.775  0.00  0.00     0.157 HD
HETATM   30  H           1     -45.788  56.621 -52.212  0.00  0.00     0.157 HD
ENDBRANCH   1  28
BRANCH   7  31
HETATM   31  C           1     -43.583  56.402 -54.913  0.00  0.00    -0.026 A 
HETATM   32  C           1     -44.356  57.495 -54.769  0.00  0.00     0.009 A 
HETATM   33  C           1     -44.346  58.491 -55.670  0.00  0.00     0.001 A 
HETATM   34  C           1     -43.556  58.407 -56.750  0.00  0.00     0.000 A 
HETATM   35  C           1     -42.785  57.323 -56.918  0.00  0.00     0.001 A 
HETATM   36  C           1     -42.803  56.335 -56.009  0.00  0.00     0.009 A 
ENDBRANCH   7  31
TORSDOF 11
ENDMDL
MODEL 5
REMARK VINA RESULT:      -6.6      1.769      2.726
REMARK  11 active torsions:
REMARK  status: ('A' for Active; 'I' for Inactive)
REMARK    1  A    between atoms: C_1  and  C_17 
REMARK    2  A    between atoms: C_1  and  S_18 
REMARK    3  A    between atoms: C_2  and  N_23 
REMARK    4  A    between atoms: C_3  and  C_13 
REMARK    5  A    between atoms: C_6  and  S_18 
REMARK    6  A    between atoms: C_6  and  S_19 
REMARK    7  A    between atoms: C_7  and  C_20 
REMARK    8  A    between atoms: C_7  and  C_21 
REMARK    9  A    between atoms: C_9  and  C_24 
REMARK   10  A    between atoms: C_16  and  C_17 
REMARK   11  A    between atoms: S_19  and  C_20 
ROOT
HETATM    1  C           1     -44.712  57.879 -55.075  0.00  0.00     0.092 C 
HETATM    2  C           1     -43.326  56.004 -54.472  0.00  0.00     0.156 C 
HETATM    3  C           1     -43.465  58.428 -54.442  0.00  0.00     0.127 C 
HETATM    4  C           1     -42.965  57.247 -53.582  0.00  0.00     0.136 C 
HETATM    5  C           1     -43.701  57.136 -52.291  0.00  0.00     0.079 C 
HETATM    6  N           1     -44.230  57.136 -51.258  0.00  0.00    -0.196 NA
HETATM    7  C           1     -43.284  59.798 -53.663  0.00  0.00     0.248 C 
HETATM    8  C           1     -41.046  58.860 -53.078  0.00  0.00     0.105 C 
HETATM    9  N           1     -44.608  56.575 -55.116  0.00  0.00    -0.350 N 
HETATM   10  N           1     -41.768  60.083 -53.402  0.00  0.00    -0.040 N 
HETATM   11  C           1     -39.624  59.082 -52.621  0.00  0.00     0.075 C 
HETATM   12  C           1     -41.544  57.604 -53.184  0.00  0.00     0.036 C 
HETATM   13  H           1     -45.331  55.978 -55.537  0.00  0.00     0.163 HD
HETATM   14  H           1     -41.330  60.580 -54.206  0.00  0.00     0.284 HD
HETATM   15  H           1     -41.704  60.727 -52.581  0.00  0.00     0.284 HD
ENDROOT
BRANCH   2  16
HETATM   16  S           1     -43.793  54.524 -53.515  0.00  0.00    -0.125 SA
BRANCH  16  17
HETATM   17  C           1     -42.184  53.854 -52.997  0.00  0.00     0.077 C 
BRANCH  17  18
HETATM   18  C           1     -42.108  53.873 -51.462  0.00  0.00     0.010 C 
BRANCH  18  19
HETATM   19  C           1     -40.843  54.595 -50.968  0.00  0.00    -0.004 C 
HETATM   20  C           1     -41.171  55.678 -49.931  0.00  0.00     0.005 C 
ENDBRANCH  18  19
ENDBRANCH  17  18
ENDBRANCH  16  17
ENDBRANCH   2  16
BRANCH   2  21
HETATM   21  S           1     -42.057  55.749 -55.760  0.00  0.00    -0.125 SA
BRANCH  21  22
HETATM   22  C           1     -43.104  55.274 -57.171  0.00  0.00     0.077 C 
BRANCH  22  23
HETATM   23  C           1     -42.871  56.271 -58.318  0.00  0.00     0.010 C 
BRANCH  23  24
HETATM   24  C           1     -43.285  55.681 -59.676  0.00  0.00    -0.004 C 
HETATM   25  C           1     -44.301  54.541 -59.518  0.00  0.00     0.005 C 
ENDBRANCH  23  24
ENDBRANCH  22  23
ENDBRANCH  21  22
ENDBRANCH   2  21
BRANCH   3  26
HETATM   26  C           1     -42.488  58.773 -55.516  0.00  0.00     0.105 C 
HETATM   27  N           1     -42.506  59.360 -56.515  0.00  0.00    -0.151 N 
ENDBRANCH   3  26
BRANCH   1  28
HETATM   28  N           1     -45.663  58.552 -55.570  0.00  0.00    -0.388 N 
HETATM   29  H           1     -45.822  59.549 -55.285  0.00  0.00     0.157 HD
HETATM   30  H           1     -46.314  58.121 -56.273  0.00  0.00     0.157 HD
ENDBRANCH   1  28
BRANCH   7  31
HETATM   31  C           1     -44.109  59.967 -52.396  0.00  0.00    -0.026 A 
HETATM   32  C           1     -45.450  59.857 -52.456  0.00  0.00     0.009 A 
HETATM   33  C           1     -46.220  60.006 -51.366  0.00  0.00     0.001 A 
HETATM   34  C           1     -45.656  60.278 -50.181  0.00  0.00     0.000 A 
HETATM   35  C           1     -44.324  60.401 -50.101  0.00  0.00     0.001 A 
HETATM   36  C           1     -43.564  60.248 -51.197  0.00  0.00     0.009 A 
ENDBRANCH   7  31
TORSDOF 11
ENDMDL
MODEL 6
REMARK VINA RESULT:      -6.6      1.847      4.432
REMARK  11 active torsions:
REMARK  status: ('A' for Active; 'I' for Inactive)
REMARK    1  A    between atoms: C_1  and  C_17 
REMARK    2  A    between atoms: C_1  and  S_18 
REMARK    3  A    between atoms: C_2  and  N_23 
REMARK    4  A    between atoms: C_3  and  C_13 
REMARK    5  A    between atoms: C_6  and  S_18 
REMARK    6  A    between atoms: C_6  and  S_19 
REMARK    7  A    between atoms: C_7  and  C_20 
REMARK    8  A    between atoms: C_7  and  C_21 
REMARK    9  A    between atoms: C_9  and  C_24 
REMARK   10  A    between atoms: C_16  and  C_17 
REMARK   11  A    between atoms: S_19  and  C_20 
ROOT
HETATM    1  C           1     -40.924  57.871 -52.942  0.00  0.00     0.092 C 
HETATM    2  C           1     -42.483  56.097 -52.470  0.00  0.00     0.156 C 
HETATM    3  C           1     -42.189  58.508 -52.439  0.00  0.00     0.127 C 
HETATM    4  C           1     -43.259  57.436 -52.742  0.00  0.00     0.136 C 
HETATM    5  C           1     -43.689  57.454 -54.169  0.00  0.00     0.079 C 
HETATM    6  N           1     -44.067  57.557 -55.261  0.00  0.00    -0.196 NA
HETATM    7  C           1     -42.748  59.957 -52.758  0.00  0.00     0.248 C 
HETATM    8  C           1     -44.797  59.128 -51.598  0.00  0.00     0.105 C 
HETATM    9  N           1     -41.085  56.573 -52.920  0.00  0.00    -0.350 N 
HETATM   10  N           1     -43.956  60.295 -51.822  0.00  0.00    -0.040 N 
HETATM   11  C           1     -46.085  59.423 -50.868  0.00  0.00     0.075 C 
HETATM   12  C           1     -44.492  57.859 -51.964  0.00  0.00     0.036 C 
HETATM   13  H           1     -40.338  55.920 -53.192  0.00  0.00     0.163 HD
HETATM   14  H           1     -43.635  60.710 -50.921  0.00  0.00     0.284 HD
HETATM   15  H           1     -44.531  61.026 -52.299  0.00  0.00     0.284 HD
ENDROOT
BRANCH   2  16
HETATM   16  S           1     -42.984  54.722 -53.558  0.00  0.00    -0.125 SA
BRANCH  16  17
HETATM   17  C           1     -41.407  54.199 -54.296  0.00  0.00     0.077 C 
BRANCH  17  18
HETATM   18  C           1     -41.387  52.665 -54.391  0.00  0.00     0.010 C 
BRANCH  18  19
HETATM   19  C           1     -39.994  52.097 -54.076  0.00  0.00    -0.004 C 
HETATM   20  C           1     -39.967  50.564 -54.165  0.00  0.00     0.005 C 
ENDBRANCH  18  19
ENDBRANCH  17  18
ENDBRANCH  16  17
ENDBRANCH   2  16
BRANCH   2  21
HETATM   21  S           1     -42.456  55.726 -50.682  0.00  0.00    -0.125 SA
BRANCH  21  22
HETATM   22  C           1     -42.139  53.934 -50.718  0.00  0.00     0.077 C 
BRANCH  22  23
HETATM   23  C           1     -40.622  53.699 -50.619  0.00  0.00     0.010 C 
BRANCH  23  24
HETATM   24  C           1     -39.986  54.563 -49.519  0.00  0.00    -0.004 C 
HETATM   25  C           1     -40.224  53.977 -48.120  0.00  0.00     0.005 C 
ENDBRANCH  23  24
ENDBRANCH  22  23
ENDBRANCH  21  22
ENDBRANCH   2  21
BRANCH   3  26
HETATM   26  C           1     -42.059  58.751 -50.973  0.00  0.00     0.105 C 
HETATM   27  N           1     -41.252  59.174 -50.257  0.00  0.00    -0.151 N 
ENDBRANCH   3  26
BRANCH   1  28
HETATM   28  N           1     -39.851  58.469 -53.248  0.00  0.00    -0.388 N 
HETATM   29  H           1     -39.442  59.198 -52.614  0.00  0.00     0.157 HD
HETATM   30  H           1     -39.355  58.250 -54.147  0.00  0.00     0.157 HD
ENDBRANCH   1  28
BRANCH   7  31
HETATM   31  C           1     -43.074  60.249 -54.215  0.00  0.00    -0.026 A 
HETATM   32  C           1     -42.110  60.136 -55.148  0.00  0.00     0.009 A 
HETATM   33  C           1     -42.348  60.390 -56.444  0.00  0.00     0.001 A 
HETATM   34  C           1     -43.571  60.774 -56.836  0.00  0.00     0.000 A 
HETATM   35  C           1     -44.544  60.902 -55.923  0.00  0.00     0.001 A 
HETATM   36  C           1     -44.294  60.643 -54.630  0.00  0.00     0.009 A 
ENDBRANCH   7  31
TORSDOF 11
ENDMDL
MODEL 7
REMARK VINA RESULT:      -6.5      2.644      6.205
REMARK  11 active torsions:
REMARK  status: ('A' for Active; 'I' for Inactive)
REMARK    1  A    between atoms: C_1  and  C_17 
REMARK    2  A    between atoms: C_1  and  S_18 
REMARK    3  A    between atoms: C_2  and  N_23 
REMARK    4  A    between atoms: C_3  and  C_13 
REMARK    5  A    between atoms: C_6  and  S_18 
REMARK    6  A    between atoms: C_6  and  S_19 
REMARK    7  A    between atoms: C_7  and  C_20 
REMARK    8  A    between atoms: C_7  and  C_21 
REMARK    9  A    between atoms: C_9  and  C_24 
REMARK   10  A    between atoms: C_16  and  C_17 
REMARK   11  A    between atoms: S_19  and  C_20 
ROOT
HETATM    1  C           1     -44.064  57.749 -52.794  0.00  0.00     0.092 C 
HETATM    2  C           1     -42.511  58.617 -54.417  0.00  0.00     0.156 C 
HETATM    3  C           1     -42.800  58.101 -52.061  0.00  0.00     0.127 C 
HETATM    4  C           1     -41.731  58.053 -53.174  0.00  0.00     0.136 C 
HETATM    5  C           1     -41.294  56.661 -53.480  0.00  0.00     0.079 C 
HETATM    6  N           1     -40.912  55.576 -53.627  0.00  0.00    -0.196 NA
HETATM    7  C           1     -42.236  57.466 -50.722  0.00  0.00     0.248 C 
HETATM    8  C           1     -40.194  58.793 -51.270  0.00  0.00     0.105 C 
HETATM    9  N           1     -43.906  58.064 -54.053  0.00  0.00    -0.350 N 
HETATM   10  N           1     -41.032  58.307 -50.182  0.00  0.00    -0.040 N 
HETATM   11  C           1     -38.909  59.444 -50.819  0.00  0.00     0.075 C 
HETATM   12  C           1     -40.500  58.721 -52.588  0.00  0.00     0.036 C 
HETATM   13  H           1     -44.653  57.943 -54.750  0.00  0.00     0.163 HD
HETATM   14  H           1     -41.356  59.089 -49.575  0.00  0.00     0.284 HD
HETATM   15  H           1     -40.453  57.680 -49.579  0.00  0.00     0.284 HD
ENDROOT
BRANCH   2  16
HETATM   16  S           1     -42.008  57.870 -56.002  0.00  0.00    -0.125 SA
BRANCH  16  17
HETATM   17  C           1     -43.434  56.824 -56.424  0.00  0.00     0.077 C 
BRANCH  17  18
HETATM   18  C           1     -42.970  55.712 -57.378  0.00  0.00     0.010 C 
BRANCH  18  19
HETATM   19  C           1     -43.321  56.038 -58.839  0.00  0.00    -0.004 C 
HETATM   20  C           1     -44.095  54.895 -59.510  0.00  0.00     0.005 C 
ENDBRANCH  18  19
ENDBRANCH  17  18
ENDBRANCH  16  17
ENDBRANCH   2  16
BRANCH   2  21
HETATM   21  S           1     -42.547  60.442 -54.374  0.00  0.00    -0.125 SA
BRANCH  21  22
HETATM   22  C           1     -44.211  60.758 -55.041  0.00  0.00     0.077 C 
BRANCH  22  23
HETATM   23  C           1     -44.089  61.090 -56.537  0.00  0.00     0.010 C 
BRANCH  23  24
HETATM   24  C           1     -44.873  60.092 -57.404  0.00  0.00    -0.004 C 
HETATM   25  C           1     -44.121  59.741 -58.696  0.00  0.00     0.005 C 
ENDBRANCH  23  24
ENDBRANCH  22  23
ENDBRANCH  21  22
ENDBRANCH   2  21
BRANCH   3  26
HETATM   26  C           1     -42.936  59.474 -51.493  0.00  0.00     0.105 C 
HETATM   27  N           1     -43.772  60.099 -50.992  0.00  0.00    -0.151 N 
ENDBRANCH   3  26
BRANCH   1  28
HETATM   28  N           1     -45.134  57.310 -52.279  0.00  0.00    -0.388 N 
HETATM   29  H           1     -45.182  56.340 -51.881  0.00  0.00     0.157 HD
HETATM   30  H           1     -45.996  57.909 -52.245  0.00  0.00     0.157 HD
ENDBRANCH   1  28
BRANCH   7  31
HETATM   31  C           1     -41.903  55.982 -50.767  0.00  0.00    -0.026 A 
HETATM   32  C           1     -40.679  55.564 -50.394  0.00  0.00     0.009 A 
HETATM   33  C           1     -40.336  54.266 -50.425  0.00  0.00     0.001 A 
HETATM   34  C           1     -41.221  53.351 -50.843  0.00  0.00     0.000 A 
HETATM   35  C           1     -42.443  53.746 -51.228  0.00  0.00     0.001 A 
HETATM   36  C           1     -42.774  55.046 -51.190  0.00  0.00     0.009 A 
ENDBRANCH   7  31
TORSDOF 11
ENDMDL
MODEL 8
REMARK VINA RESULT:      -6.4      2.682      6.742
REMARK  11 active torsions:
REMARK  status: ('A' for Active; 'I' for Inactive)
REMARK    1  A    between atoms: C_1  and  C_17 
REMARK    2  A    between atoms: C_1  and  S_18 
REMARK    3  A    between atoms: C_2  and  N_23 
REMARK    4  A    between atoms: C_3  and  C_13 
REMARK    5  A    between atoms: C_6  and  S_18 
REMARK    6  A    between atoms: C_6  and  S_19 
REMARK    7  A    between atoms: C_7  and  C_20 
REMARK    8  A    between atoms: C_7  and  C_21 
REMARK    9  A    between atoms: C_9  and  C_24 
REMARK   10  A    between atoms: C_16  and  C_17 
REMARK   11  A    between atoms: S_19  and  C_20 
ROOT
HETATM    1  C           1     -44.099  55.933 -54.336  0.00  0.00     0.092 C 
HETATM    2  C           1     -42.838  57.807 -55.172  0.00  0.00     0.156 C 
HETATM    3  C           1     -43.188  56.390 -53.231  0.00  0.00     0.127 C 
HETATM    4  C           1     -42.061  57.119 -53.993  0.00  0.00     0.136 C 
HETATM    5  C           1     -41.064  56.173 -54.571  0.00  0.00     0.079 C 
HETATM    6  N           1     -40.260  55.415 -54.925  0.00  0.00    -0.196 NA
HETATM    7  C           1     -42.590  55.532 -52.040  0.00  0.00     0.248 C 
HETATM    8  C           1     -41.207  57.569 -51.626  0.00  0.00     0.105 C 
HETATM    9  N           1     -43.925  56.726 -55.362  0.00  0.00    -0.350 N 
HETATM   10  N           1     -41.906  56.464 -50.984  0.00  0.00    -0.040 N 
HETATM   11  C           1     -40.361  58.396 -50.687  0.00  0.00     0.075 C 
HETATM   12  C           1     -41.289  57.893 -52.939  0.00  0.00     0.036 C 
HETATM   13  H           1     -44.465  56.630 -56.231  0.00  0.00     0.163 HD
HETATM   14  H           1     -42.593  56.808 -50.279  0.00  0.00     0.284 HD
HETATM   15  H           1     -41.204  55.891 -50.463  0.00  0.00     0.284 HD
ENDROOT
BRANCH   2  16
HETATM   16  S           1     -41.882  57.916 -56.721  0.00  0.00    -0.125 SA
BRANCH  16  17
HETATM   17  C           1     -42.826  56.851 -57.853  0.00  0.00     0.077 C 
BRANCH  17  18
HETATM   18  C           1     -42.762  57.449 -59.268  0.00  0.00     0.010 C 
BRANCH  18  19
HETATM   19  C           1     -43.740  56.745 -60.223  0.00  0.00    -0.004 C 
HETATM   20  C           1     -44.049  55.311 -59.771  0.00  0.00     0.005 C 
ENDBRANCH  18  19
ENDBRANCH  17  18
ENDBRANCH  16  17
ENDBRANCH   2  16
BRANCH   2  21
HETATM   21  S           1     -43.614  59.360 -54.607  0.00  0.00    -0.125 SA
BRANCH  21  22
HETATM   22  C           1     -45.166  59.324 -55.558  0.00  0.00     0.077 C 
BRANCH  22  23
HETATM   23  C           1     -44.942  60.050 -56.896  0.00  0.00     0.010 C 
BRANCH  23  24
HETATM   24  C           1     -45.748  59.402 -58.033  0.00  0.00    -0.004 C 
HETATM   25  C           1     -46.520  58.164 -57.555  0.00  0.00     0.005 C 
ENDBRANCH  23  24
ENDBRANCH  22  23
ENDBRANCH  21  22
ENDBRANCH   2  21
BRANCH   3  26
HETATM   26  C           1     -43.937  57.323 -52.341  0.00  0.00     0.105 C 
HETATM   27  N           1     -44.982  57.354 -51.840  0.00  0.00    -0.151 N 
ENDBRANCH   3  26
BRANCH   1  28
HETATM   28  N           1     -44.957  55.004 -54.268  0.00  0.00    -0.388 N 
HETATM   29  H           1     -45.566  54.895 -53.420  0.00  0.00     0.157 HD
HETATM   30  H           1     -45.069  54.321 -55.058  0.00  0.00     0.157 HD
ENDBRANCH   1  28
BRANCH   7  31
HETATM   31  C           1     -41.682  54.375 -52.431  0.00  0.00    -0.026 A 
HETATM   32  C           1     -42.046  53.556 -53.436  0.00  0.00     0.009 A 
HETATM   33  C           1     -41.282  52.517 -53.811  0.00  0.00     0.001 A 
HETATM   34  C           1     -40.128  52.272 -53.176  0.00  0.00     0.000 A 
HETATM   35  C           1     -39.751  53.070 -52.166  0.00  0.00     0.001 A 
HETATM   36  C           1     -40.523  54.106 -51.801  0.00  0.00     0.009 A 
ENDBRANCH   7  31
TORSDOF 11
ENDMDL
MODEL 9
REMARK VINA RESULT:      -6.2      2.298      6.630
REMARK  11 active torsions:
REMARK  status: ('A' for Active; 'I' for Inactive)
REMARK    1  A    between atoms: C_1  and  C_17 
REMARK    2  A    between atoms: C_1  and  S_18 
REMARK    3  A    between atoms: C_2  and  N_23 
REMARK    4  A    between atoms: C_3  and  C_13 
REMARK    5  A    between atoms: C_6  and  S_18 
REMARK    6  A    between atoms: C_6  and  S_19 
REMARK    7  A    between atoms: C_7  and  C_20 
REMARK    8  A    between atoms: C_7  and  C_21 
REMARK    9  A    between atoms: C_9  and  C_24 
REMARK   10  A    between atoms: C_16  and  C_17 
REMARK   11  A    between atoms: S_19  and  C_20 
ROOT
HETATM    1  C           1     -44.086  56.779 -53.508  0.00  0.00     0.092 C 
HETATM    2  C           1     -42.502  58.421 -52.736  0.00  0.00     0.156 C 
HETATM    3  C           1     -43.390  56.201 -52.308  0.00  0.00     0.127 C 
HETATM    4  C           1     -42.062  56.987 -52.268  0.00  0.00     0.136 C 
HETATM    5  C           1     -41.062  56.458 -53.239  0.00  0.00     0.079 C 
HETATM    6  N           1     -40.278  55.963 -53.937  0.00  0.00    -0.196 NA
HETATM    7  C           1     -43.142  54.673 -51.963  0.00  0.00     0.248 C 
HETATM    8  C           1     -41.688  55.596 -50.156  0.00  0.00     0.105 C 
HETATM    9  N           1     -43.623  57.987 -53.705  0.00  0.00    -0.350 N 
HETATM   10  N           1     -42.611  54.523 -50.498  0.00  0.00    -0.040 N 
HETATM   11  C           1     -40.984  55.410 -48.833  0.00  0.00     0.075 C 
HETATM   12  C           1     -41.459  56.703 -50.904  0.00  0.00     0.036 C 
HETATM   13  H           1     -43.974  58.596 -54.455  0.00  0.00     0.163 HD
HETATM   14  H           1     -43.394  54.463 -49.814  0.00  0.00     0.284 HD
HETATM   15  H           1     -42.093  53.617 -50.441  0.00  0.00     0.284 HD
ENDROOT
BRANCH   2  16
HETATM   16  S           1     -41.234  59.301 -53.706  0.00  0.00    -0.125 SA
BRANCH  16  17
HETATM   17  C           1     -42.213  60.112 -55.006  0.00  0.00     0.077 C 
BRANCH  17  18
HETATM   18  C           1     -42.123  59.275 -56.292  0.00  0.00     0.010 C 
BRANCH  18  19
HETATM   19  C           1     -41.756  60.142 -57.507  0.00  0.00    -0.004 C 
HETATM   20  C           1     -42.205  61.599 -57.327  0.00  0.00     0.005 C 
ENDBRANCH  18  19
ENDBRANCH  17  18
ENDBRANCH  16  17
ENDBRANCH   2  16
BRANCH   2  21
HETATM   21  S           1     -43.226  59.353 -51.343  0.00  0.00    -0.125 SA
BRANCH  21  22
HETATM   22  C           1     -41.829  60.436 -50.904  0.00  0.00     0.077 C 
BRANCH  22  23
HETATM   23  C           1     -40.876  59.661 -49.980  0.00  0.00     0.010 C 
BRANCH  23  24
HETATM   24  C           1     -39.420  60.124 -50.152  0.00  0.00    -0.004 C 
HETATM   25  C           1     -38.572  59.082 -50.895  0.00  0.00     0.005 C 
ENDBRANCH  23  24
ENDBRANCH  22  23
ENDBRANCH  21  22
ENDBRANCH   2  21
BRANCH   3  26
HETATM   26  C           1     -44.216  56.464 -51.095  0.00  0.00     0.105 C 
HETATM   27  N           1     -45.201  57.025 -50.851  0.00  0.00    -0.151 N 
ENDBRANCH   3  26
BRANCH   1  28
HETATM   28  N           1     -45.025  56.240 -54.165  0.00  0.00    -0.388 N 
HETATM   29  H           1     -45.748  55.651 -53.685  0.00  0.00     0.157 HD
HETATM   30  H           1     -45.091  56.368 -55.206  0.00  0.00     0.157 HD
ENDBRANCH   1  28
BRANCH   7  31
HETATM   31  C           1     -42.289  53.889 -52.948  0.00  0.00    -0.026 A 
HETATM   32  C           1     -41.190  53.246 -52.511  0.00  0.00     0.009 A 
HETATM   33  C           1     -40.401  52.548 -53.344  0.00  0.00     0.001 A 
HETATM   34  C           1     -40.698  52.485 -54.649  0.00  0.00     0.000 A 
HETATM   35  C           1     -41.782  53.126 -55.108  0.00  0.00     0.001 A 
HETATM   36  C           1     -42.564  53.819 -54.265  0.00  0.00     0.009 A 
ENDBRANCH   7  31
TORSDOF 11
ENDMDL
MODEL 10
REMARK VINA RESULT:      -6.2      2.356      6.798
REMARK  11 active torsions:
REMARK  status: ('A' for Active; 'I' for Inactive)
REMARK    1  A    between atoms: C_1  and  C_17 
REMARK    2  A    between atoms: C_1  and  S_18 
REMARK    3  A    between atoms: C_2  and  N_23 
REMARK    4  A    between atoms: C_3  and  C_13 
REMARK    5  A    between atoms: C_6  and  S_18 
REMARK    6  A    between atoms: C_6  and  S_19 
REMARK    7  A    between atoms: C_7  and  C_20 
REMARK    8  A    between atoms: C_7  and  C_21 
REMARK    9  A    between atoms: C_9  and  C_24 
REMARK   10  A    between atoms: C_16  and  C_17 
REMARK   11  A    between atoms: S_19  and  C_20 
ROOT
HETATM    1  C           1     -44.067  55.511 -54.248  0.00  0.00     0.092 C 
HETATM    2  C           1     -42.954  57.479 -55.080  0.00  0.00     0.156 C 
HETATM    3  C           1     -43.158  56.007 -53.159  0.00  0.00     0.127 C 
HETATM    4  C           1     -42.101  56.822 -53.935  0.00  0.00     0.136 C 
HETATM    5  C           1     -41.061  55.953 -54.556  0.00  0.00     0.079 C 
HETATM    6  N           1     -40.220  55.256 -54.946  0.00  0.00    -0.196 NA
HETATM    7  C           1     -42.473  55.169 -52.000  0.00  0.00     0.248 C 
HETATM    8  C           1     -41.214  57.283 -51.582  0.00  0.00     0.105 C 
HETATM    9  N           1     -43.972  56.333 -55.262  0.00  0.00    -0.350 N 
HETATM   10  N           1     -41.823  56.124 -50.944  0.00  0.00    -0.040 N 
HETATM   11  C           1     -40.400  58.147 -50.649  0.00  0.00     0.075 C 
HETATM   12  C           1     -41.353  57.625 -52.886  0.00  0.00     0.036 C 
HETATM   13  H           1     -44.529  56.217 -56.119  0.00  0.00     0.163 HD
HETATM   14  H           1     -42.511  56.410 -50.215  0.00  0.00     0.284 HD
HETATM   15  H           1     -41.072  55.589 -50.453  0.00  0.00     0.284 HD
ENDROOT
BRANCH   2  16
HETATM   16  S           1     -42.049  57.677 -56.650  0.00  0.00    -0.125 SA
BRANCH  16  17
HETATM   17  C           1     -43.317  57.300 -57.897  0.00  0.00     0.077 C 
BRANCH  17  18
HETATM   18  C           1     -42.786  56.200 -58.829  0.00  0.00     0.010 C 
BRANCH  18  19
HETATM   19  C           1     -43.920  55.295 -59.339  0.00  0.00    -0.004 C 
HETATM   20  C           1     -45.107  56.111 -59.870  0.00  0.00     0.005 C 
ENDBRANCH  18  19
ENDBRANCH  17  18
ENDBRANCH  16  17
ENDBRANCH   2  16
BRANCH   2  21
HETATM   21  S           1     -43.813  58.967 -54.464  0.00  0.00    -0.125 SA
BRANCH  21  22
HETATM   22  C           1     -42.552  60.239 -54.790  0.00  0.00     0.077 C 
BRANCH  22  23
HETATM   23  C           1     -42.422  61.136 -53.548  0.00  0.00     0.010 C 
BRANCH  23  24
HETATM   24  C           1     -43.339  60.661 -52.408  0.00  0.00    -0.004 C 
HETATM   25  C           1     -42.764  61.009 -51.028  0.00  0.00     0.005 C 
ENDBRANCH  23  24
ENDBRANCH  22  23
ENDBRANCH  21  22
ENDBRANCH   2  21
BRANCH   3  26
HETATM   26  C           1     -43.942  56.873 -52.231  0.00  0.00     0.105 C 
HETATM   27  N           1     -44.750  56.719 -51.414  0.00  0.00    -0.151 N 
ENDBRANCH   3  26
BRANCH   1  28
HETATM   28  N           1     -44.860  54.527 -54.176  0.00  0.00    -0.388 N 
HETATM   29  H           1     -45.121  53.983 -55.035  0.00  0.00     0.157 HD
HETATM   30  H           1     -45.275  54.242 -53.255  0.00  0.00     0.157 HD
ENDBRANCH   1  28
BRANCH   7  31
HETATM   31  C           1     -41.503  54.081 -52.438  0.00  0.00    -0.026 A 
HETATM   32  C           1     -41.817  53.292 -53.483  0.00  0.00     0.009 A 
HETATM   33  C           1     -40.997  52.314 -53.900  0.00  0.00     0.001 A 
HETATM   34  C           1     -39.836  52.100 -53.267  0.00  0.00     0.000 A 
HETATM   35  C           1     -39.508  52.867 -52.217  0.00  0.00     0.001 A 
HETATM   36  C           1     -40.335  53.843 -51.811  0.00  0.00     0.009 A 
ENDBRANCH   7  31
TORSDOF 11
ENDMDL
