MODEL 1
REMARK VINA RESULT:      -8.1      0.000      0.000
REMARK  8 active torsions:
REMARK  status: ('A' for Active; 'I' for Inactive)
REMARK    1  A    between atoms: C_3  and  C_4 
REMARK    2  A    between atoms: C_4  and  C_5 
REMARK    3  A    between atoms: C_5  and  N_6 
REMARK       I    between atoms: N_6  and  C_7 
REMARK    4  A    between atoms: C_7  and  C_8 
REMARK    5  A    between atoms: C_8  and  S_9 
REMARK    6  A    between atoms: S_9  and  C_10 
REMARK    7  A    between atoms: C_13  and  C_14 
REMARK    8  A    between atoms: C_15  and  O_16 
ROOT
HETATM    1  S   UNL     1     -43.601  56.634 -52.184  1.00  0.00    -0.081 SA
ENDROOT
BRANCH   1   2
HETATM    2  C   UNL     1     -42.087  56.977 -51.247  1.00  0.00     0.185 C 
BRANCH   2   3
HETATM    3  C   UNL     1     -41.622  55.763 -50.449  1.00  0.00     0.227 C 
HETATM    4  N   UNL     1     -41.568  54.602 -51.207  1.00  0.00    -0.360 N 
HETATM    5  H   UNL     1     -42.036  54.590 -52.104  1.00  0.00     0.162 HD
HETATM    6  O   UNL     1     -41.300  55.786 -49.264  1.00  0.00    -0.273 OA
BRANCH   4   7
HETATM    7  C   UNL     1     -41.215  53.332 -50.594  1.00  0.00     0.127 C 
BRANCH   7   8
HETATM    8  C   UNL     1     -39.821  52.867 -51.015  1.00  0.00     0.058 C 
BRANCH   8   9
HETATM    9  C   UNL     1     -39.866  51.880 -52.160  1.00  0.00    -0.051 A 
HETATM   10  C   UNL     1     -39.674  50.493 -51.991  1.00  0.00    -0.056 A 
HETATM   11  C   UNL     1     -39.406  49.838 -50.663  1.00  0.00     0.049 C 
HETATM   12  C   UNL     1     -39.710  49.657 -53.122  1.00  0.00     0.007 A 
HETATM   13  C   UNL     1     -39.935  50.175 -54.397  1.00  0.00     0.001 A 
HETATM   14  C   UNL     1     -40.121  51.540 -54.564  1.00  0.00     0.001 A 
HETATM   15  C   UNL     1     -40.084  52.386 -53.455  1.00  0.00     0.007 A 
ENDBRANCH   8   9
ENDBRANCH   7   8
ENDBRANCH   4   7
ENDBRANCH   2   3
ENDBRANCH   1   2
BRANCH   1  16
HETATM   16  C   UNL     1     -42.906  56.368 -53.743  1.00  0.00     0.191 A 
HETATM   17  N   UNL     1     -43.469  56.772 -54.919  1.00  0.00    -0.312 N 
HETATM   18  C   UNL     1     -44.720  57.459 -55.115  1.00  0.00     0.160 C 
HETATM   19  C   UNL     1     -42.567  56.425 -55.901  1.00  0.00     0.166 A 
HETATM   20  N   UNL     1     -41.540  55.816 -55.333  1.00  0.00    -0.128 NA
HETATM   21  N   UNL     1     -41.751  55.792 -53.973  1.00  0.00    -0.122 NA
BRANCH  19  22
HETATM   22  C   UNL     1     -42.719  56.712 -57.323  1.00  0.00     0.045 A 
HETATM   23  C   UNL     1     -42.450  57.984 -57.845  1.00  0.00     0.082 A 
HETATM   24  C   UNL     1     -42.575  58.233 -59.215  1.00  0.00     0.038 A 
HETATM   25  C   UNL     1     -43.005  57.218 -60.069  1.00  0.00     0.003 A 
HETATM   26  C   UNL     1     -43.299  55.954 -59.558  1.00  0.00     0.001 A 
HETATM   27  C   UNL     1     -43.155  55.702 -58.191  1.00  0.00     0.018 A 
BRANCH  23  28
HETATM   28  O   UNL     1     -41.969  58.975 -57.025  1.00  0.00    -0.355 OA
HETATM   29  C   UNL     1     -41.766  60.179 -57.767  1.00  0.00     0.210 C 
ENDBRANCH  23  28
ENDBRANCH  19  22
ENDBRANCH   1  16
TORSDOF 8
ENDMDL
MODEL 2
REMARK VINA RESULT:      -8.0      1.870      8.108
REMARK  8 active torsions:
REMARK  status: ('A' for Active; 'I' for Inactive)
REMARK    1  A    between atoms: C_3  and  C_4 
REMARK    2  A    between atoms: C_4  and  C_5 
REMARK    3  A    between atoms: C_5  and  N_6 
REMARK       I    between atoms: N_6  and  C_7 
REMARK    4  A    between atoms: C_7  and  C_8 
REMARK    5  A    between atoms: C_8  and  S_9 
REMARK    6  A    between atoms: S_9  and  C_10 
REMARK    7  A    between atoms: C_13  and  C_14 
REMARK    8  A    between atoms: C_15  and  O_16 
ROOT
HETATM    1  S   UNL     1     -43.274  57.036 -53.321  1.00  0.00    -0.081 SA
ENDROOT
BRANCH   1   2
HETATM    2  C   UNL     1     -44.356  56.641 -54.722  1.00  0.00     0.185 C 
BRANCH   2   3
HETATM    3  C   UNL     1     -43.997  57.449 -55.966  1.00  0.00     0.227 C 
HETATM    4  N   UNL     1     -43.026  56.842 -56.748  1.00  0.00    -0.360 N 
HETATM    5  H   UNL     1     -42.489  56.083 -56.348  1.00  0.00     0.162 HD
HETATM    6  O   UNL     1     -44.515  58.518 -56.278  1.00  0.00    -0.273 OA
BRANCH   4   7
HETATM    7  C   UNL     1     -42.509  57.503 -57.935  1.00  0.00     0.127 C 
BRANCH   7   8
HETATM    8  C   UNL     1     -42.801  56.703 -59.204  1.00  0.00     0.058 C 
BRANCH   8   9
HETATM    9  C   UNL     1     -44.240  56.835 -59.648  1.00  0.00    -0.051 A 
HETATM   10  C   UNL     1     -45.071  55.727 -59.911  1.00  0.00    -0.056 A 
HETATM   11  C   UNL     1     -44.629  54.295 -59.779  1.00  0.00     0.049 C 
HETATM   12  C   UNL     1     -46.391  55.952 -60.343  1.00  0.00     0.007 A 
HETATM   13  C   UNL     1     -46.886  57.244 -60.512  1.00  0.00     0.001 A 
HETATM   14  C   UNL     1     -46.067  58.335 -60.256  1.00  0.00     0.001 A 
HETATM   15  C   UNL     1     -44.754  58.133 -59.831  1.00  0.00     0.007 A 
ENDBRANCH   8   9
ENDBRANCH   7   8
ENDBRANCH   4   7
ENDBRANCH   2   3
ENDBRANCH   1   2
BRANCH   1  16
HETATM   16  C   UNL     1     -42.012  55.893 -53.616  1.00  0.00     0.191 A 
HETATM   17  N   UNL     1     -41.982  54.626 -53.109  1.00  0.00    -0.312 N 
HETATM   18  C   UNL     1     -42.940  53.996 -52.237  1.00  0.00     0.160 C 
HETATM   19  C   UNL     1     -40.853  54.041 -53.639  1.00  0.00     0.166 A 
HETATM   20  N   UNL     1     -40.233  54.930 -54.394  1.00  0.00    -0.128 NA
HETATM   21  N   UNL     1     -40.970  56.093 -54.387  1.00  0.00    -0.122 NA
BRANCH  19  22
HETATM   22  C   UNL     1     -40.440  52.660 -53.418  1.00  0.00     0.045 A 
HETATM   23  C   UNL     1     -39.822  52.261 -52.226  1.00  0.00     0.082 A 
HETATM   24  C   UNL     1     -39.458  50.927 -52.023  1.00  0.00     0.038 A 
HETATM   25  C   UNL     1     -39.678  49.986 -53.027  1.00  0.00     0.003 A 
HETATM   26  C   UNL     1     -40.272  50.374 -54.228  1.00  0.00     0.001 A 
HETATM   27  C   UNL     1     -40.652  51.705 -54.423  1.00  0.00     0.018 A 
BRANCH  23  28
HETATM   28  O   UNL     1     -39.652  53.165 -51.206  1.00  0.00    -0.355 OA
HETATM   29  C   UNL     1     -40.365  52.742 -50.043  1.00  0.00     0.210 C 
ENDBRANCH  23  28
ENDBRANCH  19  22
ENDBRANCH   1  16
TORSDOF 8
ENDMDL
MODEL 3
REMARK VINA RESULT:      -7.8      2.062      3.021
REMARK  8 active torsions:
REMARK  status: ('A' for Active; 'I' for Inactive)
REMARK    1  A    between atoms: C_3  and  C_4 
REMARK    2  A    between atoms: C_4  and  C_5 
REMARK    3  A    between atoms: C_5  and  N_6 
REMARK       I    between atoms: N_6  and  C_7 
REMARK    4  A    between atoms: C_7  and  C_8 
REMARK    5  A    between atoms: C_8  and  S_9 
REMARK    6  A    between atoms: S_9  and  C_10 
REMARK    7  A    between atoms: C_13  and  C_14 
REMARK    8  A    between atoms: C_15  and  O_16 
ROOT
HETATM    1  S   UNL     1     -42.019  59.837 -53.683  1.00  0.00    -0.081 SA
ENDROOT
BRANCH   1   2
HETATM    2  C   UNL     1     -40.593  58.807 -53.242  1.00  0.00     0.185 C 
BRANCH   2   3
HETATM    3  C   UNL     1     -40.859  57.967 -51.997  1.00  0.00     0.227 C 
HETATM    4  N   UNL     1     -41.239  56.665 -52.290  1.00  0.00    -0.360 N 
HETATM    5  H   UNL     1     -41.526  56.448 -53.236  1.00  0.00     0.162 HD
HETATM    6  O   UNL     1     -40.737  58.369 -50.843  1.00  0.00    -0.273 OA
BRANCH   4   7
HETATM    7  C   UNL     1     -41.602  55.742 -51.228  1.00  0.00     0.127 C 
BRANCH   7   8
HETATM    8  C   UNL     1     -42.325  54.509 -51.770  1.00  0.00     0.058 C 
BRANCH   8   9
HETATM    9  C   UNL     1     -41.375  53.518 -52.403  1.00  0.00    -0.051 A 
HETATM   10  C   UNL     1     -41.358  53.240 -53.786  1.00  0.00    -0.056 A 
HETATM   11  C   UNL     1     -42.274  53.893 -54.785  1.00  0.00     0.049 C 
HETATM   12  C   UNL     1     -40.452  52.282 -54.278  1.00  0.00     0.007 A 
HETATM   13  C   UNL     1     -39.576  51.611 -53.426  1.00  0.00     0.001 A 
HETATM   14  C   UNL     1     -39.594  51.883 -52.065  1.00  0.00     0.001 A 
HETATM   15  C   UNL     1     -40.488  52.825 -51.557  1.00  0.00     0.007 A 
ENDBRANCH   8   9
ENDBRANCH   7   8
ENDBRANCH   4   7
ENDBRANCH   2   3
ENDBRANCH   1   2
BRANCH   1  16
HETATM   16  C   UNL     1     -42.897  58.698 -54.642  1.00  0.00     0.191 A 
HETATM   17  N   UNL     1     -42.865  58.650 -56.005  1.00  0.00    -0.312 N 
HETATM   18  C   UNL     1     -42.145  59.510 -56.909  1.00  0.00     0.160 C 
HETATM   19  C   UNL     1     -43.641  57.566 -56.356  1.00  0.00     0.166 A 
HETATM   20  N   UNL     1     -44.130  57.025 -55.253  1.00  0.00    -0.128 NA
HETATM   21  N   UNL     1     -43.651  57.733 -54.174  1.00  0.00    -0.122 NA
BRANCH  19  22
HETATM   22  C   UNL     1     -43.854  57.089 -57.717  1.00  0.00     0.045 A 
HETATM   23  C   UNL     1     -44.893  57.588 -58.514  1.00  0.00     0.082 A 
HETATM   24  C   UNL     1     -45.063  57.138 -59.826  1.00  0.00     0.038 A 
HETATM   25  C   UNL     1     -44.216  56.157 -60.340  1.00  0.00     0.003 A 
HETATM   26  C   UNL     1     -43.193  55.636 -59.550  1.00  0.00     0.001 A 
HETATM   27  C   UNL     1     -43.011  56.100 -58.244  1.00  0.00     0.018 A 
BRANCH  23  28
HETATM   28  O   UNL     1     -45.697  58.595 -58.041  1.00  0.00    -0.355 OA
HETATM   29  C   UNL     1     -47.015  58.104 -57.792  1.00  0.00     0.210 C 
ENDBRANCH  23  28
ENDBRANCH  19  22
ENDBRANCH   1  16
TORSDOF 8
ENDMDL
MODEL 4
REMARK VINA RESULT:      -7.8      2.766      5.230
REMARK  8 active torsions:
REMARK  status: ('A' for Active; 'I' for Inactive)
REMARK    1  A    between atoms: C_3  and  C_4 
REMARK    2  A    between atoms: C_4  and  C_5 
REMARK    3  A    between atoms: C_5  and  N_6 
REMARK       I    between atoms: N_6  and  C_7 
REMARK    4  A    between atoms: C_7  and  C_8 
REMARK    5  A    between atoms: C_8  and  S_9 
REMARK    6  A    between atoms: S_9  and  C_10 
REMARK    7  A    between atoms: C_13  and  C_14 
REMARK    8  A    between atoms: C_15  and  O_16 
ROOT
HETATM    1  S   UNL     1     -43.949  57.245 -56.836  1.00  0.00    -0.081 SA
ENDROOT
BRANCH   1   2
HETATM    2  C   UNL     1     -42.794  55.869 -57.084  1.00  0.00     0.185 C 
BRANCH   2   3
HETATM    3  C   UNL     1     -42.605  55.046 -55.814  1.00  0.00     0.227 C 
HETATM    4  N   UNL     1     -41.287  55.005 -55.383  1.00  0.00    -0.360 N 
HETATM    5  H   UNL     1     -40.561  55.298 -56.024  1.00  0.00     0.162 HD
HETATM    6  O   UNL     1     -43.511  54.486 -55.202  1.00  0.00    -0.273 OA
BRANCH   4   7
HETATM    7  C   UNL     1     -40.909  54.208 -54.228  1.00  0.00     0.127 C 
BRANCH   7   8
HETATM    8  C   UNL     1     -40.186  52.924 -54.636  1.00  0.00     0.058 C 
BRANCH   8   9
HETATM    9  C   UNL     1     -39.981  51.984 -53.470  1.00  0.00    -0.051 A 
HETATM   10  C   UNL     1     -39.785  50.596 -53.622  1.00  0.00    -0.056 A 
HETATM   11  C   UNL     1     -39.758  49.893 -54.952  1.00  0.00     0.049 C 
HETATM   12  C   UNL     1     -39.626  49.799 -52.473  1.00  0.00     0.007 A 
HETATM   13  C   UNL     1     -39.656  50.358 -51.196  1.00  0.00     0.001 A 
HETATM   14  C   UNL     1     -39.850  51.725 -51.046  1.00  0.00     0.001 A 
HETATM   15  C   UNL     1     -40.014  52.530 -52.173  1.00  0.00     0.007 A 
ENDBRANCH   8   9
ENDBRANCH   7   8
ENDBRANCH   4   7
ENDBRANCH   2   3
ENDBRANCH   1   2
BRANCH   1  16
HETATM   16  C   UNL     1     -42.965  58.254 -55.836  1.00  0.00     0.191 A 
HETATM   17  N   UNL     1     -42.981  58.239 -54.471  1.00  0.00    -0.312 N 
HETATM   18  C   UNL     1     -43.798  57.434 -53.600  1.00  0.00     0.160 C 
HETATM   19  C   UNL     1     -42.010  59.136 -54.079  1.00  0.00     0.166 A 
HETATM   20  N   UNL     1     -41.474  59.674 -55.161  1.00  0.00    -0.128 NA
HETATM   21  N   UNL     1     -42.070  59.109 -56.266  1.00  0.00    -0.122 NA
BRANCH  19  22
HETATM   22  C   UNL     1     -41.628  59.412 -52.700  1.00  0.00     0.045 A 
HETATM   23  C   UNL     1     -42.355  60.309 -51.904  1.00  0.00     0.082 A 
HETATM   24  C   UNL     1     -41.989  60.540 -50.575  1.00  0.00     0.038 A 
HETATM   25  C   UNL     1     -40.870  59.901 -50.041  1.00  0.00     0.003 A 
HETATM   26  C   UNL     1     -40.125  59.025 -50.829  1.00  0.00     0.001 A 
HETATM   27  C   UNL     1     -40.503  58.780 -52.152  1.00  0.00     0.018 A 
BRANCH  23  28
HETATM   28  O   UNL     1     -43.491  60.898 -52.399  1.00  0.00    -0.355 OA
HETATM   29  C   UNL     1     -44.015  61.836 -51.457  1.00  0.00     0.210 C 
ENDBRANCH  23  28
ENDBRANCH  19  22
ENDBRANCH   1  16
TORSDOF 8
ENDMDL
MODEL 5
REMARK VINA RESULT:      -7.7      1.795      8.062
REMARK  8 active torsions:
REMARK  status: ('A' for Active; 'I' for Inactive)
REMARK    1  A    between atoms: C_3  and  C_4 
REMARK    2  A    between atoms: C_4  and  C_5 
REMARK    3  A    between atoms: C_5  and  N_6 
REMARK       I    between atoms: N_6  and  C_7 
REMARK    4  A    between atoms: C_7  and  C_8 
REMARK    5  A    between atoms: C_8  and  S_9 
REMARK    6  A    between atoms: S_9  and  C_10 
REMARK    7  A    between atoms: C_13  and  C_14 
REMARK    8  A    between atoms: C_15  and  O_16 
ROOT
HETATM    1  S   UNL     1     -43.761  57.382 -52.978  1.00  0.00    -0.081 SA
ENDROOT
BRANCH   1   2
HETATM    2  C   UNL     1     -44.873  56.857 -54.311  1.00  0.00     0.185 C 
BRANCH   2   3
HETATM    3  C   UNL     1     -44.910  57.867 -55.454  1.00  0.00     0.227 C 
HETATM    4  N   UNL     1     -46.042  57.750 -56.246  1.00  0.00    -0.360 N 
HETATM    5  H   UNL     1     -46.604  56.912 -56.165  1.00  0.00     0.162 HD
HETATM    6  O   UNL     1     -44.051  58.719 -55.662  1.00  0.00    -0.273 OA
BRANCH   4   7
HETATM    7  C   UNL     1     -46.211  58.583 -57.425  1.00  0.00     0.127 C 
BRANCH   7   8
HETATM    8  C   UNL     1     -46.161  57.762 -58.714  1.00  0.00     0.058 C 
BRANCH   8   9
HETATM    9  C   UNL     1     -44.746  57.527 -59.191  1.00  0.00    -0.051 A 
HETATM   10  C   UNL     1     -44.019  58.473 -59.943  1.00  0.00    -0.056 A 
HETATM   11  C   UNL     1     -44.561  59.815 -60.354  1.00  0.00     0.049 C 
HETATM   12  C   UNL     1     -42.714  58.153 -60.362  1.00  0.00     0.007 A 
HETATM   13  C   UNL     1     -42.133  56.926 -60.045  1.00  0.00     0.001 A 
HETATM   14  C   UNL     1     -42.850  55.994 -59.307  1.00  0.00     0.001 A 
HETATM   15  C   UNL     1     -44.146  56.291 -58.886  1.00  0.00     0.007 A 
ENDBRANCH   8   9
ENDBRANCH   7   8
ENDBRANCH   4   7
ENDBRANCH   2   3
ENDBRANCH   1   2
BRANCH   1  16
HETATM   16  C   UNL     1     -42.411  56.361 -53.326  1.00  0.00     0.191 A 
HETATM   17  N   UNL     1     -42.297  55.064 -52.915  1.00  0.00    -0.312 N 
HETATM   18  C   UNL     1     -43.221  54.301 -52.117  1.00  0.00     0.160 C 
HETATM   19  C   UNL     1     -41.117  54.605 -53.459  1.00  0.00     0.166 A 
HETATM   20  N   UNL     1     -40.551  55.593 -54.130  1.00  0.00    -0.128 NA
HETATM   21  N   UNL     1     -41.373  56.695 -54.054  1.00  0.00    -0.122 NA
BRANCH  19  22
HETATM   22  C   UNL     1     -40.606  53.245 -53.333  1.00  0.00     0.045 A 
HETATM   23  C   UNL     1     -39.987  52.802 -52.156  1.00  0.00     0.082 A 
HETATM   24  C   UNL     1     -39.528  51.487 -52.045  1.00  0.00     0.038 A 
HETATM   25  C   UNL     1     -39.653  50.613 -53.124  1.00  0.00     0.003 A 
HETATM   26  C   UNL     1     -40.247  51.049 -54.309  1.00  0.00     0.001 A 
HETATM   27  C   UNL     1     -40.722  52.358 -54.412  1.00  0.00     0.018 A 
BRANCH  23  28
HETATM   28  O   UNL     1     -39.909  53.633 -51.067  1.00  0.00    -0.355 OA
HETATM   29  C   UNL     1     -40.363  52.958 -49.893  1.00  0.00     0.210 C 
ENDBRANCH  23  28
ENDBRANCH  19  22
ENDBRANCH   1  16
TORSDOF 8
ENDMDL
MODEL 6
REMARK VINA RESULT:      -7.6      1.762      7.161
REMARK  8 active torsions:
REMARK  status: ('A' for Active; 'I' for Inactive)
REMARK    1  A    between atoms: C_3  and  C_4 
REMARK    2  A    between atoms: C_4  and  C_5 
REMARK    3  A    between atoms: C_5  and  N_6 
REMARK       I    between atoms: N_6  and  C_7 
REMARK    4  A    between atoms: C_7  and  C_8 
REMARK    5  A    between atoms: C_8  and  S_9 
REMARK    6  A    between atoms: S_9  and  C_10 
REMARK    7  A    between atoms: C_13  and  C_14 
REMARK    8  A    between atoms: C_15  and  O_16 
ROOT
HETATM    1  S   UNL     1     -43.976  57.464 -51.743  1.00  0.00    -0.081 SA
ENDROOT
BRANCH   1   2
HETATM    2  C   UNL     1     -43.612  59.074 -52.496  1.00  0.00     0.185 C 
BRANCH   2   3
HETATM    3  C   UNL     1     -44.175  59.182 -53.909  1.00  0.00     0.227 C 
HETATM    4  N   UNL     1     -43.258  58.833 -54.889  1.00  0.00    -0.360 N 
HETATM    5  H   UNL     1     -42.280  58.768 -54.634  1.00  0.00     0.162 HD
HETATM    6  O   UNL     1     -45.325  59.520 -54.180  1.00  0.00    -0.273 OA
BRANCH   4   7
HETATM    7  C   UNL     1     -43.598  58.945 -56.298  1.00  0.00     0.127 C 
BRANCH   7   8
HETATM    8  C   UNL     1     -42.503  58.367 -57.194  1.00  0.00     0.058 C 
BRANCH   8   9
HETATM    9  C   UNL     1     -43.038  57.339 -58.165  1.00  0.00    -0.051 A 
HETATM   10  C   UNL     1     -43.139  55.966 -57.858  1.00  0.00    -0.056 A 
HETATM   11  C   UNL     1     -42.730  55.369 -56.540  1.00  0.00     0.049 C 
HETATM   12  C   UNL     1     -43.629  55.083 -58.838  1.00  0.00     0.007 A 
HETATM   13  C   UNL     1     -44.016  55.541 -60.097  1.00  0.00     0.001 A 
HETATM   14  C   UNL     1     -43.914  56.892 -60.400  1.00  0.00     0.001 A 
HETATM   15  C   UNL     1     -43.427  57.783 -59.443  1.00  0.00     0.007 A 
ENDBRANCH   8   9
ENDBRANCH   7   8
ENDBRANCH   4   7
ENDBRANCH   2   3
ENDBRANCH   1   2
BRANCH   1  16
HETATM   16  C   UNL     1     -42.626  56.568 -52.341  1.00  0.00     0.191 A 
HETATM   17  N   UNL     1     -42.467  55.220 -52.195  1.00  0.00    -0.312 N 
HETATM   18  C   UNL     1     -43.338  54.291 -51.521  1.00  0.00     0.160 C 
HETATM   19  C   UNL     1     -41.307  54.907 -52.869  1.00  0.00     0.166 A 
HETATM   20  N   UNL     1     -40.792  56.022 -53.360  1.00  0.00    -0.128 NA
HETATM   21  N   UNL     1     -41.630  57.065 -53.035  1.00  0.00    -0.122 NA
BRANCH  19  22
HETATM   22  C   UNL     1     -40.765  53.563 -53.032  1.00  0.00     0.045 A 
HETATM   23  C   UNL     1     -39.999  52.956 -52.028  1.00  0.00     0.082 A 
HETATM   24  C   UNL     1     -39.512  51.656 -52.192  1.00  0.00     0.038 A 
HETATM   25  C   UNL     1     -39.756  50.966 -53.379  1.00  0.00     0.003 A 
HETATM   26  C   UNL     1     -40.498  51.569 -54.395  1.00  0.00     0.001 A 
HETATM   27  C   UNL     1     -41.001  52.861 -54.222  1.00  0.00     0.018 A 
BRANCH  23  28
HETATM   28  O   UNL     1     -39.800  53.601 -50.832  1.00  0.00    -0.355 OA
HETATM   29  C   UNL     1     -40.393  52.861 -49.764  1.00  0.00     0.210 C 
ENDBRANCH  23  28
ENDBRANCH  19  22
ENDBRANCH   1  16
TORSDOF 8
ENDMDL
MODEL 7
REMARK VINA RESULT:      -7.5      4.739      7.284
REMARK  8 active torsions:
REMARK  status: ('A' for Active; 'I' for Inactive)
REMARK    1  A    between atoms: C_3  and  C_4 
REMARK    2  A    between atoms: C_4  and  C_5 
REMARK    3  A    between atoms: C_5  and  N_6 
REMARK       I    between atoms: N_6  and  C_7 
REMARK    4  A    between atoms: C_7  and  C_8 
REMARK    5  A    between atoms: C_8  and  S_9 
REMARK    6  A    between atoms: S_9  and  C_10 
REMARK    7  A    between atoms: C_13  and  C_14 
REMARK    8  A    between atoms: C_15  and  O_16 
ROOT
HETATM    1  S   UNL     1     -42.810  58.478 -52.117  1.00  0.00    -0.081 SA
ENDROOT
BRANCH   1   2
HETATM    2  C   UNL     1     -43.689  57.289 -53.168  1.00  0.00     0.185 C 
BRANCH   2   3
HETATM    3  C   UNL     1     -43.225  55.857 -52.920  1.00  0.00     0.227 C 
HETATM    4  N   UNL     1     -42.697  55.252 -54.051  1.00  0.00    -0.360 N 
HETATM    5  H   UNL     1     -42.865  55.683 -54.951  1.00  0.00     0.162 HD
HETATM    6  O   UNL     1     -43.281  55.281 -51.836  1.00  0.00    -0.273 OA
BRANCH   4   7
HETATM    7  C   UNL     1     -42.271  53.863 -54.019  1.00  0.00     0.127 C 
BRANCH   7   8
HETATM    8  C   UNL     1     -40.754  53.738 -53.877  1.00  0.00     0.058 C 
BRANCH   8   9
HETATM    9  C   UNL     1     -40.330  52.356 -53.435  1.00  0.00    -0.051 A 
HETATM   10  C   UNL     1     -39.880  52.067 -52.130  1.00  0.00    -0.056 A 
HETATM   11  C   UNL     1     -39.770  53.091 -51.034  1.00  0.00     0.049 C 
HETATM   12  C   UNL     1     -39.484  50.752 -51.820  1.00  0.00     0.007 A 
HETATM   13  C   UNL     1     -39.533  49.738 -52.776  1.00  0.00     0.001 A 
HETATM   14  C   UNL     1     -39.974  50.023 -54.062  1.00  0.00     0.001 A 
HETATM   15  C   UNL     1     -40.366  51.321 -54.389  1.00  0.00     0.007 A 
ENDBRANCH   8   9
ENDBRANCH   7   8
ENDBRANCH   4   7
ENDBRANCH   2   3
ENDBRANCH   1   2
BRANCH   1  16
HETATM   16  C   UNL     1     -44.134  59.024 -51.150  1.00  0.00     0.191 A 
HETATM   17  N   UNL     1     -44.232  60.272 -50.608  1.00  0.00    -0.312 N 
HETATM   18  C   UNL     1     -43.287  61.356 -50.697  1.00  0.00     0.160 C 
HETATM   19  C   UNL     1     -45.457  60.309 -49.979  1.00  0.00     0.166 A 
HETATM   20  N   UNL     1     -46.037  59.129 -50.118  1.00  0.00    -0.128 NA
HETATM   21  N   UNL     1     -45.206  58.324 -50.865  1.00  0.00    -0.122 NA
BRANCH  19  22
HETATM   22  C   UNL     1     -46.021  61.471 -49.303  1.00  0.00     0.045 A 
HETATM   23  C   UNL     1     -45.946  61.617 -47.911  1.00  0.00     0.082 A 
HETATM   24  C   UNL     1     -46.469  62.752 -47.285  1.00  0.00     0.038 A 
HETATM   25  C   UNL     1     -47.103  63.735 -48.043  1.00  0.00     0.003 A 
HETATM   26  C   UNL     1     -47.205  63.590 -49.427  1.00  0.00     0.001 A 
HETATM   27  C   UNL     1     -46.666  62.464 -50.054  1.00  0.00     0.018 A 
BRANCH  23  28
HETATM   28  O   UNL     1     -45.273  60.686 -47.160  1.00  0.00    -0.355 OA
HETATM   29  C   UNL     1     -46.145  60.107 -46.188  1.00  0.00     0.210 C 
ENDBRANCH  23  28
ENDBRANCH  19  22
ENDBRANCH   1  16
TORSDOF 8
ENDMDL
MODEL 8
REMARK VINA RESULT:      -7.4      4.379      6.399
REMARK  8 active torsions:
REMARK  status: ('A' for Active; 'I' for Inactive)
REMARK    1  A    between atoms: C_3  and  C_4 
REMARK    2  A    between atoms: C_4  and  C_5 
REMARK    3  A    between atoms: C_5  and  N_6 
REMARK       I    between atoms: N_6  and  C_7 
REMARK    4  A    between atoms: C_7  and  C_8 
REMARK    5  A    between atoms: C_8  and  S_9 
REMARK    6  A    between atoms: S_9  and  C_10 
REMARK    7  A    between atoms: C_13  and  C_14 
REMARK    8  A    between atoms: C_15  and  O_16 
ROOT
HETATM    1  S   UNL     1     -43.262  57.351 -52.300  1.00  0.00    -0.081 SA
ENDROOT
BRANCH   1   2
HETATM    2  C   UNL     1     -41.825  57.291 -51.196  1.00  0.00     0.185 C 
BRANCH   2   3
HETATM    3  C   UNL     1     -41.646  55.913 -50.565  1.00  0.00     0.227 C 
HETATM    4  N   UNL     1     -41.640  54.885 -51.496  1.00  0.00    -0.360 N 
HETATM    5  H   UNL     1     -41.970  55.080 -52.432  1.00  0.00     0.162 HD
HETATM    6  O   UNL     1     -41.500  55.709 -49.363  1.00  0.00    -0.273 OA
BRANCH   4   7
HETATM    7  C   UNL     1     -41.552  53.499 -51.069  1.00  0.00     0.127 C 
BRANCH   7   8
HETATM    8  C   UNL     1     -40.124  52.962 -51.170  1.00  0.00     0.058 C 
BRANCH   8   9
HETATM    9  C   UNL     1     -39.983  51.900 -52.236  1.00  0.00    -0.051 A 
HETATM   10  C   UNL     1     -39.777  50.536 -51.944  1.00  0.00    -0.056 A 
HETATM   11  C   UNL     1     -39.674  49.983 -50.548  1.00  0.00     0.049 C 
HETATM   12  C   UNL     1     -39.634  49.624 -53.006  1.00  0.00     0.007 A 
HETATM   13  C   UNL     1     -39.697  50.046 -54.334  1.00  0.00     0.001 A 
HETATM   14  C   UNL     1     -39.898  51.389 -54.622  1.00  0.00     0.001 A 
HETATM   15  C   UNL     1     -40.037  52.309 -53.582  1.00  0.00     0.007 A 
ENDBRANCH   8   9
ENDBRANCH   7   8
ENDBRANCH   4   7
ENDBRANCH   2   3
ENDBRANCH   1   2
BRANCH   1  16
HETATM   16  C   UNL     1     -44.354  58.226 -51.286  1.00  0.00     0.191 A 
HETATM   17  N   UNL     1     -44.220  59.546 -50.966  1.00  0.00    -0.312 N 
HETATM   18  C   UNL     1     -43.177  60.456 -51.363  1.00  0.00     0.160 C 
HETATM   19  C   UNL     1     -45.326  59.856 -50.204  1.00  0.00     0.166 A 
HETATM   20  N   UNL     1     -46.056  58.764 -50.058  1.00  0.00    -0.128 NA
HETATM   21  N   UNL     1     -45.447  57.741 -50.749  1.00  0.00    -0.122 NA
BRANCH  19  22
HETATM   22  C   UNL     1     -45.641  61.180 -49.679  1.00  0.00     0.045 A 
HETATM   23  C   UNL     1     -46.400  62.099 -50.417  1.00  0.00     0.082 A 
HETATM   24  C   UNL     1     -46.714  63.352 -49.885  1.00  0.00     0.038 A 
HETATM   25  C   UNL     1     -46.241  63.710 -48.623  1.00  0.00     0.003 A 
HETATM   26  C   UNL     1     -45.466  62.814 -47.889  1.00  0.00     0.001 A 
HETATM   27  C   UNL     1     -45.167  61.553 -48.414  1.00  0.00     0.018 A 
BRANCH  23  28
HETATM   28  O   UNL     1     -46.921  61.737 -51.634  1.00  0.00    -0.355 OA
HETATM   29  C   UNL     1     -47.822  62.739 -52.106  1.00  0.00     0.210 C 
ENDBRANCH  23  28
ENDBRANCH  19  22
ENDBRANCH   1  16
TORSDOF 8
ENDMDL
MODEL 9
REMARK VINA RESULT:      -7.4      2.317      7.249
REMARK  8 active torsions:
REMARK  status: ('A' for Active; 'I' for Inactive)
REMARK    1  A    between atoms: C_3  and  C_4 
REMARK    2  A    between atoms: C_4  and  C_5 
REMARK    3  A    between atoms: C_5  and  N_6 
REMARK       I    between atoms: N_6  and  C_7 
REMARK    4  A    between atoms: C_7  and  C_8 
REMARK    5  A    between atoms: C_8  and  S_9 
REMARK    6  A    between atoms: S_9  and  C_10 
REMARK    7  A    between atoms: C_13  and  C_14 
REMARK    8  A    between atoms: C_15  and  O_16 
ROOT
HETATM    1  S   UNL     1     -43.743  59.932 -52.234  1.00  0.00    -0.081 SA
ENDROOT
BRANCH   1   2
HETATM    2  C   UNL     1     -43.032  61.047 -53.475  1.00  0.00     0.185 C 
BRANCH   2   3
HETATM    3  C   UNL     1     -43.399  60.628 -54.896  1.00  0.00     0.227 C 
HETATM    4  N   UNL     1     -42.446  60.994 -55.834  1.00  0.00    -0.360 N 
HETATM    5  H   UNL     1     -41.745  61.674 -55.570  1.00  0.00     0.162 HD
HETATM    6  O   UNL     1     -44.415  60.009 -55.202  1.00  0.00    -0.273 OA
BRANCH   4   7
HETATM    7  C   UNL     1     -42.662  60.740 -57.249  1.00  0.00     0.127 C 
BRANCH   7   8
HETATM    8  C   UNL     1     -41.571  59.847 -57.839  1.00  0.00     0.058 C 
BRANCH   8   9
HETATM    9  C   UNL     1     -42.078  58.463 -58.172  1.00  0.00    -0.051 A 
HETATM   10  C   UNL     1     -42.236  57.996 -59.494  1.00  0.00    -0.056 A 
HETATM   11  C   UNL     1     -41.919  58.814 -60.716  1.00  0.00     0.049 C 
HETATM   12  C   UNL     1     -42.738  56.698 -59.703  1.00  0.00     0.007 A 
HETATM   13  C   UNL     1     -43.076  55.872 -58.632  1.00  0.00     0.001 A 
HETATM   14  C   UNL     1     -42.923  56.332 -57.331  1.00  0.00     0.001 A 
HETATM   15  C   UNL     1     -42.431  57.617 -57.103  1.00  0.00     0.007 A 
ENDBRANCH   8   9
ENDBRANCH   7   8
ENDBRANCH   4   7
ENDBRANCH   2   3
ENDBRANCH   1   2
BRANCH   1  16
HETATM   16  C   UNL     1     -42.539  58.692 -52.254  1.00  0.00     0.191 A 
HETATM   17  N   UNL     1     -42.676  57.493 -52.891  1.00  0.00    -0.312 N 
HETATM   18  C   UNL     1     -43.809  57.007 -53.636  1.00  0.00     0.160 C 
HETATM   19  C   UNL     1     -41.475  56.840 -52.715  1.00  0.00     0.166 A 
HETATM   20  N   UNL     1     -40.684  57.605 -51.983  1.00  0.00    -0.128 NA
HETATM   21  N   UNL     1     -41.353  58.776 -51.702  1.00  0.00    -0.122 NA
BRANCH  19  22
HETATM   22  C   UNL     1     -41.136  55.537 -53.274  1.00  0.00     0.045 A 
HETATM   23  C   UNL     1     -41.372  54.352 -52.564  1.00  0.00     0.082 A 
HETATM   24  C   UNL     1     -41.065  53.111 -53.129  1.00  0.00     0.038 A 
HETATM   25  C   UNL     1     -40.487  53.047 -54.396  1.00  0.00     0.003 A 
HETATM   26  C   UNL     1     -40.227  54.220 -55.103  1.00  0.00     0.001 A 
HETATM   27  C   UNL     1     -40.551  55.460 -54.546  1.00  0.00     0.018 A 
BRANCH  23  28
HETATM   28  O   UNL     1     -41.993  54.397 -51.341  1.00  0.00    -0.355 OA
HETATM   29  C   UNL     1     -43.357  53.990 -51.461  1.00  0.00     0.210 C 
ENDBRANCH  23  28
ENDBRANCH  19  22
ENDBRANCH   1  16
TORSDOF 8
ENDMDL
MODEL 10
REMARK VINA RESULT:      -7.3      2.189      2.827
REMARK  8 active torsions:
REMARK  status: ('A' for Active; 'I' for Inactive)
REMARK    1  A    between atoms: C_3  and  C_4 
REMARK    2  A    between atoms: C_4  and  C_5 
REMARK    3  A    between atoms: C_5  and  N_6 
REMARK       I    between atoms: N_6  and  C_7 
REMARK    4  A    between atoms: C_7  and  C_8 
REMARK    5  A    between atoms: C_8  and  S_9 
REMARK    6  A    between atoms: S_9  and  C_10 
REMARK    7  A    between atoms: C_13  and  C_14 
REMARK    8  A    between atoms: C_15  and  O_16 
ROOT
HETATM    1  S   UNL     1     -43.199  60.094 -51.313  1.00  0.00    -0.081 SA
ENDROOT
BRANCH   1   2
HETATM    2  C   UNL     1     -41.610  60.010 -50.443  1.00  0.00     0.185 C 
BRANCH   2   3
HETATM    3  C   UNL     1     -40.890  58.689 -50.697  1.00  0.00     0.227 C 
HETATM    4  N   UNL     1     -41.602  57.587 -50.249  1.00  0.00    -0.360 N 
HETATM    5  H   UNL     1     -42.377  57.737 -49.617  1.00  0.00     0.162 HD
HETATM    6  O   UNL     1     -39.801  58.583 -51.257  1.00  0.00    -0.273 OA
BRANCH   4   7
HETATM    7  C   UNL     1     -41.036  56.251 -50.343  1.00  0.00     0.127 C 
BRANCH   7   8
HETATM    8  C   UNL     1     -42.048  55.243 -50.887  1.00  0.00     0.058 C 
BRANCH   8   9
HETATM    9  C   UNL     1     -41.408  54.216 -51.794  1.00  0.00    -0.051 A 
HETATM   10  C   UNL     1     -40.623  53.147 -51.315  1.00  0.00    -0.056 A 
HETATM   11  C   UNL     1     -40.335  52.903 -49.859  1.00  0.00     0.049 C 
HETATM   12  C   UNL     1     -40.048  52.255 -52.240  1.00  0.00     0.007 A 
HETATM   13  C   UNL     1     -40.244  52.410 -53.611  1.00  0.00     0.001 A 
HETATM   14  C   UNL     1     -41.014  53.465 -54.083  1.00  0.00     0.001 A 
HETATM   15  C   UNL     1     -41.589  54.362 -53.182  1.00  0.00     0.007 A 
ENDBRANCH   8   9
ENDBRANCH   7   8
ENDBRANCH   4   7
ENDBRANCH   2   3
ENDBRANCH   1   2
BRANCH   1  16
HETATM   16  C   UNL     1     -42.672  59.641 -52.895  1.00  0.00     0.191 A 
HETATM   17  N   UNL     1     -43.182  58.596 -53.609  1.00  0.00    -0.312 N 
HETATM   18  C   UNL     1     -44.208  57.666 -53.214  1.00  0.00     0.160 C 
HETATM   19  C   UNL     1     -42.538  58.629 -54.827  1.00  0.00     0.166 A 
HETATM   20  N   UNL     1     -41.669  59.625 -54.816  1.00  0.00    -0.128 NA
HETATM   21  N   UNL     1     -41.763  60.268 -53.602  1.00  0.00    -0.122 NA
BRANCH  19  22
HETATM   22  C   UNL     1     -42.801  57.728 -55.943  1.00  0.00     0.045 A 
HETATM   23  C   UNL     1     -43.561  58.134 -57.049  1.00  0.00     0.082 A 
HETATM   24  C   UNL     1     -43.779  57.265 -58.121  1.00  0.00     0.038 A 
HETATM   25  C   UNL     1     -43.268  55.968 -58.080  1.00  0.00     0.003 A 
HETATM   26  C   UNL     1     -42.530  55.544 -56.975  1.00  0.00     0.001 A 
HETATM   27  C   UNL     1     -42.297  56.420 -55.912  1.00  0.00     0.018 A 
BRANCH  23  28
HETATM   28  O   UNL     1     -44.019  59.426 -57.128  1.00  0.00    -0.355 OA
HETATM   29  C   UNL     1     -43.449  60.087 -58.258  1.00  0.00     0.210 C 
ENDBRANCH  23  28
ENDBRANCH  19  22
ENDBRANCH   1  16
TORSDOF 8
ENDMDL
