MODEL 1
REMARK VINA RESULT:      -8.7      0.000      0.000
REMARK  7 active torsions:
REMARK  status: ('A' for Active; 'I' for Inactive)
REMARK    1  A    between atoms: O_2  and  C_3 
REMARK    2  A    between atoms: C_6  and  C_7 
REMARK       I    between atoms: C_7  and  N_8 
REMARK    3  A    between atoms: C_14  and  C_15 
REMARK       I    between atoms: C_15  and  N_16 
REMARK    4  A    between atoms: N_16  and  C_17 
REMARK    5  A    between atoms: C_17  and  C_18 
REMARK       I    between atoms: N_25  and  C_26 
REMARK    6  A    between atoms: C_26  and  C_27 
REMARK    7  A    between atoms: C_30  and  O_31 
ROOT
HETATM    1  C   UNL     1     -41.342  57.353 -53.238  1.00  0.00     0.253 C 
HETATM    2  N   UNL     1     -42.247  58.146 -53.961  1.00  0.00    -0.348 N 
HETATM    3  C   UNL     1     -43.033  57.629 -55.079  1.00  0.00     0.131 C 
HETATM    4  C   UNL     1     -44.278  58.444 -55.352  1.00  0.00     0.081 C 
HETATM    5  C   UNL     1     -44.027  59.948 -55.480  1.00  0.00     0.142 C 
HETATM    6  O   UNL     1     -45.358  60.533 -55.331  1.00  0.00    -0.358 OA
HETATM    7  C   UNL     1     -45.544  61.534 -56.338  1.00  0.00     0.206 C 
HETATM    8  C   UNL     1     -44.674  61.094 -57.486  1.00  0.00     0.206 C 
HETATM    9  N   UNL     1     -43.574  60.416 -56.801  1.00  0.00    -0.300 N 
HETATM   10  C   UNL     1     -42.309  60.219 -57.323  1.00  0.00     0.257 C 
HETATM   11  O   UNL     1     -41.449  59.521 -56.798  1.00  0.00    -0.267 OA
HETATM   12  C   UNL     1     -43.210  60.454 -54.285  1.00  0.00     0.081 C 
HETATM   13  C   UNL     1     -42.014  59.588 -53.904  1.00  0.00     0.131 C 
HETATM   14  O   UNL     1     -40.654  57.782 -52.312  1.00  0.00    -0.267 OA
ENDROOT
BRANCH   8  15
HETATM   15  C   UNL     1     -45.480  60.203 -58.454  1.00  0.00     0.243 C 
HETATM   16  N   UNL     1     -45.832  58.971 -57.958  1.00  0.00    -0.355 N 
HETATM   17  H   UNL     1     -45.700  58.793 -56.971  1.00  0.00     0.162 HD
HETATM   18  O   UNL     1     -45.710  60.538 -59.614  1.00  0.00    -0.271 OA
BRANCH  16  19
HETATM   19  C   UNL     1     -46.592  58.012 -58.720  1.00  0.00     0.161 C 
BRANCH  19  20
HETATM   20  C   UNL     1     -45.670  56.946 -59.251  1.00  0.00    -0.041 A 
HETATM   21  C   UNL     1     -46.142  55.981 -60.150  1.00  0.00     0.009 A 
HETATM   22  C   UNL     1     -45.308  54.949 -60.584  1.00  0.00     0.001 A 
HETATM   23  C   UNL     1     -43.998  54.867 -60.114  1.00  0.00     0.000 A 
HETATM   24  C   UNL     1     -43.519  55.818 -59.215  1.00  0.00     0.001 A 
HETATM   25  C   UNL     1     -44.350  56.854 -58.786  1.00  0.00     0.009 A 
ENDBRANCH  19  20
ENDBRANCH  16  19
ENDBRANCH   8  15
BRANCH  10  26
HETATM   26  C   UNL     1     -41.948  60.800 -58.635  1.00  0.00     0.032 A 
HETATM   27  C   UNL     1     -41.273  62.016 -58.741  1.00  0.00     0.020 A 
HETATM   28  C   UNL     1     -40.932  62.504 -60.006  1.00  0.00     0.038 A 
HETATM   29  C   UNL     1     -41.223  61.768 -61.161  1.00  0.00     0.068 A 
HETATM   30  C   UNL     1     -41.860  60.532 -61.044  1.00  0.00     0.038 A 
HETATM   31  C   UNL     1     -42.213  60.044 -59.782  1.00  0.00     0.020 A 
BRANCH  29  32
HETATM   32  O   UNL     1     -40.829  62.359 -62.329  1.00  0.00    -0.356 OA
HETATM   33  C   UNL     1     -39.600  63.075 -62.306  1.00  0.00     0.210 C 
ENDBRANCH  29  32
ENDBRANCH  10  26
BRANCH   1  34
HETATM   34  C   UNL     1     -41.192  55.917 -53.575  1.00  0.00     0.032 A 
HETATM   35  C   UNL     1     -40.382  55.507 -54.637  1.00  0.00     0.020 A 
HETATM   36  C   UNL     1     -40.241  54.145 -54.914  1.00  0.00     0.038 A 
HETATM   37  C   UNL     1     -40.864  53.188 -54.106  1.00  0.00     0.068 A 
HETATM   38  C   UNL     1     -41.651  53.602 -53.030  1.00  0.00     0.038 A 
HETATM   39  C   UNL     1     -41.811  54.965 -52.760  1.00  0.00     0.020 A 
BRANCH  37  40
HETATM   40  O   UNL     1     -40.634  51.890 -54.476  1.00  0.00    -0.356 OA
HETATM   41  C   UNL     1     -39.811  51.125 -53.602  1.00  0.00     0.210 C 
ENDBRANCH  37  40
ENDBRANCH   1  34
TORSDOF 7
ENDMDL
MODEL 2
REMARK VINA RESULT:      -8.5      2.928      8.545
REMARK  7 active torsions:
REMARK  status: ('A' for Active; 'I' for Inactive)
REMARK    1  A    between atoms: O_2  and  C_3 
REMARK    2  A    between atoms: C_6  and  C_7 
REMARK       I    between atoms: C_7  and  N_8 
REMARK    3  A    between atoms: C_14  and  C_15 
REMARK       I    between atoms: C_15  and  N_16 
REMARK    4  A    between atoms: N_16  and  C_17 
REMARK    5  A    between atoms: C_17  and  C_18 
REMARK       I    between atoms: N_25  and  C_26 
REMARK    6  A    between atoms: C_26  and  C_27 
REMARK    7  A    between atoms: C_30  and  O_31 
ROOT
HETATM    1  C   UNL     1     -43.594  59.327 -58.070  1.00  0.00     0.253 C 
HETATM    2  N   UNL     1     -43.013  58.983 -56.838  1.00  0.00    -0.348 N 
HETATM    3  C   UNL     1     -43.430  57.815 -56.067  1.00  0.00     0.131 C 
HETATM    4  C   UNL     1     -42.369  57.336 -55.100  1.00  0.00     0.081 C 
HETATM    5  C   UNL     1     -41.795  58.436 -54.204  1.00  0.00     0.142 C 
HETATM    6  O   UNL     1     -40.563  57.847 -53.682  1.00  0.00    -0.358 OA
HETATM    7  C   UNL     1     -40.483  58.102 -52.275  1.00  0.00     0.206 C 
HETATM    8  C   UNL     1     -41.915  58.208 -51.819  1.00  0.00     0.206 C 
HETATM    9  N   UNL     1     -42.578  58.759 -52.999  1.00  0.00    -0.300 N 
HETATM   10  C   UNL     1     -43.772  59.457 -52.991  1.00  0.00     0.257 C 
HETATM   11  O   UNL     1     -44.387  59.781 -54.001  1.00  0.00    -0.267 OA
HETATM   12  C   UNL     1     -41.359  59.638 -55.051  1.00  0.00     0.081 C 
HETATM   13  C   UNL     1     -42.355  60.073 -56.119  1.00  0.00     0.131 C 
HETATM   14  O   UNL     1     -43.271  60.322 -58.716  1.00  0.00    -0.267 OA
ENDROOT
BRANCH   8  15
HETATM   15  C   UNL     1     -42.435  56.825 -51.372  1.00  0.00     0.243 C 
HETATM   16  N   UNL     1     -41.621  55.765 -51.691  1.00  0.00    -0.355 N 
HETATM   17  H   UNL     1     -40.688  55.958 -52.031  1.00  0.00     0.162 HD
HETATM   18  O   UNL     1     -43.537  56.677 -50.850  1.00  0.00    -0.271 OA
BRANCH  16  19
HETATM   19  C   UNL     1     -41.944  54.403 -51.346  1.00  0.00     0.161 C 
BRANCH  19  20
HETATM   20  C   UNL     1     -41.093  53.462 -52.157  1.00  0.00    -0.041 A 
HETATM   21  C   UNL     1     -41.261  53.371 -53.545  1.00  0.00     0.009 A 
HETATM   22  C   UNL     1     -40.525  52.445 -54.288  1.00  0.00     0.001 A 
HETATM   23  C   UNL     1     -39.624  51.596 -53.648  1.00  0.00     0.000 A 
HETATM   24  C   UNL     1     -39.454  51.674 -52.267  1.00  0.00     0.001 A 
HETATM   25  C   UNL     1     -40.183  52.603 -51.524  1.00  0.00     0.009 A 
ENDBRANCH  19  20
ENDBRANCH  16  19
ENDBRANCH   8  15
BRANCH  10  26
HETATM   26  C   UNL     1     -44.432  59.785 -51.708  1.00  0.00     0.032 A 
HETATM   27  C   UNL     1     -45.533  59.068 -51.242  1.00  0.00     0.020 A 
HETATM   28  C   UNL     1     -46.100  59.404 -50.009  1.00  0.00     0.038 A 
HETATM   29  C   UNL     1     -45.550  60.423 -49.222  1.00  0.00     0.068 A 
HETATM   30  C   UNL     1     -44.422  61.107 -49.675  1.00  0.00     0.038 A 
HETATM   31  C   UNL     1     -43.858  60.782 -50.912  1.00  0.00     0.020 A 
BRANCH  29  32
HETATM   32  O   UNL     1     -46.199  60.643 -48.038  1.00  0.00    -0.356 OA
HETATM   33  C   UNL     1     -45.397  61.018 -46.924  1.00  0.00     0.210 C 
ENDBRANCH  29  32
ENDBRANCH  10  26
BRANCH   1  34
HETATM   34  C   UNL     1     -44.646  58.461 -58.652  1.00  0.00     0.032 A 
HETATM   35  C   UNL     1     -46.000  58.701 -58.400  1.00  0.00     0.020 A 
HETATM   36  C   UNL     1     -46.968  57.882 -58.984  1.00  0.00     0.038 A 
HETATM   37  C   UNL     1     -46.597  56.856 -59.858  1.00  0.00     0.068 A 
HETATM   38  C   UNL     1     -45.245  56.635 -60.128  1.00  0.00     0.038 A 
HETATM   39  C   UNL     1     -44.269  57.440 -59.530  1.00  0.00     0.020 A 
BRANCH  37  40
HETATM   40  O   UNL     1     -47.642  56.137 -60.373  1.00  0.00    -0.356 OA
HETATM   41  C   UNL     1     -48.083  56.514 -61.673  1.00  0.00     0.210 C 
ENDBRANCH  37  40
ENDBRANCH   1  34
TORSDOF 7
ENDMDL
MODEL 3
REMARK VINA RESULT:      -7.5      2.868      7.044
REMARK  7 active torsions:
REMARK  status: ('A' for Active; 'I' for Inactive)
REMARK    1  A    between atoms: O_2  and  C_3 
REMARK    2  A    between atoms: C_6  and  C_7 
REMARK       I    between atoms: C_7  and  N_8 
REMARK    3  A    between atoms: C_14  and  C_15 
REMARK       I    between atoms: C_15  and  N_16 
REMARK    4  A    between atoms: N_16  and  C_17 
REMARK    5  A    between atoms: C_17  and  C_18 
REMARK       I    between atoms: N_25  and  C_26 
REMARK    6  A    between atoms: C_26  and  C_27 
REMARK    7  A    between atoms: C_30  and  O_31 
ROOT
HETATM    1  C   UNL     1     -43.656  58.319 -53.790  1.00  0.00     0.253 C 
HETATM    2  N   UNL     1     -43.317  58.267 -55.152  1.00  0.00    -0.348 N 
HETATM    3  C   UNL     1     -43.439  59.420 -56.041  1.00  0.00     0.131 C 
HETATM    4  C   UNL     1     -42.554  59.318 -57.264  1.00  0.00     0.081 C 
HETATM    5  C   UNL     1     -42.686  57.996 -58.025  1.00  0.00     0.142 C 
HETATM    6  O   UNL     1     -41.496  57.967 -58.873  1.00  0.00    -0.358 OA
HETATM    7  C   UNL     1     -41.874  57.562 -60.194  1.00  0.00     0.206 C 
HETATM    8  C   UNL     1     -43.304  58.014 -60.342  1.00  0.00     0.206 C 
HETATM    9  N   UNL     1     -43.808  57.907 -58.974  1.00  0.00    -0.300 N 
HETATM   10  C   UNL     1     -45.138  57.770 -58.622  1.00  0.00     0.257 C 
HETATM   11  O   UNL     1     -45.555  57.831 -57.471  1.00  0.00    -0.267 OA
HETATM   12  C   UNL     1     -42.542  56.812 -57.060  1.00  0.00     0.081 C 
HETATM   13  C   UNL     1     -43.326  56.937 -55.759  1.00  0.00     0.131 C 
HETATM   14  O   UNL     1     -43.585  57.349 -53.037  1.00  0.00    -0.267 OA
ENDROOT
BRANCH   8  15
HETATM   15  C   UNL     1     -43.353  59.436 -60.940  1.00  0.00     0.243 C 
HETATM   16  N   UNL     1     -42.132  59.974 -61.268  1.00  0.00    -0.355 N 
HETATM   17  H   UNL     1     -41.321  59.370 -61.260  1.00  0.00     0.162 HD
HETATM   18  O   UNL     1     -44.401  60.071 -61.032  1.00  0.00    -0.271 OA
BRANCH  16  19
HETATM   19  C   UNL     1     -41.989  61.288 -61.844  1.00  0.00     0.161 C 
BRANCH  19  20
HETATM   20  C   UNL     1     -41.014  62.093 -61.026  1.00  0.00    -0.041 A 
HETATM   21  C   UNL     1     -40.065  62.911 -61.654  1.00  0.00     0.009 A 
HETATM   22  C   UNL     1     -39.113  63.598 -60.899  1.00  0.00     0.001 A 
HETATM   23  C   UNL     1     -39.095  63.466 -59.512  1.00  0.00     0.000 A 
HETATM   24  C   UNL     1     -40.030  62.651 -58.877  1.00  0.00     0.001 A 
HETATM   25  C   UNL     1     -40.986  61.968 -59.629  1.00  0.00     0.009 A 
ENDBRANCH  19  20
ENDBRANCH  16  19
ENDBRANCH   8  15
BRANCH  10  26
HETATM   26  C   UNL     1     -46.172  57.618 -59.669  1.00  0.00     0.032 A 
HETATM   27  C   UNL     1     -46.459  56.381 -60.247  1.00  0.00     0.020 A 
HETATM   28  C   UNL     1     -47.466  56.291 -61.211  1.00  0.00     0.038 A 
HETATM   29  C   UNL     1     -48.214  57.418 -61.574  1.00  0.00     0.068 A 
HETATM   30  C   UNL     1     -47.950  58.643 -60.961  1.00  0.00     0.038 A 
HETATM   31  C   UNL     1     -46.937  58.741 -60.003  1.00  0.00     0.020 A 
BRANCH  29  32
HETATM   32  O   UNL     1     -49.170  57.187 -62.525  1.00  0.00    -0.356 OA
HETATM   33  C   UNL     1     -49.754  58.328 -63.141  1.00  0.00     0.210 C 
ENDBRANCH  29  32
ENDBRANCH  10  26
BRANCH   1  34
HETATM   34  C   UNL     1     -44.118  59.597 -53.197  1.00  0.00     0.032 A 
HETATM   35  C   UNL     1     -45.475  59.931 -53.171  1.00  0.00     0.020 A 
HETATM   36  C   UNL     1     -45.881  61.130 -52.582  1.00  0.00     0.038 A 
HETATM   37  C   UNL     1     -44.947  61.975 -51.975  1.00  0.00     0.068 A 
HETATM   38  C   UNL     1     -43.595  61.625 -51.980  1.00  0.00     0.038 A 
HETATM   39  C   UNL     1     -43.181  60.434 -52.586  1.00  0.00     0.020 A 
BRANCH  37  40
HETATM   40  O   UNL     1     -45.476  63.111 -51.423  1.00  0.00    -0.356 OA
HETATM   41  C   UNL     1     -46.309  62.925 -50.284  1.00  0.00     0.210 C 
ENDBRANCH  37  40
ENDBRANCH   1  34
TORSDOF 7
ENDMDL
MODEL 4
REMARK VINA RESULT:      -7.5      2.102      8.740
REMARK  7 active torsions:
REMARK  status: ('A' for Active; 'I' for Inactive)
REMARK    1  A    between atoms: O_2  and  C_3 
REMARK    2  A    between atoms: C_6  and  C_7 
REMARK       I    between atoms: C_7  and  N_8 
REMARK    3  A    between atoms: C_14  and  C_15 
REMARK       I    between atoms: C_15  and  N_16 
REMARK    4  A    between atoms: N_16  and  C_17 
REMARK    5  A    between atoms: C_17  and  C_18 
REMARK       I    between atoms: N_25  and  C_26 
REMARK    6  A    between atoms: C_26  and  C_27 
REMARK    7  A    between atoms: C_30  and  O_31 
ROOT
HETATM    1  C   UNL     1     -42.936  60.140 -59.860  1.00  0.00     0.253 C 
HETATM    2  N   UNL     1     -43.435  59.576 -58.674  1.00  0.00    -0.348 N 
HETATM    3  C   UNL     1     -42.863  59.863 -57.362  1.00  0.00     0.131 C 
HETATM    4  C   UNL     1     -43.831  59.607 -56.227  1.00  0.00     0.081 C 
HETATM    5  C   UNL     1     -44.497  58.230 -56.270  1.00  0.00     0.142 C 
HETATM    6  O   UNL     1     -45.636  58.370 -55.365  1.00  0.00    -0.358 OA
HETATM    7  C   UNL     1     -45.700  57.222 -54.512  1.00  0.00     0.206 C 
HETATM    8  C   UNL     1     -44.275  56.745 -54.399  1.00  0.00     0.206 C 
HETATM    9  N   UNL     1     -43.717  57.119 -55.697  1.00  0.00    -0.300 N 
HETATM   10  C   UNL     1     -42.610  56.538 -56.288  1.00  0.00     0.257 C 
HETATM   11  O   UNL     1     -42.069  56.962 -57.303  1.00  0.00    -0.267 OA
HETATM   12  C   UNL     1     -45.093  57.971 -57.659  1.00  0.00     0.081 C 
HETATM   13  C   UNL     1     -44.188  58.332 -58.830  1.00  0.00     0.131 C 
HETATM   14  O   UNL     1     -43.391  59.886 -60.975  1.00  0.00    -0.267 OA
ENDROOT
BRANCH   8  15
HETATM   15  C   UNL     1     -43.588  57.405 -53.185  1.00  0.00     0.243 C 
HETATM   16  N   UNL     1     -42.766  56.578 -52.459  1.00  0.00    -0.355 N 
HETATM   17  H   UNL     1     -42.533  55.672 -52.843  1.00  0.00     0.162 HD
HETATM   18  O   UNL     1     -43.829  58.561 -52.844  1.00  0.00    -0.271 OA
BRANCH  16  19
HETATM   19  C   UNL     1     -42.038  57.026 -51.298  1.00  0.00     0.161 C 
BRANCH  19  20
HETATM   20  C   UNL     1     -41.373  55.848 -50.635  1.00  0.00    -0.041 A 
HETATM   21  C   UNL     1     -40.847  54.803 -51.406  1.00  0.00     0.009 A 
HETATM   22  C   UNL     1     -40.298  53.676 -50.791  1.00  0.00     0.001 A 
HETATM   23  C   UNL     1     -40.280  53.581 -49.400  1.00  0.00     0.000 A 
HETATM   24  C   UNL     1     -40.804  54.612 -48.624  1.00  0.00     0.001 A 
HETATM   25  C   UNL     1     -41.348  55.741 -49.237  1.00  0.00     0.009 A 
ENDBRANCH  19  20
ENDBRANCH  16  19
ENDBRANCH   8  15
BRANCH  10  26
HETATM   26  C   UNL     1     -41.951  55.378 -55.650  1.00  0.00     0.032 A 
HETATM   27  C   UNL     1     -42.628  54.180 -55.420  1.00  0.00     0.020 A 
HETATM   28  C   UNL     1     -41.948  53.107 -54.839  1.00  0.00     0.038 A 
HETATM   29  C   UNL     1     -40.587  53.207 -54.523  1.00  0.00     0.068 A 
HETATM   30  C   UNL     1     -39.905  54.393 -54.796  1.00  0.00     0.038 A 
HETATM   31  C   UNL     1     -40.584  55.474 -55.367  1.00  0.00     0.020 A 
BRANCH  29  32
HETATM   32  O   UNL     1     -40.046  52.081 -53.966  1.00  0.00    -0.356 OA
HETATM   33  C   UNL     1     -40.509  50.831 -54.463  1.00  0.00     0.210 C 
ENDBRANCH  29  32
ENDBRANCH  10  26
BRANCH   1  34
HETATM   34  C   UNL     1     -41.812  61.104 -59.798  1.00  0.00     0.032 A 
HETATM   35  C   UNL     1     -41.129  61.339 -58.601  1.00  0.00     0.020 A 
HETATM   36  C   UNL     1     -40.058  62.234 -58.580  1.00  0.00     0.038 A 
HETATM   37  C   UNL     1     -39.631  62.859 -59.756  1.00  0.00     0.068 A 
HETATM   38  C   UNL     1     -40.300  62.601 -60.955  1.00  0.00     0.038 A 
HETATM   39  C   UNL     1     -41.386  61.720 -60.978  1.00  0.00     0.020 A 
BRANCH  37  40
HETATM   40  O   UNL     1     -38.563  63.701 -59.603  1.00  0.00    -0.356 OA
HETATM   41  C   UNL     1     -38.216  64.488 -60.737  1.00  0.00     0.210 C 
ENDBRANCH  37  40
ENDBRANCH   1  34
TORSDOF 7
ENDMDL
MODEL 5
REMARK VINA RESULT:      -7.5      2.951      8.514
REMARK  7 active torsions:
REMARK  status: ('A' for Active; 'I' for Inactive)
REMARK    1  A    between atoms: O_2  and  C_3 
REMARK    2  A    between atoms: C_6  and  C_7 
REMARK       I    between atoms: C_7  and  N_8 
REMARK    3  A    between atoms: C_14  and  C_15 
REMARK       I    between atoms: C_15  and  N_16 
REMARK    4  A    between atoms: N_16  and  C_17 
REMARK    5  A    between atoms: C_17  and  C_18 
REMARK       I    between atoms: N_25  and  C_26 
REMARK    6  A    between atoms: C_26  and  C_27 
REMARK    7  A    between atoms: C_30  and  O_31 
ROOT
HETATM    1  C   UNL     1     -47.149  62.168 -57.650  1.00  0.00     0.253 C 
HETATM    2  N   UNL     1     -46.124  61.216 -57.782  1.00  0.00    -0.348 N 
HETATM    3  C   UNL     1     -46.326  59.796 -57.509  1.00  0.00     0.131 C 
HETATM    4  C   UNL     1     -45.311  58.912 -58.200  1.00  0.00     0.081 C 
HETATM    5  C   UNL     1     -43.857  59.334 -57.978  1.00  0.00     0.142 C 
HETATM    6  O   UNL     1     -43.127  58.623 -59.027  1.00  0.00    -0.358 OA
HETATM    7  C   UNL     1     -41.951  58.034 -58.461  1.00  0.00     0.206 C 
HETATM    8  C   UNL     1     -42.302  57.780 -57.018  1.00  0.00     0.206 C 
HETATM    9  N   UNL     1     -43.235  58.868 -56.727  1.00  0.00    -0.300 N 
HETATM   10  C   UNL     1     -43.511  59.367 -55.468  1.00  0.00     0.257 C 
HETATM   11  O   UNL     1     -44.402  60.174 -55.228  1.00  0.00    -0.267 OA
HETATM   12  C   UNL     1     -43.684  60.826 -58.285  1.00  0.00     0.081 C 
HETATM   13  C   UNL     1     -44.760  61.736 -57.704  1.00  0.00     0.131 C 
HETATM   14  O   UNL     1     -46.985  63.371 -57.851  1.00  0.00    -0.267 OA
ENDROOT
BRANCH   8  15
HETATM   15  C   UNL     1     -42.891  56.362 -56.855  1.00  0.00     0.243 C 
HETATM   16  N   UNL     1     -42.543  55.716 -55.694  1.00  0.00    -0.355 N 
HETATM   17  H   UNL     1     -42.084  56.246 -54.966  1.00  0.00     0.162 HD
HETATM   18  O   UNL     1     -43.549  55.821 -57.741  1.00  0.00    -0.271 OA
BRANCH  16  19
HETATM   19  C   UNL     1     -43.007  54.389 -55.371  1.00  0.00     0.161 C 
BRANCH  19  20
HETATM   20  C   UNL     1     -42.074  53.760 -54.371  1.00  0.00    -0.041 A 
HETATM   21  C   UNL     1     -42.200  54.046 -53.005  1.00  0.00     0.009 A 
HETATM   22  C   UNL     1     -41.289  53.522 -52.085  1.00  0.00     0.001 A 
HETATM   23  C   UNL     1     -40.240  52.716 -52.525  1.00  0.00     0.000 A 
HETATM   24  C   UNL     1     -40.103  52.429 -53.881  1.00  0.00     0.001 A 
HETATM   25  C   UNL     1     -41.016  52.947 -54.801  1.00  0.00     0.009 A 
ENDBRANCH  19  20
ENDBRANCH  16  19
ENDBRANCH   8  15
BRANCH  10  26
HETATM   26  C   UNL     1     -42.768  58.867 -54.291  1.00  0.00     0.032 A 
HETATM   27  C   UNL     1     -41.448  59.242 -54.039  1.00  0.00     0.020 A 
HETATM   28  C   UNL     1     -40.803  58.762 -52.896  1.00  0.00     0.038 A 
HETATM   29  C   UNL     1     -41.478  57.942 -51.983  1.00  0.00     0.068 A 
HETATM   30  C   UNL     1     -42.811  57.606 -52.219  1.00  0.00     0.038 A 
HETATM   31  C   UNL     1     -43.458  58.075 -53.366  1.00  0.00     0.020 A 
BRANCH  29  32
HETATM   32  O   UNL     1     -40.730  57.550 -50.907  1.00  0.00    -0.356 OA
HETATM   33  C   UNL     1     -41.248  56.485 -50.118  1.00  0.00     0.210 C 
ENDBRANCH  29  32
ENDBRANCH  10  26
BRANCH   1  34
HETATM   34  C   UNL     1     -48.510  61.731 -57.262  1.00  0.00     0.032 A 
HETATM   35  C   UNL     1     -49.079  62.135 -56.051  1.00  0.00     0.020 A 
HETATM   36  C   UNL     1     -50.375  61.727 -55.726  1.00  0.00     0.038 A 
HETATM   37  C   UNL     1     -51.125  60.960 -56.622  1.00  0.00     0.068 A 
HETATM   38  C   UNL     1     -50.562  60.581 -57.843  1.00  0.00     0.038 A 
HETATM   39  C   UNL     1     -49.258  60.970 -58.166  1.00  0.00     0.020 A 
BRANCH  37  40
HETATM   40  O   UNL     1     -52.383  60.640 -56.189  1.00  0.00    -0.356 OA
HETATM   41  C   UNL     1     -52.804  61.253 -54.976  1.00  0.00     0.210 C 
ENDBRANCH  37  40
ENDBRANCH   1  34
TORSDOF 7
ENDMDL
MODEL 6
REMARK VINA RESULT:      -7.3      2.534      9.066
REMARK  7 active torsions:
REMARK  status: ('A' for Active; 'I' for Inactive)
REMARK    1  A    between atoms: O_2  and  C_3 
REMARK    2  A    between atoms: C_6  and  C_7 
REMARK       I    between atoms: C_7  and  N_8 
REMARK    3  A    between atoms: C_14  and  C_15 
REMARK       I    between atoms: C_15  and  N_16 
REMARK    4  A    between atoms: N_16  and  C_17 
REMARK    5  A    between atoms: C_17  and  C_18 
REMARK       I    between atoms: N_25  and  C_26 
REMARK    6  A    between atoms: C_26  and  C_27 
REMARK    7  A    between atoms: C_30  and  O_31 
ROOT
HETATM    1  C   UNL     1     -44.838  59.306 -59.264  1.00  0.00     0.253 C 
HETATM    2  N   UNL     1     -44.798  59.114 -57.874  1.00  0.00    -0.348 N 
HETATM    3  C   UNL     1     -43.705  59.606 -57.040  1.00  0.00     0.131 C 
HETATM    4  C   UNL     1     -44.098  59.770 -55.588  1.00  0.00     0.081 C 
HETATM    5  C   UNL     1     -44.770  58.538 -54.977  1.00  0.00     0.142 C 
HETATM    6  O   UNL     1     -45.402  59.055 -53.765  1.00  0.00    -0.358 OA
HETATM    7  C   UNL     1     -45.135  58.158 -52.680  1.00  0.00     0.206 C 
HETATM    8  C   UNL     1     -43.821  57.510 -53.029  1.00  0.00     0.206 C 
HETATM    9  N   UNL     1     -43.864  57.484 -54.490  1.00  0.00    -0.300 N 
HETATM   10  C   UNL     1     -43.143  56.621 -55.295  1.00  0.00     0.257 C 
HETATM   11  O   UNL     1     -43.077  56.712 -56.516  1.00  0.00    -0.267 OA
HETATM   12  C   UNL     1     -45.917  58.059 -55.876  1.00  0.00     0.081 C 
HETATM   13  C   UNL     1     -45.593  57.997 -57.364  1.00  0.00     0.131 C 
HETATM   14  O   UNL     1     -45.739  58.873 -59.982  1.00  0.00    -0.267 OA
ENDROOT
BRANCH   8  15
HETATM   15  C   UNL     1     -42.652  58.320 -52.430  1.00  0.00     0.243 C 
HETATM   16  N   UNL     1     -43.015  59.477 -51.783  1.00  0.00    -0.355 N 
HETATM   17  H   UNL     1     -43.996  59.636 -51.594  1.00  0.00     0.162 HD
HETATM   18  O   UNL     1     -41.478  57.998 -52.599  1.00  0.00    -0.271 OA
BRANCH  16  19
HETATM   19  C   UNL     1     -42.056  60.353 -51.158  1.00  0.00     0.161 C 
BRANCH  19  20
HETATM   20  C   UNL     1     -42.781  61.408 -50.364  1.00  0.00    -0.041 A 
HETATM   21  C   UNL     1     -43.829  61.054 -49.503  1.00  0.00     0.009 A 
HETATM   22  C   UNL     1     -44.551  62.038 -48.825  1.00  0.00     0.001 A 
HETATM   23  C   UNL     1     -44.237  63.384 -49.009  1.00  0.00     0.000 A 
HETATM   24  C   UNL     1     -43.201  63.748 -49.866  1.00  0.00     0.001 A 
HETATM   25  C   UNL     1     -42.475  62.765 -50.540  1.00  0.00     0.009 A 
ENDBRANCH  19  20
ENDBRANCH  16  19
ENDBRANCH   8  15
BRANCH  10  26
HETATM   26  C   UNL     1     -42.319  55.553 -54.688  1.00  0.00     0.032 A 
HETATM   27  C   UNL     1     -42.857  54.624 -53.798  1.00  0.00     0.020 A 
HETATM   28  C   UNL     1     -42.037  53.618 -53.277  1.00  0.00     0.038 A 
HETATM   29  C   UNL     1     -40.697  53.511 -53.668  1.00  0.00     0.068 A 
HETATM   30  C   UNL     1     -40.178  54.418 -54.592  1.00  0.00     0.038 A 
HETATM   31  C   UNL     1     -40.990  55.432 -55.108  1.00  0.00     0.020 A 
BRANCH  29  32
HETATM   32  O   UNL     1     -40.013  52.479 -53.085  1.00  0.00    -0.356 OA
HETATM   33  C   UNL     1     -39.925  52.485 -51.666  1.00  0.00     0.210 C 
ENDBRANCH  29  32
ENDBRANCH  10  26
BRANCH   1  34
HETATM   34  C   UNL     1     -43.761  60.076 -59.930  1.00  0.00     0.032 A 
HETATM   35  C   UNL     1     -42.696  59.427 -60.562  1.00  0.00     0.020 A 
HETATM   36  C   UNL     1     -41.710  60.180 -61.203  1.00  0.00     0.038 A 
HETATM   37  C   UNL     1     -41.805  61.574 -61.260  1.00  0.00     0.068 A 
HETATM   38  C   UNL     1     -42.884  62.217 -60.650  1.00  0.00     0.038 A 
HETATM   39  C   UNL     1     -43.865  61.468 -59.990  1.00  0.00     0.020 A 
BRANCH  37  40
HETATM   40  O   UNL     1     -40.782  62.190 -61.929  1.00  0.00    -0.356 OA
HETATM   41  C   UNL     1     -39.857  62.918 -61.128  1.00  0.00     0.210 C 
ENDBRANCH  37  40
ENDBRANCH   1  34
TORSDOF 7
ENDMDL
MODEL 7
REMARK VINA RESULT:      -7.3      2.420      6.117
REMARK  7 active torsions:
REMARK  status: ('A' for Active; 'I' for Inactive)
REMARK    1  A    between atoms: O_2  and  C_3 
REMARK    2  A    between atoms: C_6  and  C_7 
REMARK       I    between atoms: C_7  and  N_8 
REMARK    3  A    between atoms: C_14  and  C_15 
REMARK       I    between atoms: C_15  and  N_16 
REMARK    4  A    between atoms: N_16  and  C_17 
REMARK    5  A    between atoms: C_17  and  C_18 
REMARK       I    between atoms: N_25  and  C_26 
REMARK    6  A    between atoms: C_26  and  C_27 
REMARK    7  A    between atoms: C_30  and  O_31 
ROOT
HETATM    1  C   UNL     1     -42.901  54.793 -55.619  1.00  0.00     0.253 C 
HETATM    2  N   UNL     1     -42.781  55.761 -56.629  1.00  0.00    -0.348 N 
HETATM    3  C   UNL     1     -42.464  57.159 -56.350  1.00  0.00     0.131 C 
HETATM    4  C   UNL     1     -41.871  57.880 -57.540  1.00  0.00     0.081 C 
HETATM    5  C   UNL     1     -42.678  57.726 -58.832  1.00  0.00     0.142 C 
HETATM    6  O   UNL     1     -41.739  58.134 -59.876  1.00  0.00    -0.358 OA
HETATM    7  C   UNL     1     -42.408  59.008 -60.791  1.00  0.00     0.206 C 
HETATM    8  C   UNL     1     -43.480  59.678 -59.971  1.00  0.00     0.206 C 
HETATM    9  N   UNL     1     -43.817  58.645 -58.994  1.00  0.00    -0.300 N 
HETATM   10  C   UNL     1     -45.013  58.557 -58.305  1.00  0.00     0.257 C 
HETATM   11  O   UNL     1     -45.220  57.775 -57.384  1.00  0.00    -0.267 OA
HETATM   12  C   UNL     1     -42.981  56.246 -59.096  1.00  0.00     0.081 C 
HETATM   13  C   UNL     1     -43.466  55.458 -57.885  1.00  0.00     0.131 C 
HETATM   14  O   UNL     1     -43.194  53.618 -55.838  1.00  0.00    -0.267 OA
ENDROOT
BRANCH   8  15
HETATM   15  C   UNL     1     -42.943  60.992 -59.365  1.00  0.00     0.243 C 
HETATM   16  N   UNL     1     -41.574  61.089 -59.304  1.00  0.00    -0.355 N 
HETATM   17  H   UNL     1     -41.019  60.402 -59.795  1.00  0.00     0.162 HD
HETATM   18  O   UNL     1     -43.688  61.847 -58.891  1.00  0.00    -0.271 OA
BRANCH  16  19
HETATM   19  C   UNL     1     -40.899  62.248 -58.775  1.00  0.00     0.161 C 
BRANCH  19  20
HETATM   20  C   UNL     1     -40.074  62.890 -59.859  1.00  0.00    -0.041 A 
HETATM   21  C   UNL     1     -40.295  62.565 -61.205  1.00  0.00     0.009 A 
HETATM   22  C   UNL     1     -39.482  63.102 -62.205  1.00  0.00     0.001 A 
HETATM   23  C   UNL     1     -38.435  63.959 -61.867  1.00  0.00     0.000 A 
HETATM   24  C   UNL     1     -38.204  64.284 -60.532  1.00  0.00     0.001 A 
HETATM   25  C   UNL     1     -39.019  63.753 -59.532  1.00  0.00     0.009 A 
ENDBRANCH  19  20
ENDBRANCH  16  19
ENDBRANCH   8  15
BRANCH  10  26
HETATM   26  C   UNL     1     -46.114  59.497 -58.606  1.00  0.00     0.032 A 
HETATM   27  C   UNL     1     -46.881  59.387 -59.766  1.00  0.00     0.020 A 
HETATM   28  C   UNL     1     -47.928  60.286 -59.985  1.00  0.00     0.038 A 
HETATM   29  C   UNL     1     -48.240  61.269 -59.037  1.00  0.00     0.068 A 
HETATM   30  C   UNL     1     -47.496  61.345 -57.859  1.00  0.00     0.038 A 
HETATM   31  C   UNL     1     -46.441  60.456 -57.640  1.00  0.00     0.020 A 
BRANCH  29  32
HETATM   32  O   UNL     1     -49.290  62.077 -59.376  1.00  0.00    -0.356 OA
HETATM   33  C   UNL     1     -50.495  61.433 -59.774  1.00  0.00     0.210 C 
ENDBRANCH  29  32
ENDBRANCH  10  26
BRANCH   1  34
HETATM   34  C   UNL     1     -42.657  55.171 -54.207  1.00  0.00     0.032 A 
HETATM   35  C   UNL     1     -43.644  55.810 -53.451  1.00  0.00     0.020 A 
HETATM   36  C   UNL     1     -43.392  56.131 -52.115  1.00  0.00     0.038 A 
HETATM   37  C   UNL     1     -42.181  55.774 -51.515  1.00  0.00     0.068 A 
HETATM   38  C   UNL     1     -41.207  55.113 -52.267  1.00  0.00     0.038 A 
HETATM   39  C   UNL     1     -41.447  54.806 -53.611  1.00  0.00     0.020 A 
BRANCH  37  40
HETATM   40  O   UNL     1     -42.066  56.134 -50.199  1.00  0.00    -0.356 OA
HETATM   41  C   UNL     1     -41.296  55.264 -49.376  1.00  0.00     0.210 C 
ENDBRANCH  37  40
ENDBRANCH   1  34
TORSDOF 7
ENDMDL
MODEL 8
REMARK VINA RESULT:      -7.2      1.935      3.057
REMARK  7 active torsions:
REMARK  status: ('A' for Active; 'I' for Inactive)
REMARK    1  A    between atoms: O_2  and  C_3 
REMARK    2  A    between atoms: C_6  and  C_7 
REMARK       I    between atoms: C_7  and  N_8 
REMARK    3  A    between atoms: C_14  and  C_15 
REMARK       I    between atoms: C_15  and  N_16 
REMARK    4  A    between atoms: N_16  and  C_17 
REMARK    5  A    between atoms: C_17  and  C_18 
REMARK       I    between atoms: N_25  and  C_26 
REMARK    6  A    between atoms: C_26  and  C_27 
REMARK    7  A    between atoms: C_30  and  O_31 
ROOT
HETATM    1  C   UNL     1     -41.431  57.138 -53.121  1.00  0.00     0.253 C 
HETATM    2  N   UNL     1     -42.352  57.891 -53.868  1.00  0.00    -0.348 N 
HETATM    3  C   UNL     1     -43.061  57.350 -55.025  1.00  0.00     0.131 C 
HETATM    4  C   UNL     1     -44.339  58.096 -55.336  1.00  0.00     0.081 C 
HETATM    5  C   UNL     1     -44.172  59.615 -55.430  1.00  0.00     0.142 C 
HETATM    6  O   UNL     1     -45.540  60.119 -55.325  1.00  0.00    -0.358 OA
HETATM    7  C   UNL     1     -45.744  61.126 -56.324  1.00  0.00     0.206 C 
HETATM    8  C   UNL     1     -44.804  60.757 -57.442  1.00  0.00     0.206 C 
HETATM    9  N   UNL     1     -43.695  60.131 -56.724  1.00  0.00    -0.300 N 
HETATM   10  C   UNL     1     -42.401  60.018 -57.197  1.00  0.00     0.257 C 
HETATM   11  O   UNL     1     -41.523  59.361 -56.648  1.00  0.00    -0.267 OA
HETATM   12  C   UNL     1     -43.434  60.145 -54.194  1.00  0.00     0.081 C 
HETATM   13  C   UNL     1     -42.206  59.343 -53.779  1.00  0.00     0.131 C 
HETATM   14  O   UNL     1     -40.807  57.590 -52.162  1.00  0.00    -0.267 OA
ENDROOT
BRANCH   8  15
HETATM   15  C   UNL     1     -45.518  59.839 -58.456  1.00  0.00     0.243 C 
HETATM   16  N   UNL     1     -46.468  60.456 -59.234  1.00  0.00    -0.355 N 
HETATM   17  H   UNL     1     -46.522  61.466 -59.219  1.00  0.00     0.162 HD
HETATM   18  O   UNL     1     -45.313  58.628 -58.501  1.00  0.00    -0.271 OA
BRANCH  16  19
HETATM   19  C   UNL     1     -47.228  59.755 -60.238  1.00  0.00     0.161 C 
BRANCH  19  20
HETATM   20  C   UNL     1     -48.667  60.196 -60.181  1.00  0.00    -0.041 A 
HETATM   21  C   UNL     1     -49.212  60.686 -58.986  1.00  0.00     0.009 A 
HETATM   22  C   UNL     1     -50.564  61.025 -58.912  1.00  0.00     0.001 A 
HETATM   23  C   UNL     1     -51.385  60.867 -60.028  1.00  0.00     0.000 A 
HETATM   24  C   UNL     1     -50.854  60.376 -61.220  1.00  0.00     0.001 A 
HETATM   25  C   UNL     1     -49.501  60.043 -61.297  1.00  0.00     0.009 A 
ENDBRANCH  19  20
ENDBRANCH  16  19
ENDBRANCH   8  15
BRANCH  10  26
HETATM   26  C   UNL     1     -42.022  60.642 -58.483  1.00  0.00     0.032 A 
HETATM   27  C   UNL     1     -41.433  61.904 -58.544  1.00  0.00     0.020 A 
HETATM   28  C   UNL     1     -41.069  62.434 -59.786  1.00  0.00     0.038 A 
HETATM   29  C   UNL     1     -41.254  61.696 -60.961  1.00  0.00     0.068 A 
HETATM   30  C   UNL     1     -41.804  60.416 -60.888  1.00  0.00     0.038 A 
HETATM   31  C   UNL     1     -42.180  59.886 -59.650  1.00  0.00     0.020 A 
BRANCH  29  32
HETATM   32  O   UNL     1     -40.850  62.331 -62.103  1.00  0.00    -0.356 OA
HETATM   33  C   UNL     1     -39.573  62.957 -62.074  1.00  0.00     0.210 C 
ENDBRANCH  29  32
ENDBRANCH  10  26
BRANCH   1  34
HETATM   34  C   UNL     1     -41.184  55.720 -53.474  1.00  0.00     0.032 A 
HETATM   35  C   UNL     1     -41.784  54.683 -52.753  1.00  0.00     0.020 A 
HETATM   36  C   UNL     1     -41.552  53.358 -53.127  1.00  0.00     0.038 A 
HETATM   37  C   UNL     1     -40.766  53.061 -54.244  1.00  0.00     0.068 A 
HETATM   38  C   UNL     1     -40.190  54.101 -54.978  1.00  0.00     0.038 A 
HETATM   39  C   UNL     1     -40.404  55.430 -54.597  1.00  0.00     0.020 A 
BRANCH  37  40
HETATM   40  O   UNL     1     -40.629  51.726 -54.511  1.00  0.00    -0.356 OA
HETATM   41  C   UNL     1     -39.626  51.038 -53.771  1.00  0.00     0.210 C 
ENDBRANCH  37  40
ENDBRANCH   1  34
TORSDOF 7
ENDMDL
MODEL 9
REMARK VINA RESULT:      -7.0      4.630      9.125
REMARK  7 active torsions:
REMARK  status: ('A' for Active; 'I' for Inactive)
REMARK    1  A    between atoms: O_2  and  C_3 
REMARK    2  A    between atoms: C_6  and  C_7 
REMARK       I    between atoms: C_7  and  N_8 
REMARK    3  A    between atoms: C_14  and  C_15 
REMARK       I    between atoms: C_15  and  N_16 
REMARK    4  A    between atoms: N_16  and  C_17 
REMARK    5  A    between atoms: C_17  and  C_18 
REMARK       I    between atoms: N_25  and  C_26 
REMARK    6  A    between atoms: C_26  and  C_27 
REMARK    7  A    between atoms: C_30  and  O_31 
ROOT
HETATM    1  C   UNL     1     -49.854  63.414 -51.814  1.00  0.00     0.253 C 
HETATM    2  N   UNL     1     -48.485  63.387 -52.124  1.00  0.00    -0.348 N 
HETATM    3  C   UNL     1     -47.983  63.065 -53.458  1.00  0.00     0.131 C 
HETATM    4  C   UNL     1     -46.590  63.599 -53.709  1.00  0.00     0.081 C 
HETATM    5  C   UNL     1     -45.576  63.244 -52.619  1.00  0.00     0.142 C 
HETATM    6  O   UNL     1     -44.472  64.171 -52.860  1.00  0.00    -0.358 OA
HETATM    7  C   UNL     1     -43.235  63.454 -52.787  1.00  0.00     0.206 C 
HETATM    8  C   UNL     1     -43.580  62.046 -53.196  1.00  0.00     0.206 C 
HETATM    9  N   UNL     1     -44.957  61.912 -52.723  1.00  0.00    -0.300 N 
HETATM   10  C   UNL     1     -45.592  60.716 -52.441  1.00  0.00     0.257 C 
HETATM   11  O   UNL     1     -46.787  60.614 -52.189  1.00  0.00    -0.267 OA
HETATM   12  C   UNL     1     -46.135  63.606 -51.237  1.00  0.00     0.081 C 
HETATM   13  C   UNL     1     -47.580  63.190 -50.992  1.00  0.00     0.131 C 
HETATM   14  O   UNL     1     -50.289  63.657 -50.689  1.00  0.00    -0.267 OA
ENDROOT
BRANCH   8  15
HETATM   15  C   UNL     1     -43.401  61.875 -54.719  1.00  0.00     0.243 C 
HETATM   16  N   UNL     1     -42.484  60.923 -55.095  1.00  0.00    -0.355 N 
HETATM   17  H   UNL     1     -42.123  60.296 -54.389  1.00  0.00     0.162 HD
HETATM   18  O   UNL     1     -43.970  62.600 -55.531  1.00  0.00    -0.271 OA
BRANCH  16  19
HETATM   19  C   UNL     1     -42.193  60.623 -56.475  1.00  0.00     0.161 C 
BRANCH  19  20
HETATM   20  C   UNL     1     -42.839  59.317 -56.854  1.00  0.00    -0.041 A 
HETATM   21  C   UNL     1     -42.119  58.117 -56.768  1.00  0.00     0.009 A 
HETATM   22  C   UNL     1     -42.692  56.916 -57.190  1.00  0.00     0.001 A 
HETATM   23  C   UNL     1     -43.984  56.906 -57.712  1.00  0.00     0.000 A 
HETATM   24  C   UNL     1     -44.707  58.093 -57.807  1.00  0.00     0.001 A 
HETATM   25  C   UNL     1     -44.138  59.293 -57.379  1.00  0.00     0.009 A 
ENDBRANCH  19  20
ENDBRANCH  16  19
ENDBRANCH   8  15
BRANCH  10  26
HETATM   26  C   UNL     1     -44.843  59.443 -52.513  1.00  0.00     0.032 A 
HETATM   27  C   UNL     1     -44.124  58.948 -51.424  1.00  0.00     0.020 A 
HETATM   28  C   UNL     1     -43.458  57.725 -51.540  1.00  0.00     0.038 A 
HETATM   29  C   UNL     1     -43.537  56.974 -52.718  1.00  0.00     0.068 A 
HETATM   30  C   UNL     1     -44.293  57.454 -53.788  1.00  0.00     0.038 A 
HETATM   31  C   UNL     1     -44.952  58.682 -53.682  1.00  0.00     0.020 A 
BRANCH  29  32
HETATM   32  O   UNL     1     -42.843  55.796 -52.693  1.00  0.00    -0.356 OA
HETATM   33  C   UNL     1     -43.114  54.866 -53.734  1.00  0.00     0.210 C 
ENDBRANCH  29  32
ENDBRANCH  10  26
BRANCH   1  34
HETATM   34  C   UNL     1     -50.853  63.152 -52.877  1.00  0.00     0.032 A 
HETATM   35  C   UNL     1     -51.323  61.858 -53.121  1.00  0.00     0.020 A 
HETATM   36  C   UNL     1     -52.283  61.648 -54.113  1.00  0.00     0.038 A 
HETATM   37  C   UNL     1     -52.814  62.725 -54.829  1.00  0.00     0.068 A 
HETATM   38  C   UNL     1     -52.361  64.019 -54.563  1.00  0.00     0.038 A 
HETATM   39  C   UNL     1     -51.385  64.234 -53.584  1.00  0.00     0.020 A 
BRANCH  37  40
HETATM   40  O   UNL     1     -53.756  62.385 -55.761  1.00  0.00    -0.356 OA
HETATM   41  C   UNL     1     -53.737  61.034 -56.209  1.00  0.00     0.210 C 
ENDBRANCH  37  40
ENDBRANCH   1  34
TORSDOF 7
ENDMDL
MODEL 10
REMARK VINA RESULT:      -6.7      1.642      2.579
REMARK  7 active torsions:
REMARK  status: ('A' for Active; 'I' for Inactive)
REMARK    1  A    between atoms: O_2  and  C_3 
REMARK    2  A    between atoms: C_6  and  C_7 
REMARK       I    between atoms: C_7  and  N_8 
REMARK    3  A    between atoms: C_14  and  C_15 
REMARK       I    between atoms: C_15  and  N_16 
REMARK    4  A    between atoms: N_16  and  C_17 
REMARK    5  A    between atoms: C_17  and  C_18 
REMARK       I    between atoms: N_25  and  C_26 
REMARK    6  A    between atoms: C_26  and  C_27 
REMARK    7  A    between atoms: C_30  and  O_31 
ROOT
HETATM    1  C   UNL     1     -41.505  56.985 -52.334  1.00  0.00     0.253 C 
HETATM    2  N   UNL     1     -42.434  57.823 -52.974  1.00  0.00    -0.348 N 
HETATM    3  C   UNL     1     -43.158  57.424 -54.178  1.00  0.00     0.131 C 
HETATM    4  C   UNL     1     -44.439  58.203 -54.382  1.00  0.00     0.081 C 
HETATM    5  C   UNL     1     -44.269  59.722 -54.295  1.00  0.00     0.142 C 
HETATM    6  O   UNL     1     -45.635  60.211 -54.114  1.00  0.00    -0.358 OA
HETATM    7  C   UNL     1     -45.850  61.330 -54.982  1.00  0.00     0.206 C 
HETATM    8  C   UNL     1     -44.924  61.097 -56.148  1.00  0.00     0.206 C 
HETATM    9  N   UNL     1     -43.808  60.390 -55.524  1.00  0.00    -0.300 N 
HETATM   10  C   UNL     1     -42.519  60.333 -56.023  1.00  0.00     0.257 C 
HETATM   11  O   UNL     1     -41.636  59.615 -55.568  1.00  0.00    -0.267 OA
HETATM   12  C   UNL     1     -43.515  60.100 -53.014  1.00  0.00     0.081 C 
HETATM   13  C   UNL     1     -42.284  59.254 -52.713  1.00  0.00     0.131 C 
HETATM   14  O   UNL     1     -40.868  57.319 -51.335  1.00  0.00    -0.267 OA
ENDROOT
BRANCH   8  15
HETATM   15  C   UNL     1     -45.652  60.308 -57.256  1.00  0.00     0.243 C 
HETATM   16  N   UNL     1     -44.853  59.469 -57.995  1.00  0.00    -0.355 N 
HETATM   17  H   UNL     1     -43.910  59.294 -57.674  1.00  0.00     0.162 HD
HETATM   18  O   UNL     1     -46.840  60.485 -57.514  1.00  0.00    -0.271 OA
BRANCH  16  19
HETATM   19  C   UNL     1     -45.364  58.649 -59.066  1.00  0.00     0.161 C 
BRANCH  19  20
HETATM   20  C   UNL     1     -45.338  59.430 -60.353  1.00  0.00    -0.041 A 
HETATM   21  C   UNL     1     -44.127  59.915 -60.865  1.00  0.00     0.009 A 
HETATM   22  C   UNL     1     -44.112  60.703 -62.018  1.00  0.00     0.001 A 
HETATM   23  C   UNL     1     -45.306  61.020 -62.662  1.00  0.00     0.000 A 
HETATM   24  C   UNL     1     -46.517  60.548 -62.159  1.00  0.00     0.001 A 
HETATM   25  C   UNL     1     -46.534  59.755 -61.010  1.00  0.00     0.009 A 
ENDBRANCH  19  20
ENDBRANCH  16  19
ENDBRANCH   8  15
BRANCH  10  26
HETATM   26  C   UNL     1     -42.156  61.107 -57.230  1.00  0.00     0.032 A 
HETATM   27  C   UNL     1     -41.540  60.510 -58.330  1.00  0.00     0.020 A 
HETATM   28  C   UNL     1     -41.244  61.283 -59.456  1.00  0.00     0.038 A 
HETATM   29  C   UNL     1     -41.594  62.638 -59.506  1.00  0.00     0.068 A 
HETATM   30  C   UNL     1     -42.249  63.218 -58.420  1.00  0.00     0.038 A 
HETATM   31  C   UNL     1     -42.537  62.451 -57.287  1.00  0.00     0.020 A 
BRANCH  29  32
HETATM   32  O   UNL     1     -41.252  63.274 -60.668  1.00  0.00    -0.356 OA
HETATM   33  C   UNL     1     -39.942  63.035 -61.170  1.00  0.00     0.210 C 
ENDBRANCH  29  32
ENDBRANCH  10  26
BRANCH   1  34
HETATM   34  C   UNL     1     -41.266  55.620 -52.858  1.00  0.00     0.032 A 
HETATM   35  C   UNL     1     -41.849  54.503 -52.252  1.00  0.00     0.020 A 
HETATM   36  C   UNL     1     -41.624  53.232 -52.784  1.00  0.00     0.038 A 
HETATM   37  C   UNL     1     -40.863  53.072 -53.946  1.00  0.00     0.068 A 
HETATM   38  C   UNL     1     -40.304  54.193 -54.563  1.00  0.00     0.038 A 
HETATM   39  C   UNL     1     -40.509  55.467 -54.023  1.00  0.00     0.020 A 
BRANCH  37  40
HETATM   40  O   UNL     1     -40.731  51.778 -54.371  1.00  0.00    -0.356 OA
HETATM   41  C   UNL     1     -39.585  51.076 -53.901  1.00  0.00     0.210 C 
ENDBRANCH  37  40
ENDBRANCH   1  34
TORSDOF 7
ENDMDL
