MODEL 1
REMARK VINA RESULT:      -8.3      0.000      0.000
REMARK  8 active torsions:
REMARK  status: ('A' for Active; 'I' for Inactive)
REMARK    1  A    between atoms: C_3  and  N_4 
REMARK       I    between atoms: N_4  and  C_5 
REMARK       I    between atoms: C_5  and  N_6 
REMARK       I    between atoms: N_6  and  C_7 
REMARK    2  A    between atoms: C_7  and  C_8 
REMARK    3  A    between atoms: C_8  and  N_9 
REMARK    4  A    between atoms: N_9  and  C_11 
REMARK    5  A    between atoms: N_9  and  C_17 
REMARK    6  A    between atoms: C_11  and  C_12 
REMARK    7  A    between atoms: C_17  and  C_18 
REMARK    8  A    between atoms: C_19  and  O_20 
ROOT
HETATM    1  N   UNL     1     -41.478  55.006 -53.920  1.00  0.00    -0.053 N 
HETATM    2  H   UNL     1     -41.234  54.332 -54.662  1.00  0.00     0.281 HD
ENDROOT
BRANCH   1   3
HETATM    3  C   UNL     1     -42.973  55.241 -54.061  1.00  0.00     0.338 C 
BRANCH   3   4
HETATM    4  C   UNL     1     -43.359  55.687 -55.470  1.00  0.00     0.251 C 
HETATM    5  N   UNL     1     -44.032  56.887 -55.530  1.00  0.00    -0.278 N 
HETATM    6  C   UNL     1     -44.220  57.642 -56.656  1.00  0.00     0.323 C 
HETATM    7  H   UNL     1     -43.963  57.508 -54.732  1.00  0.00     0.173 HD
HETATM    8  N   UNL     1     -44.366  56.959 -57.822  1.00  0.00    -0.338 N 
HETATM    9  O   UNL     1     -44.230  58.864 -56.549  1.00  0.00    -0.247 OA
HETATM   10  H   UNL     1     -44.178  55.962 -57.806  1.00  0.00     0.164 HD
HETATM   11  O   UNL     1     -43.055  54.986 -56.435  1.00  0.00    -0.271 OA
BRANCH   8  12
HETATM   12  C   UNL     1     -44.529  57.622 -59.114  1.00  0.00     0.089 C 
HETATM   13  C   UNL     1     -43.845  56.842 -60.262  1.00  0.00     0.004 C 
HETATM   14  C   UNL     1     -42.357  56.590 -60.003  1.00  0.00     0.012 C 
HETATM   15  C   UNL     1     -44.576  55.526 -60.572  1.00  0.00     0.006 C 
HETATM   16  C   UNL     1     -46.054  55.762 -60.871  1.00  0.00     0.001 C 
HETATM   17  C   UNL     1     -46.745  56.538 -59.755  1.00  0.00     0.002 C 
HETATM   18  C   UNL     1     -46.016  57.844 -59.443  1.00  0.00     0.026 C 
ENDBRANCH   8  12
ENDBRANCH   3   4
ENDBRANCH   1   3
BRANCH   1  19
HETATM   19  C   UNL     1     -40.611  56.201 -54.238  1.00  0.00     0.300 C 
BRANCH  19  20
HETATM   20  C   UNL     1     -41.022  57.461 -53.570  1.00  0.00     0.078 A 
HETATM   21  O   UNL     1     -41.507  58.443 -54.387  1.00  0.00    -0.325 OA
HETATM   22  C   UNL     1     -41.764  59.522 -53.605  1.00  0.00     0.142 A 
HETATM   23  C   UNL     1     -41.484  59.236 -52.290  1.00  0.00     0.027 A 
HETATM   24  C   UNL     1     -41.005  57.902 -52.264  1.00  0.00     0.036 A 
ENDBRANCH  19  20
ENDBRANCH   1  19
BRANCH   1  25
HETATM   25  C   UNL     1     -41.114  54.326 -52.627  1.00  0.00     0.277 C 
BRANCH  25  26
HETATM   26  C   UNL     1     -40.616  52.926 -52.863  1.00  0.00     0.001 A 
HETATM   27  C   UNL     1     -39.998  52.217 -51.825  1.00  0.00     0.073 A 
HETATM   28  C   UNL     1     -39.501  50.932 -52.020  1.00  0.00     0.037 A 
HETATM   29  C   UNL     1     -39.607  50.342 -53.278  1.00  0.00     0.003 A 
HETATM   30  C   UNL     1     -40.210  51.036 -54.328  1.00  0.00     0.001 A 
HETATM   31  C   UNL     1     -40.717  52.321 -54.123  1.00  0.00     0.011 A 
BRANCH  27  32
HETATM   32  O   UNL     1     -39.866  52.834 -50.612  1.00  0.00    -0.360 OA
HETATM   33  H   UNL     1     -40.609  53.462 -50.510  1.00  0.00     0.217 HD
ENDBRANCH  27  32
ENDBRANCH  25  26
ENDBRANCH   1  25
TORSDOF 8
ENDMDL
MODEL 2
REMARK VINA RESULT:      -8.1      1.284      1.643
REMARK  8 active torsions:
REMARK  status: ('A' for Active; 'I' for Inactive)
REMARK    1  A    between atoms: C_3  and  N_4 
REMARK       I    between atoms: N_4  and  C_5 
REMARK       I    between atoms: C_5  and  N_6 
REMARK       I    between atoms: N_6  and  C_7 
REMARK    2  A    between atoms: C_7  and  C_8 
REMARK    3  A    between atoms: C_8  and  N_9 
REMARK    4  A    between atoms: N_9  and  C_11 
REMARK    5  A    between atoms: N_9  and  C_17 
REMARK    6  A    between atoms: C_11  and  C_12 
REMARK    7  A    between atoms: C_17  and  C_18 
REMARK    8  A    between atoms: C_19  and  O_20 
ROOT
HETATM    1  N   UNL     1     -42.135  55.725 -53.555  1.00  0.00    -0.053 N 
HETATM    2  H   UNL     1     -41.893  55.213 -54.418  1.00  0.00     0.281 HD
ENDROOT
BRANCH   1   3
HETATM    3  C   UNL     1     -43.464  56.404 -53.846  1.00  0.00     0.338 C 
BRANCH   3   4
HETATM    4  C   UNL     1     -43.712  56.575 -55.342  1.00  0.00     0.251 C 
HETATM    5  N   UNL     1     -44.656  57.525 -55.665  1.00  0.00    -0.278 N 
HETATM    6  C   UNL     1     -44.844  58.077 -56.903  1.00  0.00     0.323 C 
HETATM    7  H   UNL     1     -44.886  58.220 -54.963  1.00  0.00     0.173 HD
HETATM    8  N   UNL     1     -44.610  57.263 -57.967  1.00  0.00    -0.338 N 
HETATM    9  O   UNL     1     -45.190  59.251 -56.977  1.00  0.00    -0.247 OA
HETATM   10  H   UNL     1     -44.173  56.366 -57.782  1.00  0.00     0.164 HD
HETATM   11  O   UNL     1     -43.079  55.891 -56.147  1.00  0.00    -0.271 OA
BRANCH   8  12
HETATM   12  C   UNL     1     -44.722  57.717 -59.351  1.00  0.00     0.089 C 
HETATM   13  C   UNL     1     -43.796  56.924 -60.304  1.00  0.00     0.004 C 
HETATM   14  C   UNL     1     -42.328  56.964 -59.873  1.00  0.00     0.012 C 
HETATM   15  C   UNL     1     -44.271  55.473 -60.485  1.00  0.00     0.006 C 
HETATM   16  C   UNL     1     -45.724  55.413 -60.953  1.00  0.00     0.001 C 
HETATM   17  C   UNL     1     -46.652  56.196 -60.032  1.00  0.00     0.002 C 
HETATM   18  C   UNL     1     -46.178  57.637 -59.847  1.00  0.00     0.026 C 
ENDBRANCH   8  12
ENDBRANCH   3   4
ENDBRANCH   1   3
BRANCH   1  19
HETATM   19  C   UNL     1     -40.966  56.663 -53.370  1.00  0.00     0.300 C 
BRANCH  19  20
HETATM   20  C   UNL     1     -41.133  57.652 -52.276  1.00  0.00     0.078 A 
HETATM   21  O   UNL     1     -41.501  58.912 -52.657  1.00  0.00    -0.325 OA
HETATM   22  C   UNL     1     -41.537  59.674 -51.534  1.00  0.00     0.142 A 
HETATM   23  C   UNL     1     -41.232  58.912 -50.431  1.00  0.00     0.027 A 
HETATM   24  C   UNL     1     -40.972  57.603 -50.908  1.00  0.00     0.036 A 
ENDBRANCH  19  20
ENDBRANCH   1  19
BRANCH   1  25
HETATM   25  C   UNL     1     -42.239  54.674 -52.483  1.00  0.00     0.277 C 
BRANCH  25  26
HETATM   26  C   UNL     1     -41.286  53.537 -52.733  1.00  0.00     0.001 A 
HETATM   27  C   UNL     1     -41.297  52.869 -53.964  1.00  0.00     0.073 A 
HETATM   28  C   UNL     1     -40.449  51.795 -54.215  1.00  0.00     0.037 A 
HETATM   29  C   UNL     1     -39.578  51.365 -53.215  1.00  0.00     0.003 A 
HETATM   30  C   UNL     1     -39.558  52.010 -51.979  1.00  0.00     0.001 A 
HETATM   31  C   UNL     1     -40.405  53.094 -51.737  1.00  0.00     0.011 A 
BRANCH  27  32
HETATM   32  O   UNL     1     -42.192  53.281 -54.913  1.00  0.00    -0.360 OA
HETATM   33  H   UNL     1     -41.815  53.077 -55.792  1.00  0.00     0.217 HD
ENDBRANCH  27  32
ENDBRANCH  25  26
ENDBRANCH   1  25
TORSDOF 8
ENDMDL
MODEL 3
REMARK VINA RESULT:      -7.8      3.305      5.983
REMARK  8 active torsions:
REMARK  status: ('A' for Active; 'I' for Inactive)
REMARK    1  A    between atoms: C_3  and  N_4 
REMARK       I    between atoms: N_4  and  C_5 
REMARK       I    between atoms: C_5  and  N_6 
REMARK       I    between atoms: N_6  and  C_7 
REMARK    2  A    between atoms: C_7  and  C_8 
REMARK    3  A    between atoms: C_8  and  N_9 
REMARK    4  A    between atoms: N_9  and  C_11 
REMARK    5  A    between atoms: N_9  and  C_17 
REMARK    6  A    between atoms: C_11  and  C_12 
REMARK    7  A    between atoms: C_17  and  C_18 
REMARK    8  A    between atoms: C_19  and  O_20 
ROOT
HETATM    1  N   UNL     1     -42.048  53.922 -51.848  1.00  0.00    -0.053 N 
HETATM    2  H   UNL     1     -42.260  52.954 -51.558  1.00  0.00     0.281 HD
ENDROOT
BRANCH   1   3
HETATM    3  C   UNL     1     -41.957  54.720 -50.557  1.00  0.00     0.338 C 
BRANCH   3   4
HETATM    4  C   UNL     1     -42.492  56.141 -50.716  1.00  0.00     0.251 C 
HETATM    5  N   UNL     1     -41.540  57.083 -51.039  1.00  0.00    -0.278 N 
HETATM    6  C   UNL     1     -41.789  58.338 -51.523  1.00  0.00     0.323 C 
HETATM    7  H   UNL     1     -40.663  56.753 -51.429  1.00  0.00     0.173 HD
HETATM    8  N   UNL     1     -42.919  58.945 -51.072  1.00  0.00    -0.338 N 
HETATM    9  O   UNL     1     -41.002  58.824 -52.329  1.00  0.00    -0.247 OA
HETATM   10  H   UNL     1     -43.569  58.380 -50.535  1.00  0.00     0.164 HD
HETATM   11  O   UNL     1     -43.693  56.360 -50.561  1.00  0.00    -0.271 OA
BRANCH   8  12
HETATM   12  C   UNL     1     -43.346  60.265 -51.529  1.00  0.00     0.089 C 
HETATM   13  C   UNL     1     -44.812  60.267 -52.022  1.00  0.00     0.004 C 
HETATM   14  C   UNL     1     -45.067  59.239 -53.127  1.00  0.00     0.012 C 
HETATM   15  C   UNL     1     -45.804  60.079 -50.863  1.00  0.00     0.006 C 
HETATM   16  C   UNL     1     -45.590  61.121 -49.767  1.00  0.00     0.001 C 
HETATM   17  C   UNL     1     -44.148  61.142 -49.274  1.00  0.00     0.002 C 
HETATM   18  C   UNL     1     -43.161  61.323 -50.426  1.00  0.00     0.026 C 
ENDBRANCH   8  12
ENDBRANCH   3   4
ENDBRANCH   1   3
BRANCH   1  19
HETATM   19  C   UNL     1     -43.212  54.280 -52.739  1.00  0.00     0.300 C 
BRANCH  19  20
HETATM   20  C   UNL     1     -42.833  54.811 -54.072  1.00  0.00     0.078 A 
HETATM   21  O   UNL     1     -42.374  56.098 -54.097  1.00  0.00    -0.325 OA
HETATM   22  C   UNL     1     -42.144  56.415 -55.397  1.00  0.00     0.142 A 
HETATM   23  C   UNL     1     -42.415  55.336 -56.206  1.00  0.00     0.027 A 
HETATM   24  C   UNL     1     -42.859  54.296 -55.350  1.00  0.00     0.036 A 
ENDBRANCH  19  20
ENDBRANCH   1  19
BRANCH   1  25
HETATM   25  C   UNL     1     -40.733  53.841 -52.577  1.00  0.00     0.277 C 
BRANCH  25  26
HETATM   26  C   UNL     1     -40.348  52.416 -52.862  1.00  0.00     0.001 A 
HETATM   27  C   UNL     1     -39.937  51.577 -51.817  1.00  0.00     0.073 A 
HETATM   28  C   UNL     1     -39.547  50.263 -52.052  1.00  0.00     0.037 A 
HETATM   29  C   UNL     1     -39.551  49.772 -53.357  1.00  0.00     0.003 A 
HETATM   30  C   UNL     1     -39.948  50.594 -54.412  1.00  0.00     0.001 A 
HETATM   31  C   UNL     1     -40.348  51.909 -54.169  1.00  0.00     0.011 A 
BRANCH  27  32
HETATM   32  O   UNL     1     -39.899  52.096 -50.552  1.00  0.00    -0.360 OA
HETATM   33  H   UNL     1     -40.807  52.070 -50.188  1.00  0.00     0.217 HD
ENDBRANCH  27  32
ENDBRANCH  25  26
ENDBRANCH   1  25
TORSDOF 8
ENDMDL
MODEL 4
REMARK VINA RESULT:      -7.5      1.662      2.265
REMARK  8 active torsions:
REMARK  status: ('A' for Active; 'I' for Inactive)
REMARK    1  A    between atoms: C_3  and  N_4 
REMARK       I    between atoms: N_4  and  C_5 
REMARK       I    between atoms: C_5  and  N_6 
REMARK       I    between atoms: N_6  and  C_7 
REMARK    2  A    between atoms: C_7  and  C_8 
REMARK    3  A    between atoms: C_8  and  N_9 
REMARK    4  A    between atoms: N_9  and  C_11 
REMARK    5  A    between atoms: N_9  and  C_17 
REMARK    6  A    between atoms: C_11  and  C_12 
REMARK    7  A    between atoms: C_17  and  C_18 
REMARK    8  A    between atoms: C_19  and  O_20 
ROOT
HETATM    1  N   UNL     1     -42.704  56.829 -52.803  1.00  0.00    -0.053 N 
HETATM    2  H   UNL     1     -42.131  57.108 -53.615  1.00  0.00     0.281 HD
ENDROOT
BRANCH   1   3
HETATM    3  C   UNL     1     -43.953  56.190 -53.389  1.00  0.00     0.338 C 
BRANCH   3   4
HETATM    4  C   UNL     1     -44.050  56.387 -54.900  1.00  0.00     0.251 C 
HETATM    5  N   UNL     1     -44.872  57.420 -55.295  1.00  0.00    -0.278 N 
HETATM    6  C   UNL     1     -44.898  57.990 -56.538  1.00  0.00     0.323 C 
HETATM    7  H   UNL     1     -45.100  58.131 -54.608  1.00  0.00     0.173 HD
HETATM    8  N   UNL     1     -44.644  57.162 -57.587  1.00  0.00    -0.338 N 
HETATM    9  O   UNL     1     -45.129  59.191 -56.630  1.00  0.00    -0.247 OA
HETATM   10  H   UNL     1     -44.308  56.228 -57.373  1.00  0.00     0.164 HD
HETATM   11  O   UNL     1     -43.412  55.651 -55.652  1.00  0.00    -0.271 OA
BRANCH   8  12
HETATM   12  C   UNL     1     -44.591  57.627 -58.970  1.00  0.00     0.089 C 
HETATM   13  C   UNL     1     -43.948  56.584 -59.914  1.00  0.00     0.004 C 
HETATM   14  C   UNL     1     -42.546  56.162 -59.465  1.00  0.00     0.012 C 
HETATM   15  C   UNL     1     -44.851  55.355 -60.107  1.00  0.00     0.006 C 
HETATM   16  C   UNL     1     -46.243  55.753 -60.592  1.00  0.00     0.001 C 
HETATM   17  C   UNL     1     -46.891  56.788 -59.680  1.00  0.00     0.002 C 
HETATM   18  C   UNL     1     -45.992  58.008 -59.484  1.00  0.00     0.026 C 
ENDBRANCH   8  12
ENDBRANCH   3   4
ENDBRANCH   1   3
BRANCH   1  19
HETATM   19  C   UNL     1     -42.935  58.131 -52.076  1.00  0.00     0.300 C 
BRANCH  19  20
HETATM   20  C   UNL     1     -42.870  59.340 -52.933  1.00  0.00     0.078 A 
HETATM   21  O   UNL     1     -42.341  59.164 -54.181  1.00  0.00    -0.325 OA
HETATM   22  C   UNL     1     -42.311  60.383 -54.777  1.00  0.00     0.142 A 
HETATM   23  C   UNL     1     -42.847  61.336 -53.944  1.00  0.00     0.027 A 
HETATM   24  C   UNL     1     -43.211  60.663 -52.750  1.00  0.00     0.036 A 
ENDBRANCH  19  20
ENDBRANCH   1  19
BRANCH   1  25
HETATM   25  C   UNL     1     -41.856  55.851 -52.034  1.00  0.00     0.277 C 
BRANCH  25  26
HETATM   26  C   UNL     1     -41.232  54.828 -52.944  1.00  0.00     0.001 A 
HETATM   27  C   UNL     1     -40.587  55.235 -54.119  1.00  0.00     0.073 A 
HETATM   28  C   UNL     1     -40.026  54.312 -54.996  1.00  0.00     0.037 A 
HETATM   29  C   UNL     1     -40.121  52.951 -54.707  1.00  0.00     0.003 A 
HETATM   30  C   UNL     1     -40.768  52.525 -53.547  1.00  0.00     0.001 A 
HETATM   31  C   UNL     1     -41.320  53.458 -52.666  1.00  0.00     0.011 A 
BRANCH  27  32
HETATM   32  O   UNL     1     -40.547  56.573 -54.403  1.00  0.00    -0.360 OA
HETATM   33  H   UNL     1     -41.186  56.748 -55.122  1.00  0.00     0.217 HD
ENDBRANCH  27  32
ENDBRANCH  25  26
ENDBRANCH   1  25
TORSDOF 8
ENDMDL
MODEL 5
REMARK VINA RESULT:      -7.5     15.572     17.885
REMARK  8 active torsions:
REMARK  status: ('A' for Active; 'I' for Inactive)
REMARK    1  A    between atoms: C_3  and  N_4 
REMARK       I    between atoms: N_4  and  C_5 
REMARK       I    between atoms: C_5  and  N_6 
REMARK       I    between atoms: N_6  and  C_7 
REMARK    2  A    between atoms: C_7  and  C_8 
REMARK    3  A    between atoms: C_8  and  N_9 
REMARK    4  A    between atoms: N_9  and  C_11 
REMARK    5  A    between atoms: N_9  and  C_17 
REMARK    6  A    between atoms: C_11  and  C_12 
REMARK    7  A    between atoms: C_17  and  C_18 
REMARK    8  A    between atoms: C_19  and  O_20 
ROOT
HETATM    1  N   UNL     1     -32.962  39.899 -52.556  1.00  0.00    -0.053 N 
HETATM    2  H   UNL     1     -33.637  39.124 -52.653  1.00  0.00     0.281 HD
ENDROOT
BRANCH   1   3
HETATM    3  C   UNL     1     -32.618  40.316 -53.977  1.00  0.00     0.338 C 
BRANCH   3   4
HETATM    4  C   UNL     1     -33.816  40.209 -54.918  1.00  0.00     0.251 C 
HETATM    5  N   UNL     1     -34.440  38.981 -54.919  1.00  0.00    -0.278 N 
HETATM    6  C   UNL     1     -35.683  38.716 -55.426  1.00  0.00     0.323 C 
HETATM    7  H   UNL     1     -34.276  38.366 -54.129  1.00  0.00     0.173 HD
HETATM    8  N   UNL     1     -36.055  39.435 -56.519  1.00  0.00    -0.338 N 
HETATM    9  O   UNL     1     -36.380  37.875 -54.867  1.00  0.00    -0.247 OA
HETATM   10  H   UNL     1     -35.460  40.212 -56.790  1.00  0.00     0.164 HD
HETATM   11  O   UNL     1     -34.151  41.184 -55.591  1.00  0.00    -0.271 OA
BRANCH   8  12
HETATM   12  C   UNL     1     -37.366  39.302 -57.148  1.00  0.00     0.089 C 
HETATM   13  C   UNL     1     -38.066  40.668 -57.337  1.00  0.00     0.004 C 
HETATM   14  C   UNL     1     -38.207  41.449 -56.028  1.00  0.00     0.012 C 
HETATM   15  C   UNL     1     -37.370  41.522 -58.409  1.00  0.00     0.006 C 
HETATM   16  C   UNL     1     -37.255  40.774 -59.735  1.00  0.00     0.001 C 
HETATM   17  C   UNL     1     -36.575  39.420 -59.568  1.00  0.00     0.002 C 
HETATM   18  C   UNL     1     -37.264  38.572 -58.500  1.00  0.00     0.026 C 
ENDBRANCH   8  12
ENDBRANCH   3   4
ENDBRANCH   1   3
BRANCH   1  19
HETATM   19  C   UNL     1     -31.826  39.276 -51.782  1.00  0.00     0.300 C 
BRANCH  19  20
HETATM   20  C   UNL     1     -32.061  39.161 -50.321  1.00  0.00     0.078 A 
HETATM   21  O   UNL     1     -31.211  39.868 -49.518  1.00  0.00    -0.325 OA
HETATM   22  C   UNL     1     -31.546  39.584 -48.234  1.00  0.00     0.142 A 
HETATM   23  C   UNL     1     -32.623  38.731 -48.199  1.00  0.00     0.027 A 
HETATM   24  C   UNL     1     -32.960  38.456 -49.549  1.00  0.00     0.036 A 
ENDBRANCH  19  20
ENDBRANCH   1  19
BRANCH   1  25
HETATM   25  C   UNL     1     -33.692  40.973 -51.795  1.00  0.00     0.277 C 
BRANCH  25  26
HETATM   26  C   UNL     1     -35.183  40.819 -51.921  1.00  0.00     0.001 A 
HETATM   27  C   UNL     1     -35.938  41.804 -52.573  1.00  0.00     0.073 A 
HETATM   28  C   UNL     1     -37.321  41.705 -52.681  1.00  0.00     0.037 A 
HETATM   29  C   UNL     1     -37.974  40.611 -52.116  1.00  0.00     0.003 A 
HETATM   30  C   UNL     1     -37.242  39.625 -51.453  1.00  0.00     0.001 A 
HETATM   31  C   UNL     1     -35.852  39.724 -51.358  1.00  0.00     0.011 A 
BRANCH  27  32
HETATM   32  O   UNL     1     -35.279  42.890 -53.080  1.00  0.00    -0.360 OA
HETATM   33  H   UNL     1     -34.633  42.569 -53.741  1.00  0.00     0.217 HD
ENDBRANCH  27  32
ENDBRANCH  25  26
ENDBRANCH   1  25
TORSDOF 8
ENDMDL
MODEL 6
REMARK VINA RESULT:      -7.4      2.956      5.467
REMARK  8 active torsions:
REMARK  status: ('A' for Active; 'I' for Inactive)
REMARK    1  A    between atoms: C_3  and  N_4 
REMARK       I    between atoms: N_4  and  C_5 
REMARK       I    between atoms: C_5  and  N_6 
REMARK       I    between atoms: N_6  and  C_7 
REMARK    2  A    between atoms: C_7  and  C_8 
REMARK    3  A    between atoms: C_8  and  N_9 
REMARK    4  A    between atoms: N_9  and  C_11 
REMARK    5  A    between atoms: N_9  and  C_17 
REMARK    6  A    between atoms: C_11  and  C_12 
REMARK    7  A    between atoms: C_17  and  C_18 
REMARK    8  A    between atoms: C_19  and  O_20 
ROOT
HETATM    1  N   UNL     1     -42.703  54.618 -52.423  1.00  0.00    -0.053 N 
HETATM    2  H   UNL     1     -42.867  53.641 -52.133  1.00  0.00     0.281 HD
ENDROOT
BRANCH   1   3
HETATM    3  C   UNL     1     -42.838  55.444 -51.154  1.00  0.00     0.338 C 
BRANCH   3   4
HETATM    4  C   UNL     1     -43.292  56.874 -51.439  1.00  0.00     0.251 C 
HETATM    5  N   UNL     1     -44.637  57.100 -51.251  1.00  0.00    -0.278 N 
HETATM    6  C   UNL     1     -45.234  58.327 -51.145  1.00  0.00     0.323 C 
HETATM    7  H   UNL     1     -45.152  56.440 -50.679  1.00  0.00     0.173 HD
HETATM    8  N   UNL     1     -44.685  59.330 -51.880  1.00  0.00    -0.338 N 
HETATM    9  O   UNL     1     -46.199  58.449 -50.397  1.00  0.00    -0.247 OA
HETATM   10  H   UNL     1     -43.795  59.145 -52.331  1.00  0.00     0.164 HD
HETATM   11  O   UNL     1     -42.467  57.714 -51.800  1.00  0.00    -0.271 OA
BRANCH   8  12
HETATM   12  C   UNL     1     -45.179  60.705 -51.839  1.00  0.00     0.089 C 
HETATM   13  C   UNL     1     -44.032  61.735 -51.715  1.00  0.00     0.004 C 
HETATM   14  C   UNL     1     -43.136  61.480 -50.500  1.00  0.00     0.012 C 
HETATM   15  C   UNL     1     -43.196  61.816 -53.002  1.00  0.00     0.006 C 
HETATM   16  C   UNL     1     -44.068  62.108 -54.221  1.00  0.00     0.001 C 
HETATM   17  C   UNL     1     -45.211  61.109 -54.356  1.00  0.00     0.002 C 
HETATM   18  C   UNL     1     -46.040  61.024 -53.075  1.00  0.00     0.026 C 
ENDBRANCH   8  12
ENDBRANCH   3   4
ENDBRANCH   1   3
BRANCH   1  19
HETATM   19  C   UNL     1     -43.774  54.858 -53.458  1.00  0.00     0.300 C 
BRANCH  19  20
HETATM   20  C   UNL     1     -43.270  55.304 -54.781  1.00  0.00     0.078 A 
HETATM   21  O   UNL     1     -43.045  56.645 -54.917  1.00  0.00    -0.325 OA
HETATM   22  C   UNL     1     -42.654  56.857 -56.199  1.00  0.00     0.142 A 
HETATM   23  C   UNL     1     -42.590  55.665 -56.881  1.00  0.00     0.027 A 
HETATM   24  C   UNL     1     -42.987  54.658 -55.965  1.00  0.00     0.036 A 
ENDBRANCH  19  20
ENDBRANCH   1  19
BRANCH   1  25
HETATM   25  C   UNL     1     -41.306  54.638 -52.985  1.00  0.00     0.277 C 
BRANCH  25  26
HETATM   26  C   UNL     1     -40.715  53.256 -53.040  1.00  0.00     0.001 A 
HETATM   27  C   UNL     1     -40.087  52.717 -51.910  1.00  0.00     0.073 A 
HETATM   28  C   UNL     1     -39.505  51.453 -51.937  1.00  0.00     0.037 A 
HETATM   29  C   UNL     1     -39.535  50.713 -53.118  1.00  0.00     0.003 A 
HETATM   30  C   UNL     1     -40.147  51.236 -54.257  1.00  0.00     0.001 A 
HETATM   31  C   UNL     1     -40.738  52.501 -54.220  1.00  0.00     0.011 A 
BRANCH  27  32
HETATM   32  O   UNL     1     -40.031  53.480 -50.776  1.00  0.00    -0.360 OA
HETATM   33  H   UNL     1     -40.591  54.270 -50.917  1.00  0.00     0.217 HD
ENDBRANCH  27  32
ENDBRANCH  25  26
ENDBRANCH   1  25
TORSDOF 8
ENDMDL
MODEL 7
REMARK VINA RESULT:      -7.3      4.016      8.155
REMARK  8 active torsions:
REMARK  status: ('A' for Active; 'I' for Inactive)
REMARK    1  A    between atoms: C_3  and  N_4 
REMARK       I    between atoms: N_4  and  C_5 
REMARK       I    between atoms: C_5  and  N_6 
REMARK       I    between atoms: N_6  and  C_7 
REMARK    2  A    between atoms: C_7  and  C_8 
REMARK    3  A    between atoms: C_8  and  N_9 
REMARK    4  A    between atoms: N_9  and  C_11 
REMARK    5  A    between atoms: N_9  and  C_17 
REMARK    6  A    between atoms: C_11  and  C_12 
REMARK    7  A    between atoms: C_17  and  C_18 
REMARK    8  A    between atoms: C_19  and  O_20 
ROOT
HETATM    1  N   UNL     1     -44.558  60.647 -51.720  1.00  0.00    -0.053 N 
HETATM    2  H   UNL     1     -44.378  59.956 -50.975  1.00  0.00     0.281 HD
ENDROOT
BRANCH   1   3
HETATM    3  C   UNL     1     -45.151  59.854 -52.873  1.00  0.00     0.338 C 
BRANCH   3   4
HETATM    4  C   UNL     1     -44.605  58.429 -52.938  1.00  0.00     0.251 C 
HETATM    5  N   UNL     1     -44.427  57.824 -51.714  1.00  0.00    -0.278 N 
HETATM    6  C   UNL     1     -44.244  56.485 -51.503  1.00  0.00     0.323 C 
HETATM    7  H   UNL     1     -44.922  58.212 -50.918  1.00  0.00     0.173 HD
HETATM    8  N   UNL     1     -43.562  55.810 -52.467  1.00  0.00    -0.338 N 
HETATM    9  O   UNL     1     -44.710  55.980 -50.487  1.00  0.00    -0.247 OA
HETATM   10  H   UNL     1     -43.369  56.303 -53.333  1.00  0.00     0.164 HD
HETATM   11  O   UNL     1     -44.370  57.917 -54.032  1.00  0.00    -0.271 OA
BRANCH   8  12
HETATM   12  C   UNL     1     -43.325  54.370 -52.410  1.00  0.00     0.089 C 
HETATM   13  C   UNL     1     -42.557  53.854 -53.650  1.00  0.00     0.004 C 
HETATM   14  C   UNL     1     -43.255  54.204 -54.967  1.00  0.00     0.012 C 
HETATM   15  C   UNL     1     -41.098  54.339 -53.660  1.00  0.00     0.006 C 
HETATM   16  C   UNL     1     -40.374  53.965 -52.369  1.00  0.00     0.001 C 
HETATM   17  C   UNL     1     -41.120  54.457 -51.134  1.00  0.00     0.002 C 
HETATM   18  C   UNL     1     -42.571  53.980 -51.125  1.00  0.00     0.026 C 
ENDBRANCH   8  12
ENDBRANCH   3   4
ENDBRANCH   1   3
BRANCH   1  19
HETATM   19  C   UNL     1     -43.193  61.235 -51.986  1.00  0.00     0.300 C 
BRANCH  19  20
HETATM   20  C   UNL     1     -42.060  60.434 -51.460  1.00  0.00     0.078 A 
HETATM   21  O   UNL     1     -41.258  59.843 -52.395  1.00  0.00    -0.325 OA
HETATM   22  C   UNL     1     -40.331  59.113 -51.722  1.00  0.00     0.142 A 
HETATM   23  C   UNL     1     -40.505  59.256 -50.366  1.00  0.00     0.027 A 
HETATM   24  C   UNL     1     -41.622  60.112 -50.193  1.00  0.00     0.036 A 
ENDBRANCH  19  20
ENDBRANCH   1  19
BRANCH   1  25
HETATM   25  C   UNL     1     -45.532  61.630 -51.127  1.00  0.00     0.277 C 
BRANCH  25  26
HETATM   26  C   UNL     1     -45.327  61.780 -49.644  1.00  0.00     0.001 A 
HETATM   27  C   UNL     1     -45.469  60.671 -48.800  1.00  0.00     0.073 A 
HETATM   28  C   UNL     1     -45.315  60.784 -47.422  1.00  0.00     0.037 A 
HETATM   29  C   UNL     1     -45.027  62.030 -46.867  1.00  0.00     0.003 A 
HETATM   30  C   UNL     1     -44.891  63.148 -47.689  1.00  0.00     0.001 A 
HETATM   31  C   UNL     1     -45.037  63.026 -49.073  1.00  0.00     0.011 A 
BRANCH  27  32
HETATM   32  O   UNL     1     -45.796  59.469 -49.364  1.00  0.00    -0.360 OA
HETATM   33  H   UNL     1     -46.768  59.442 -49.475  1.00  0.00     0.217 HD
ENDBRANCH  27  32
ENDBRANCH  25  26
ENDBRANCH   1  25
TORSDOF 8
ENDMDL
MODEL 8
REMARK VINA RESULT:      -7.3      2.310      7.086
REMARK  8 active torsions:
REMARK  status: ('A' for Active; 'I' for Inactive)
REMARK    1  A    between atoms: C_3  and  N_4 
REMARK       I    between atoms: N_4  and  C_5 
REMARK       I    between atoms: C_5  and  N_6 
REMARK       I    between atoms: N_6  and  C_7 
REMARK    2  A    between atoms: C_7  and  C_8 
REMARK    3  A    between atoms: C_8  and  N_9 
REMARK    4  A    between atoms: N_9  and  C_11 
REMARK    5  A    between atoms: N_9  and  C_17 
REMARK    6  A    between atoms: C_11  and  C_12 
REMARK    7  A    between atoms: C_17  and  C_18 
REMARK    8  A    between atoms: C_19  and  O_20 
ROOT
HETATM    1  N   UNL     1     -43.461  59.404 -55.996  1.00  0.00    -0.053 N 
HETATM    2  H   UNL     1     -44.036  58.562 -55.835  1.00  0.00     0.281 HD
ENDROOT
BRANCH   1   3
HETATM    3  C   UNL     1     -42.067  59.039 -55.512  1.00  0.00     0.338 C 
BRANCH   3   4
HETATM    4  C   UNL     1     -42.063  57.778 -54.651  1.00  0.00     0.251 C 
HETATM    5  N   UNL     1     -43.234  57.052 -54.687  1.00  0.00    -0.278 N 
HETATM    6  C   UNL     1     -43.387  55.761 -54.262  1.00  0.00     0.323 C 
HETATM    7  H   UNL     1     -43.866  57.214 -55.464  1.00  0.00     0.173 HD
HETATM    8  N   UNL     1     -42.630  55.383 -53.198  1.00  0.00    -0.338 N 
HETATM    9  O   UNL     1     -44.170  55.033 -54.863  1.00  0.00    -0.247 OA
HETATM   10  H   UNL     1     -41.905  56.023 -52.890  1.00  0.00     0.164 HD
HETATM   11  O   UNL     1     -41.058  57.486 -54.004  1.00  0.00    -0.271 OA
BRANCH   8  12
HETATM   12  C   UNL     1     -42.646  54.027 -52.655  1.00  0.00     0.089 C 
HETATM   13  C   UNL     1     -41.227  53.419 -52.558  1.00  0.00     0.004 C 
HETATM   14  C   UNL     1     -40.488  53.422 -53.899  1.00  0.00     0.012 C 
HETATM   15  C   UNL     1     -40.386  54.105 -51.470  1.00  0.00     0.006 C 
HETATM   16  C   UNL     1     -41.090  54.078 -50.115  1.00  0.00     0.001 C 
HETATM   17  C   UNL     1     -42.494  54.665 -50.191  1.00  0.00     0.002 C 
HETATM   18  C   UNL     1     -43.330  53.987 -51.276  1.00  0.00     0.026 C 
ENDBRANCH   8  12
ENDBRANCH   3   4
ENDBRANCH   1   3
BRANCH   1  19
HETATM   19  C   UNL     1     -44.162  60.465 -55.183  1.00  0.00     0.300 C 
BRANCH  19  20
HETATM   20  C   UNL     1     -44.288  60.156 -53.737  1.00  0.00     0.078 A 
HETATM   21  O   UNL     1     -45.105  59.108 -53.416  1.00  0.00    -0.325 OA
HETATM   22  C   UNL     1     -45.137  59.028 -52.061  1.00  0.00     0.142 A 
HETATM   23  C   UNL     1     -44.324  59.988 -51.507  1.00  0.00     0.027 A 
HETATM   24  C   UNL     1     -43.772  60.718 -52.590  1.00  0.00     0.036 A 
ENDBRANCH  19  20
ENDBRANCH   1  19
BRANCH   1  25
HETATM   25  C   UNL     1     -43.516  59.647 -57.481  1.00  0.00     0.277 C 
BRANCH  25  26
HETATM   26  C   UNL     1     -43.233  58.390 -58.256  1.00  0.00     0.001 A 
HETATM   27  C   UNL     1     -43.978  57.229 -58.008  1.00  0.00     0.073 A 
HETATM   28  C   UNL     1     -43.721  56.043 -58.687  1.00  0.00     0.037 A 
HETATM   29  C   UNL     1     -42.691  56.002 -59.625  1.00  0.00     0.003 A 
HETATM   30  C   UNL     1     -41.931  57.144 -59.879  1.00  0.00     0.001 A 
HETATM   31  C   UNL     1     -42.200  58.335 -59.202  1.00  0.00     0.011 A 
BRANCH  27  32
HETATM   32  O   UNL     1     -44.954  57.282 -57.051  1.00  0.00    -0.360 OA
HETATM   33  H   UNL     1     -44.539  57.093 -56.186  1.00  0.00     0.217 HD
ENDBRANCH  27  32
ENDBRANCH  25  26
ENDBRANCH   1  25
TORSDOF 8
ENDMDL
MODEL 9
REMARK VINA RESULT:      -7.2      1.686      5.105
REMARK  8 active torsions:
REMARK  status: ('A' for Active; 'I' for Inactive)
REMARK    1  A    between atoms: C_3  and  N_4 
REMARK       I    between atoms: N_4  and  C_5 
REMARK       I    between atoms: C_5  and  N_6 
REMARK       I    between atoms: N_6  and  C_7 
REMARK    2  A    between atoms: C_7  and  C_8 
REMARK    3  A    between atoms: C_8  and  N_9 
REMARK    4  A    between atoms: N_9  and  C_11 
REMARK    5  A    between atoms: N_9  and  C_17 
REMARK    6  A    between atoms: C_11  and  C_12 
REMARK    7  A    between atoms: C_17  and  C_18 
REMARK    8  A    between atoms: C_19  and  O_20 
ROOT
HETATM    1  N   UNL     1     -42.146  55.223 -53.990  1.00  0.00    -0.053 N 
HETATM    2  H   UNL     1     -42.277  55.084 -52.976  1.00  0.00     0.281 HD
ENDROOT
BRANCH   1   3
HETATM    3  C   UNL     1     -43.510  55.634 -54.520  1.00  0.00     0.338 C 
BRANCH   3   4
HETATM    4  C   UNL     1     -43.418  56.335 -55.874  1.00  0.00     0.251 C 
HETATM    5  N   UNL     1     -43.229  55.493 -56.947  1.00  0.00    -0.278 N 
HETATM    6  C   UNL     1     -43.411  55.822 -58.263  1.00  0.00     0.323 C 
HETATM    7  H   UNL     1     -43.456  54.513 -56.824  1.00  0.00     0.173 HD
HETATM    8  N   UNL     1     -43.117  57.103 -58.610  1.00  0.00    -0.338 N 
HETATM    9  O   UNL     1     -43.833  54.964 -59.030  1.00  0.00    -0.247 OA
HETATM   10  H   UNL     1     -42.932  57.760 -57.859  1.00  0.00     0.164 HD
HETATM   11  O   UNL     1     -43.521  57.560 -55.933  1.00  0.00    -0.271 OA
BRANCH   8  12
HETATM   12  C   UNL     1     -43.302  57.620 -59.964  1.00  0.00     0.089 C 
HETATM   13  C   UNL     1     -44.556  58.518 -60.081  1.00  0.00     0.004 C 
HETATM   14  C   UNL     1     -45.836  57.812 -59.627  1.00  0.00     0.012 C 
HETATM   15  C   UNL     1     -44.375  59.851 -59.337  1.00  0.00     0.006 C 
HETATM   16  C   UNL     1     -43.123  60.589 -59.805  1.00  0.00     0.001 C 
HETATM   17  C   UNL     1     -41.876  59.717 -59.706  1.00  0.00     0.002 C 
HETATM   18  C   UNL     1     -42.057  58.390 -60.442  1.00  0.00     0.026 C 
ENDBRANCH   8  12
ENDBRANCH   3   4
ENDBRANCH   1   3
BRANCH   1  19
HETATM   19  C   UNL     1     -41.656  53.877 -54.466  1.00  0.00     0.300 C 
BRANCH  19  20
HETATM   20  C   UNL     1     -40.840  53.130 -53.477  1.00  0.00     0.078 A 
HETATM   21  O   UNL     1     -40.074  52.114 -53.976  1.00  0.00    -0.325 OA
HETATM   22  C   UNL     1     -39.461  51.520 -52.920  1.00  0.00     0.142 A 
HETATM   23  C   UNL     1     -39.794  52.164 -51.752  1.00  0.00     0.027 A 
HETATM   24  C   UNL     1     -40.685  53.207 -52.110  1.00  0.00     0.036 A 
ENDBRANCH  19  20
ENDBRANCH   1  19
BRANCH   1  25
HETATM   25  C   UNL     1     -41.119  56.317 -54.113  1.00  0.00     0.277 C 
BRANCH  25  26
HETATM   26  C   UNL     1     -41.192  57.274 -52.955  1.00  0.00     0.001 A 
HETATM   27  C   UNL     1     -41.261  58.654 -53.188  1.00  0.00     0.073 A 
HETATM   28  C   UNL     1     -41.301  59.566 -52.138  1.00  0.00     0.037 A 
HETATM   29  C   UNL     1     -41.257  59.098 -50.826  1.00  0.00     0.003 A 
HETATM   30  C   UNL     1     -41.178  57.729 -50.572  1.00  0.00     0.001 A 
HETATM   31  C   UNL     1     -41.149  56.818 -51.631  1.00  0.00     0.011 A 
BRANCH  27  32
HETATM   32  O   UNL     1     -41.258  59.090 -54.485  1.00  0.00    -0.360 OA
HETATM   33  H   UNL     1     -42.187  59.225 -54.760  1.00  0.00     0.217 HD
ENDBRANCH  27  32
ENDBRANCH  25  26
ENDBRANCH   1  25
TORSDOF 8
ENDMDL
MODEL 10
REMARK VINA RESULT:      -7.2      2.580      6.628
REMARK  8 active torsions:
REMARK  status: ('A' for Active; 'I' for Inactive)
REMARK    1  A    between atoms: C_3  and  N_4 
REMARK       I    between atoms: N_4  and  C_5 
REMARK       I    between atoms: C_5  and  N_6 
REMARK       I    between atoms: N_6  and  C_7 
REMARK    2  A    between atoms: C_7  and  C_8 
REMARK    3  A    between atoms: C_8  and  N_9 
REMARK    4  A    between atoms: N_9  and  C_11 
REMARK    5  A    between atoms: N_9  and  C_17 
REMARK    6  A    between atoms: C_11  and  C_12 
REMARK    7  A    between atoms: C_17  and  C_18 
REMARK    8  A    between atoms: C_19  and  O_20 
ROOT
HETATM    1  N   UNL     1     -43.280  56.701 -56.470  1.00  0.00    -0.053 N 
HETATM    2  H   UNL     1     -43.977  56.670 -55.709  1.00  0.00     0.281 HD
ENDROOT
BRANCH   1   3
HETATM    3  C   UNL     1     -42.150  57.575 -55.949  1.00  0.00     0.338 C 
BRANCH   3   4
HETATM    4  C   UNL     1     -42.529  58.305 -54.663  1.00  0.00     0.251 C 
HETATM    5  N   UNL     1     -43.699  57.874 -54.078  1.00  0.00    -0.278 N 
HETATM    6  C   UNL     1     -44.098  58.142 -52.797  1.00  0.00     0.323 C 
HETATM    7  H   UNL     1     -44.050  56.960 -54.342  1.00  0.00     0.173 HD
HETATM    8  N   UNL     1     -43.736  59.352 -52.293  1.00  0.00    -0.338 N 
HETATM    9  O   UNL     1     -44.732  57.286 -52.188  1.00  0.00    -0.247 OA
HETATM   10  H   UNL     1     -43.078  59.904 -52.833  1.00  0.00     0.164 HD
HETATM   11  O   UNL     1     -41.798  59.197 -54.232  1.00  0.00    -0.271 OA
BRANCH   8  12
HETATM   12  C   UNL     1     -44.047  59.767 -50.927  1.00  0.00     0.089 C 
HETATM   13  C   UNL     1     -42.929  60.642 -50.313  1.00  0.00     0.004 C 
HETATM   14  C   UNL     1     -41.560  59.958 -50.338  1.00  0.00     0.012 C 
HETATM   15  C   UNL     1     -42.859  62.026 -50.977  1.00  0.00     0.006 C 
HETATM   16  C   UNL     1     -44.207  62.741 -50.927  1.00  0.00     0.001 C 
HETATM   17  C   UNL     1     -45.326  61.891 -51.520  1.00  0.00     0.002 C 
HETATM   18  C   UNL     1     -45.393  60.512 -50.864  1.00  0.00     0.026 C 
ENDBRANCH   8  12
ENDBRANCH   3   4
ENDBRANCH   1   3
BRANCH   1  19
HETATM   19  C   UNL     1     -44.055  57.283 -57.628  1.00  0.00     0.300 C 
BRANCH  19  20
HETATM   20  C   UNL     1     -43.217  57.855 -58.710  1.00  0.00     0.078 A 
HETATM   21  O   UNL     1     -43.209  59.218 -58.808  1.00  0.00    -0.325 OA
HETATM   22  C   UNL     1     -42.445  59.537 -59.884  1.00  0.00     0.142 A 
HETATM   23  C   UNL     1     -41.933  58.399 -60.460  1.00  0.00     0.027 A 
HETATM   24  C   UNL     1     -42.429  57.308 -59.701  1.00  0.00     0.036 A 
ENDBRANCH  19  20
ENDBRANCH   1  19
BRANCH   1  25
HETATM   25  C   UNL     1     -42.860  55.271 -56.685  1.00  0.00     0.277 C 
BRANCH  25  26
HETATM   26  C   UNL     1     -42.274  54.676 -55.433  1.00  0.00     0.001 A 
HETATM   27  C   UNL     1     -43.061  54.548 -54.282  1.00  0.00     0.073 A 
HETATM   28  C   UNL     1     -42.541  54.029 -53.101  1.00  0.00     0.037 A 
HETATM   29  C   UNL     1     -41.203  53.641 -53.057  1.00  0.00     0.003 A 
HETATM   30  C   UNL     1     -40.399  53.770 -54.190  1.00  0.00     0.001 A 
HETATM   31  C   UNL     1     -40.930  54.282 -55.375  1.00  0.00     0.011 A 
BRANCH  27  32
HETATM   32  O   UNL     1     -44.359  54.978 -54.337  1.00  0.00    -0.360 OA
HETATM   33  H   UNL     1     -44.398  55.742 -54.947  1.00  0.00     0.217 HD
ENDBRANCH  27  32
ENDBRANCH  25  26
ENDBRANCH   1  25
TORSDOF 8
ENDMDL
