MODEL 1
REMARK VINA RESULT:      -8.8      0.000      0.000
REMARK  5 active torsions:
REMARK  status: ('A' for Active; 'I' for Inactive)
REMARK    1  A    between atoms: C_7  and  C_8 
REMARK    2  A    between atoms: N_9  and  N_10 
REMARK       I    between atoms: N_10  and  C_11 
REMARK    3  A    between atoms: C_11  and  C_12 
REMARK    4  A    between atoms: C_12  and  N_13 
REMARK       I    between atoms: N_13  and  C_14 
REMARK    5  A    between atoms: C_14  and  C_15 
ROOT
HETATM    1  N   UNL     1     -43.143  55.934 -54.208  1.00  0.00    -0.246 N 
HETATM    2  C   UNL     1     -43.940  56.923 -53.650  1.00  0.00     0.255 C 
HETATM    3  O   UNL     1     -44.247  57.019 -52.463  1.00  0.00    -0.270 OA
HETATM    4  H   UNL     1     -42.883  56.006 -55.197  1.00  0.00     0.192 HD
ENDROOT
BRANCH   1   5
HETATM    5  N   UNL     1     -42.675  54.908 -53.443  1.00  0.00    -0.184 NA
HETATM    6  C   UNL     1     -41.389  54.868 -53.297  1.00  0.00     0.153 C 
BRANCH   6   7
HETATM    7  C   UNL     1     -40.772  53.803 -52.526  1.00  0.00     0.018 A 
HETATM    8  C   UNL     1     -40.406  53.843 -51.186  1.00  0.00     0.018 A 
HETATM    9  C   UNL     1     -40.517  54.927 -50.172  1.00  0.00     0.069 C 
HETATM   10  N   UNL     1     -39.869  52.622 -50.862  1.00  0.00    -0.358 N 
HETATM   11  H   UNL     1     -39.520  52.366 -49.948  1.00  0.00     0.166 HD
HETATM   12  C   UNL     1     -39.878  51.784 -51.950  1.00  0.00     0.043 A 
HETATM   13  C   UNL     1     -40.436  52.495 -53.012  1.00  0.00     0.004 A 
HETATM   14  C   UNL     1     -39.437  50.459 -52.067  1.00  0.00     0.030 A 
HETATM   15  C   UNL     1     -40.559  51.843 -54.259  1.00  0.00     0.014 A 
HETATM   16  C   UNL     1     -40.124  50.519 -54.394  1.00  0.00     0.001 A 
HETATM   17  C   UNL     1     -39.572  49.839 -53.312  1.00  0.00     0.002 A 
ENDBRANCH   6   7
ENDBRANCH   1   5
BRANCH   2  18
HETATM   18  C   UNL     1     -44.469  57.906 -54.694  1.00  0.00     0.227 C 
BRANCH  18  19
HETATM   19  N   UNL     1     -44.702  57.298 -55.994  1.00  0.00    -0.348 N 
HETATM   20  C   UNL     1     -44.091  57.771 -57.133  1.00  0.00     0.252 C 
HETATM   21  O   UNL     1     -43.402  58.787 -57.139  1.00  0.00    -0.268 OA
HETATM   22  H   UNL     1     -45.465  56.637 -56.070  1.00  0.00     0.163 HD
BRANCH  20  23
HETATM   23  C   UNL     1     -44.358  57.018 -58.386  1.00  0.00     0.032 A 
HETATM   24  C   UNL     1     -43.452  56.025 -58.781  1.00  0.00     0.020 A 
HETATM   25  C   UNL     1     -43.685  55.289 -59.944  1.00  0.00     0.043 A 
HETATM   26  C   UNL     1     -44.827  55.541 -60.697  1.00  0.00     0.116 A 
HETATM   27  F   UNL     1     -45.054  54.830 -61.809  1.00  0.00    -0.206 F 
HETATM   28  C   UNL     1     -45.743  56.514 -60.309  1.00  0.00     0.043 A 
HETATM   29  C   UNL     1     -45.512  57.256 -59.148  1.00  0.00     0.020 A 
ENDBRANCH  20  23
ENDBRANCH  18  19
ENDBRANCH   2  18
TORSDOF 5
ENDMDL
MODEL 2
REMARK VINA RESULT:      -8.6      1.389      1.574
REMARK  5 active torsions:
REMARK  status: ('A' for Active; 'I' for Inactive)
REMARK    1  A    between atoms: C_7  and  C_8 
REMARK    2  A    between atoms: N_9  and  N_10 
REMARK       I    between atoms: N_10  and  C_11 
REMARK    3  A    between atoms: C_11  and  C_12 
REMARK    4  A    between atoms: C_12  and  N_13 
REMARK       I    between atoms: N_13  and  C_14 
REMARK    5  A    between atoms: C_14  and  C_15 
ROOT
HETATM    1  N   UNL     1     -42.607  56.219 -53.738  1.00  0.00    -0.246 N 
HETATM    2  C   UNL     1     -42.969  56.018 -55.062  1.00  0.00     0.255 C 
HETATM    3  O   UNL     1     -43.055  54.931 -55.630  1.00  0.00    -0.270 OA
HETATM    4  H   UNL     1     -42.655  57.166 -53.349  1.00  0.00     0.192 HD
ENDROOT
BRANCH   1   5
HETATM    5  N   UNL     1     -42.240  55.167 -52.953  1.00  0.00    -0.184 NA
HETATM    6  C   UNL     1     -41.010  54.784 -53.079  1.00  0.00     0.153 C 
BRANCH   6   7
HETATM    7  C   UNL     1     -40.511  53.654 -52.315  1.00  0.00     0.018 A 
HETATM    8  C   UNL     1     -40.205  53.629 -50.959  1.00  0.00     0.018 A 
HETATM    9  C   UNL     1     -40.280  54.691 -49.919  1.00  0.00     0.069 C 
HETATM   10  N   UNL     1     -39.779  52.362 -50.650  1.00  0.00    -0.358 N 
HETATM   11  H   UNL     1     -39.493  52.056 -49.730  1.00  0.00     0.166 HD
HETATM   12  C   UNL     1     -39.802  51.557 -51.763  1.00  0.00     0.043 A 
HETATM   13  C   UNL     1     -40.255  52.337 -52.825  1.00  0.00     0.004 A 
HETATM   14  C   UNL     1     -39.459  50.206 -51.900  1.00  0.00     0.030 A 
HETATM   15  C   UNL     1     -40.370  51.730 -54.095  1.00  0.00     0.014 A 
HETATM   16  C   UNL     1     -40.032  50.381 -54.252  1.00  0.00     0.001 A 
HETATM   17  C   UNL     1     -39.583  49.632 -53.168  1.00  0.00     0.002 A 
ENDBRANCH   6   7
ENDBRANCH   1   5
BRANCH   2  18
HETATM   18  C   UNL     1     -43.219  57.330 -55.806  1.00  0.00     0.227 C 
BRANCH  18  19
HETATM   19  N   UNL     1     -44.213  57.216 -56.861  1.00  0.00    -0.348 N 
HETATM   20  C   UNL     1     -43.851  57.039 -58.177  1.00  0.00     0.252 C 
HETATM   21  O   UNL     1     -42.682  57.069 -58.551  1.00  0.00    -0.268 OA
HETATM   22  H   UNL     1     -45.169  57.455 -56.630  1.00  0.00     0.163 HD
BRANCH  20  23
HETATM   23  C   UNL     1     -44.963  56.867 -59.148  1.00  0.00     0.032 A 
HETATM   24  C   UNL     1     -44.903  55.803 -60.059  1.00  0.00     0.020 A 
HETATM   25  C   UNL     1     -45.941  55.606 -60.971  1.00  0.00     0.043 A 
HETATM   26  C   UNL     1     -47.036  56.465 -60.960  1.00  0.00     0.116 A 
HETATM   27  F   UNL     1     -48.034  56.271 -61.832  1.00  0.00    -0.206 F 
HETATM   28  C   UNL     1     -47.115  57.516 -60.052  1.00  0.00     0.043 A 
HETATM   29  C   UNL     1     -46.077  57.719 -59.140  1.00  0.00     0.020 A 
ENDBRANCH  20  23
ENDBRANCH  18  19
ENDBRANCH   2  18
TORSDOF 5
ENDMDL
MODEL 3
REMARK VINA RESULT:      -8.5      6.191      8.433
REMARK  5 active torsions:
REMARK  status: ('A' for Active; 'I' for Inactive)
REMARK    1  A    between atoms: C_7  and  C_8 
REMARK    2  A    between atoms: N_9  and  N_10 
REMARK       I    between atoms: N_10  and  C_11 
REMARK    3  A    between atoms: C_11  and  C_12 
REMARK    4  A    between atoms: C_12  and  N_13 
REMARK       I    between atoms: N_13  and  C_14 
REMARK    5  A    between atoms: C_14  and  C_15 
ROOT
HETATM    1  N   UNL     1     -42.920  57.588 -51.112  1.00  0.00    -0.246 N 
HETATM    2  C   UNL     1     -44.252  57.960 -51.005  1.00  0.00     0.255 C 
HETATM    3  O   UNL     1     -45.207  57.197 -50.866  1.00  0.00    -0.270 OA
HETATM    4  H   UNL     1     -42.201  58.318 -51.137  1.00  0.00     0.192 HD
ENDROOT
BRANCH   1   5
HETATM    5  N   UNL     1     -42.569  56.271 -51.133  1.00  0.00    -0.184 NA
HETATM    6  C   UNL     1     -41.322  56.026 -50.888  1.00  0.00     0.153 C 
BRANCH   6   7
HETATM    7  C   UNL     1     -40.824  54.662 -50.912  1.00  0.00     0.018 A 
HETATM    8  C   UNL     1     -40.511  53.865 -49.817  1.00  0.00     0.018 A 
HETATM    9  C   UNL     1     -40.575  54.140 -48.356  1.00  0.00     0.069 C 
HETATM   10  N   UNL     1     -40.088  52.649 -50.292  1.00  0.00    -0.358 N 
HETATM   11  H   UNL     1     -39.798  51.871 -49.715  1.00  0.00     0.166 HD
HETATM   12  C   UNL     1     -40.120  52.626 -51.665  1.00  0.00     0.043 A 
HETATM   13  C   UNL     1     -40.575  53.874 -52.086  1.00  0.00     0.004 A 
HETATM   14  C   UNL     1     -39.784  51.597 -52.554  1.00  0.00     0.030 A 
HETATM   15  C   UNL     1     -40.700  54.104 -53.474  1.00  0.00     0.014 A 
HETATM   16  C   UNL     1     -40.368  53.087 -54.377  1.00  0.00     0.001 A 
HETATM   17  C   UNL     1     -39.917  51.852 -53.920  1.00  0.00     0.002 A 
ENDBRANCH   6   7
ENDBRANCH   1   5
BRANCH   2  18
HETATM   18  C   UNL     1     -44.449  59.471 -51.131  1.00  0.00     0.227 C 
BRANCH  18  19
HETATM   19  N   UNL     1     -44.436  60.164 -49.853  1.00  0.00    -0.348 N 
HETATM   20  C   UNL     1     -45.493  60.946 -49.446  1.00  0.00     0.252 C 
HETATM   21  O   UNL     1     -46.454  61.187 -50.170  1.00  0.00    -0.268 OA
HETATM   22  H   UNL     1     -43.557  60.207 -49.353  1.00  0.00     0.163 HD
BRANCH  20  23
HETATM   23  C   UNL     1     -45.386  61.542 -48.088  1.00  0.00     0.032 A 
HETATM   24  C   UNL     1     -45.380  60.689 -46.976  1.00  0.00     0.020 A 
HETATM   25  C   UNL     1     -45.264  61.220 -45.691  1.00  0.00     0.043 A 
HETATM   26  C   UNL     1     -45.142  62.596 -45.525  1.00  0.00     0.116 A 
HETATM   27  F   UNL     1     -45.024  63.104 -44.291  1.00  0.00    -0.206 F 
HETATM   28  C   UNL     1     -45.131  63.453 -46.620  1.00  0.00     0.043 A 
HETATM   29  C   UNL     1     -45.252  62.927 -47.909  1.00  0.00     0.020 A 
ENDBRANCH  20  23
ENDBRANCH  18  19
ENDBRANCH   2  18
TORSDOF 5
ENDMDL
MODEL 4
REMARK VINA RESULT:      -8.5      1.804      2.009
REMARK  5 active torsions:
REMARK  status: ('A' for Active; 'I' for Inactive)
REMARK    1  A    between atoms: C_7  and  C_8 
REMARK    2  A    between atoms: N_9  and  N_10 
REMARK       I    between atoms: N_10  and  C_11 
REMARK    3  A    between atoms: C_11  and  C_12 
REMARK    4  A    between atoms: C_12  and  N_13 
REMARK       I    between atoms: N_13  and  C_14 
REMARK    5  A    between atoms: C_14  and  C_15 
ROOT
HETATM    1  N   UNL     1     -41.537  57.318 -53.985  1.00  0.00    -0.246 N 
HETATM    2  C   UNL     1     -41.197  58.662 -53.937  1.00  0.00     0.255 C 
HETATM    3  O   UNL     1     -40.300  59.156 -53.257  1.00  0.00    -0.270 OA
HETATM    4  H   UNL     1     -42.248  57.009 -54.656  1.00  0.00     0.192 HD
ENDROOT
BRANCH   1   5
HETATM    5  N   UNL     1     -40.903  56.414 -53.186  1.00  0.00    -0.184 NA
HETATM    6  C   UNL     1     -41.446  55.240 -53.136  1.00  0.00     0.153 C 
BRANCH   6   7
HETATM    7  C   UNL     1     -40.874  54.203 -52.296  1.00  0.00     0.018 A 
HETATM    8  C   UNL     1     -40.642  54.266 -50.927  1.00  0.00     0.018 A 
HETATM    9  C   UNL     1     -40.884  55.355 -49.942  1.00  0.00     0.069 C 
HETATM   10  N   UNL     1     -40.102  53.065 -50.538  1.00  0.00    -0.358 N 
HETATM   11  H   UNL     1     -39.836  52.829 -49.592  1.00  0.00     0.166 HD
HETATM   12  C   UNL     1     -39.979  52.217 -51.612  1.00  0.00     0.043 A 
HETATM   13  C   UNL     1     -40.452  52.901 -52.732  1.00  0.00     0.004 A 
HETATM   14  C   UNL     1     -39.490  50.907 -51.670  1.00  0.00     0.030 A 
HETATM   15  C   UNL     1     -40.434  52.234 -53.976  1.00  0.00     0.014 A 
HETATM   16  C   UNL     1     -39.947  50.923 -54.053  1.00  0.00     0.001 A 
HETATM   17  C   UNL     1     -39.483  50.271 -52.913  1.00  0.00     0.002 A 
ENDBRANCH   6   7
ENDBRANCH   1   5
BRANCH   2  18
HETATM   18  C   UNL     1     -42.110  59.527 -54.807  1.00  0.00     0.227 C 
BRANCH  18  19
HETATM   19  N   UNL     1     -42.713  58.799 -55.912  1.00  0.00    -0.348 N 
HETATM   20  C   UNL     1     -42.242  58.921 -57.199  1.00  0.00     0.252 C 
HETATM   21  O   UNL     1     -41.360  59.718 -57.508  1.00  0.00    -0.268 OA
HETATM   22  H   UNL     1     -43.603  58.347 -55.743  1.00  0.00     0.163 HD
BRANCH  20  23
HETATM   23  C   UNL     1     -42.901  58.071 -58.225  1.00  0.00     0.032 A 
HETATM   24  C   UNL     1     -43.466  58.689 -59.349  1.00  0.00     0.020 A 
HETATM   25  C   UNL     1     -44.077  57.915 -60.337  1.00  0.00     0.043 A 
HETATM   26  C   UNL     1     -44.107  56.530 -60.203  1.00  0.00     0.116 A 
HETATM   27  F   UNL     1     -44.687  55.788 -61.156  1.00  0.00    -0.206 F 
HETATM   28  C   UNL     1     -43.536  55.903 -59.101  1.00  0.00     0.043 A 
HETATM   29  C   UNL     1     -42.928  56.673 -58.107  1.00  0.00     0.020 A 
ENDBRANCH  20  23
ENDBRANCH  18  19
ENDBRANCH   2  18
TORSDOF 5
ENDMDL
MODEL 5
REMARK VINA RESULT:      -8.0      3.221      8.552
REMARK  5 active torsions:
REMARK  status: ('A' for Active; 'I' for Inactive)
REMARK    1  A    between atoms: C_7  and  C_8 
REMARK    2  A    between atoms: N_9  and  N_10 
REMARK       I    between atoms: N_10  and  C_11 
REMARK    3  A    between atoms: C_11  and  C_12 
REMARK    4  A    between atoms: C_12  and  N_13 
REMARK       I    between atoms: N_13  and  C_14 
REMARK    5  A    between atoms: C_14  and  C_15 
ROOT
HETATM    1  N   UNL     1     -42.834  56.356 -54.956  1.00  0.00    -0.246 N 
HETATM    2  C   UNL     1     -43.758  56.233 -53.928  1.00  0.00     0.255 C 
HETATM    3  O   UNL     1     -44.948  56.536 -53.986  1.00  0.00    -0.270 OA
HETATM    4  H   UNL     1     -41.887  55.988 -54.819  1.00  0.00     0.192 HD
ENDROOT
BRANCH   1   5
HETATM    5  N   UNL     1     -43.193  56.914 -56.146  1.00  0.00    -0.184 NA
HETATM    6  C   UNL     1     -42.763  56.298 -57.200  1.00  0.00     0.153 C 
BRANCH   6   7
HETATM    7  C   UNL     1     -43.058  56.815 -58.524  1.00  0.00     0.018 A 
HETATM    8  C   UNL     1     -43.720  56.156 -59.553  1.00  0.00     0.018 A 
HETATM    9  C   UNL     1     -44.298  54.786 -59.627  1.00  0.00     0.069 C 
HETATM   10  N   UNL     1     -43.792  57.014 -60.622  1.00  0.00    -0.358 N 
HETATM   11  H   UNL     1     -44.225  56.798 -61.510  1.00  0.00     0.166 HD
HETATM   12  C   UNL     1     -43.201  58.217 -60.320  1.00  0.00     0.043 A 
HETATM   13  C   UNL     1     -42.728  58.125 -59.012  1.00  0.00     0.004 A 
HETATM   14  C   UNL     1     -43.056  59.368 -61.104  1.00  0.00     0.030 A 
HETATM   15  C   UNL     1     -42.075  59.249 -58.459  1.00  0.00     0.014 A 
HETATM   16  C   UNL     1     -41.920  60.408 -59.229  1.00  0.00     0.001 A 
HETATM   17  C   UNL     1     -42.405  60.464 -60.533  1.00  0.00     0.002 A 
ENDBRANCH   6   7
ENDBRANCH   1   5
BRANCH   2  18
HETATM   18  C   UNL     1     -43.129  55.706 -52.637  1.00  0.00     0.227 C 
BRANCH  18  19
HETATM   19  N   UNL     1     -42.494  54.407 -52.792  1.00  0.00    -0.348 N 
HETATM   20  C   UNL     1     -41.166  54.288 -53.130  1.00  0.00     0.252 C 
HETATM   21  O   UNL     1     -40.469  55.256 -53.420  1.00  0.00    -0.268 OA
HETATM   22  H   UNL     1     -43.097  53.594 -52.826  1.00  0.00     0.163 HD
BRANCH  20  23
HETATM   23  C   UNL     1     -40.622  52.906 -53.188  1.00  0.00     0.032 A 
HETATM   24  C   UNL     1     -40.024  52.369 -52.039  1.00  0.00     0.020 A 
HETATM   25  C   UNL     1     -39.519  51.068 -52.059  1.00  0.00     0.043 A 
HETATM   26  C   UNL     1     -39.626  50.308 -53.219  1.00  0.00     0.116 A 
HETATM   27  F   UNL     1     -39.148  49.057 -53.234  1.00  0.00    -0.206 F 
HETATM   28  C   UNL     1     -40.231  50.823 -54.361  1.00  0.00     0.043 A 
HETATM   29  C   UNL     1     -40.734  52.126 -54.348  1.00  0.00     0.020 A 
ENDBRANCH  20  23
ENDBRANCH  18  19
ENDBRANCH   2  18
TORSDOF 5
ENDMDL
MODEL 6
REMARK VINA RESULT:      -7.9      3.282      4.424
REMARK  5 active torsions:
REMARK  status: ('A' for Active; 'I' for Inactive)
REMARK    1  A    between atoms: C_7  and  C_8 
REMARK    2  A    between atoms: N_9  and  N_10 
REMARK       I    between atoms: N_10  and  C_11 
REMARK    3  A    between atoms: C_11  and  C_12 
REMARK    4  A    between atoms: C_12  and  N_13 
REMARK       I    between atoms: N_13  and  C_14 
REMARK    5  A    between atoms: C_14  and  C_15 
ROOT
HETATM    1  N   UNL     1     -42.687  54.482 -55.923  1.00  0.00    -0.246 N 
HETATM    2  C   UNL     1     -42.549  55.823 -56.252  1.00  0.00     0.255 C 
HETATM    3  O   UNL     1     -42.098  56.703 -55.522  1.00  0.00    -0.270 OA
HETATM    4  H   UNL     1     -42.994  53.823 -56.646  1.00  0.00     0.192 HD
ENDROOT
BRANCH   1   5
HETATM    5  N   UNL     1     -42.372  54.040 -54.673  1.00  0.00    -0.184 NA
HETATM    6  C   UNL     1     -41.119  53.786 -54.474  1.00  0.00     0.153 C 
BRANCH   6   7
HETATM    7  C   UNL     1     -40.668  53.281 -53.189  1.00  0.00     0.018 A 
HETATM    8  C   UNL     1     -40.048  52.063 -52.938  1.00  0.00     0.018 A 
HETATM    9  C   UNL     1     -39.675  50.948 -53.850  1.00  0.00     0.069 C 
HETATM   10  N   UNL     1     -39.783  51.998 -51.593  1.00  0.00    -0.358 N 
HETATM   11  H   UNL     1     -39.332  51.222 -51.128  1.00  0.00     0.166 HD
HETATM   12  C   UNL     1     -40.208  53.140 -50.958  1.00  0.00     0.043 A 
HETATM   13  C   UNL     1     -40.770  53.966 -51.931  1.00  0.00     0.004 A 
HETATM   14  C   UNL     1     -40.132  53.497 -49.606  1.00  0.00     0.030 A 
HETATM   15  C   UNL     1     -41.284  55.217 -51.526  1.00  0.00     0.014 A 
HETATM   16  C   UNL     1     -41.217  55.590 -50.178  1.00  0.00     0.001 A 
HETATM   17  C   UNL     1     -40.648  54.740 -49.234  1.00  0.00     0.002 A 
ENDBRANCH   6   7
ENDBRANCH   1   5
BRANCH   2  18
HETATM   18  C   UNL     1     -43.075  56.138 -57.653  1.00  0.00     0.227 C 
BRANCH  18  19
HETATM   19  N   UNL     1     -42.710  57.465 -58.122  1.00  0.00    -0.348 N 
HETATM   20  C   UNL     1     -42.378  57.699 -59.437  1.00  0.00     0.252 C 
HETATM   21  O   UNL     1     -42.271  56.797 -60.262  1.00  0.00    -0.268 OA
HETATM   22  H   UNL     1     -42.526  58.174 -57.423  1.00  0.00     0.163 HD
BRANCH  20  23
HETATM   23  C   UNL     1     -42.093  59.112 -59.802  1.00  0.00     0.032 A 
HETATM   24  C   UNL     1     -41.877  60.043 -58.777  1.00  0.00     0.020 A 
HETATM   25  C   UNL     1     -41.590  61.372 -59.091  1.00  0.00     0.043 A 
HETATM   26  C   UNL     1     -41.508  61.760 -60.424  1.00  0.00     0.116 A 
HETATM   27  F   UNL     1     -41.225  63.034 -60.724  1.00  0.00    -0.206 F 
HETATM   28  C   UNL     1     -41.704  60.843 -61.452  1.00  0.00     0.043 A 
HETATM   29  C   UNL     1     -41.996  59.512 -61.144  1.00  0.00     0.020 A 
ENDBRANCH  20  23
ENDBRANCH  18  19
ENDBRANCH   2  18
TORSDOF 5
ENDMDL
MODEL 7
REMARK VINA RESULT:      -7.9      2.904      8.363
REMARK  5 active torsions:
REMARK  status: ('A' for Active; 'I' for Inactive)
REMARK    1  A    between atoms: C_7  and  C_8 
REMARK    2  A    between atoms: N_9  and  N_10 
REMARK       I    between atoms: N_10  and  C_11 
REMARK    3  A    between atoms: C_11  and  C_12 
REMARK    4  A    between atoms: C_12  and  N_13 
REMARK       I    between atoms: N_13  and  C_14 
REMARK    5  A    between atoms: C_14  and  C_15 
ROOT
HETATM    1  N   UNL     1     -42.651  56.068 -54.543  1.00  0.00    -0.246 N 
HETATM    2  C   UNL     1     -42.885  56.382 -53.212  1.00  0.00     0.255 C 
HETATM    3  O   UNL     1     -43.908  56.890 -52.758  1.00  0.00    -0.270 OA
HETATM    4  H   UNL     1     -41.793  55.566 -54.791  1.00  0.00     0.192 HD
ENDROOT
BRANCH   1   5
HETATM    5  N   UNL     1     -43.571  56.380 -55.499  1.00  0.00    -0.184 NA
HETATM    6  C   UNL     1     -43.100  56.968 -56.551  1.00  0.00     0.153 C 
BRANCH   6   7
HETATM    7  C   UNL     1     -43.989  57.374 -57.625  1.00  0.00     0.018 A 
HETATM    8  C   UNL     1     -44.592  58.615 -57.789  1.00  0.00     0.018 A 
HETATM    9  C   UNL     1     -44.530  59.852 -56.963  1.00  0.00     0.069 C 
HETATM   10  N   UNL     1     -45.340  58.568 -58.939  1.00  0.00    -0.358 N 
HETATM   11  H   UNL     1     -45.886  59.335 -59.307  1.00  0.00     0.166 HD
HETATM   12  C   UNL     1     -45.239  57.334 -59.534  1.00  0.00     0.043 A 
HETATM   13  C   UNL     1     -44.400  56.560 -58.734  1.00  0.00     0.004 A 
HETATM   14  C   UNL     1     -45.823  56.855 -60.713  1.00  0.00     0.030 A 
HETATM   15  C   UNL     1     -44.132  55.233 -59.137  1.00  0.00     0.014 A 
HETATM   16  C   UNL     1     -44.708  54.737 -60.313  1.00  0.00     0.001 A 
HETATM   17  C   UNL     1     -45.541  55.540 -61.089  1.00  0.00     0.002 A 
ENDBRANCH   6   7
ENDBRANCH   1   5
BRANCH   2  18
HETATM   18  C   UNL     1     -41.683  56.072 -52.319  1.00  0.00     0.227 C 
BRANCH  18  19
HETATM   19  N   UNL     1     -41.346  54.658 -52.274  1.00  0.00    -0.348 N 
HETATM   20  C   UNL     1     -40.552  54.074 -53.234  1.00  0.00     0.252 C 
HETATM   21  O   UNL     1     -40.168  54.679 -54.232  1.00  0.00    -0.268 OA
HETATM   22  H   UNL     1     -41.860  54.076 -51.624  1.00  0.00     0.163 HD
BRANCH  20  23
HETATM   23  C   UNL     1     -40.225  52.638 -53.035  1.00  0.00     0.032 A 
HETATM   24  C   UNL     1     -40.269  51.778 -54.141  1.00  0.00     0.020 A 
HETATM   25  C   UNL     1     -39.950  50.428 -53.988  1.00  0.00     0.043 A 
HETATM   26  C   UNL     1     -39.577  49.948 -52.736  1.00  0.00     0.116 A 
HETATM   27  F   UNL     1     -39.264  48.654 -52.591  1.00  0.00    -0.206 F 
HETATM   28  C   UNL     1     -39.514  50.794 -51.633  1.00  0.00     0.043 A 
HETATM   29  C   UNL     1     -39.837  52.145 -51.780  1.00  0.00     0.020 A 
ENDBRANCH  20  23
ENDBRANCH  18  19
ENDBRANCH   2  18
TORSDOF 5
ENDMDL
MODEL 8
REMARK VINA RESULT:      -7.9      4.319      8.286
REMARK  5 active torsions:
REMARK  status: ('A' for Active; 'I' for Inactive)
REMARK    1  A    between atoms: C_7  and  C_8 
REMARK    2  A    between atoms: N_9  and  N_10 
REMARK       I    between atoms: N_10  and  C_11 
REMARK    3  A    between atoms: C_11  and  C_12 
REMARK    4  A    between atoms: C_12  and  N_13 
REMARK       I    between atoms: N_13  and  C_14 
REMARK    5  A    between atoms: C_14  and  C_15 
ROOT
HETATM    1  N   UNL     1     -43.079  56.159 -53.816  1.00  0.00    -0.246 N 
HETATM    2  C   UNL     1     -42.708  56.025 -55.146  1.00  0.00     0.255 C 
HETATM    3  O   UNL     1     -42.377  56.939 -55.900  1.00  0.00    -0.270 OA
HETATM    4  H   UNL     1     -43.251  55.315 -53.262  1.00  0.00     0.192 HD
ENDROOT
BRANCH   1   5
HETATM    5  N   UNL     1     -43.167  57.392 -53.243  1.00  0.00    -0.184 NA
HETATM    6  C   UNL     1     -42.581  57.513 -52.095  1.00  0.00     0.153 C 
BRANCH   6   7
HETATM    7  C   UNL     1     -42.632  58.773 -51.374  1.00  0.00     0.018 A 
HETATM    8  C   UNL     1     -41.562  59.462 -50.815  1.00  0.00     0.018 A 
HETATM    9  C   UNL     1     -40.108  59.146 -50.773  1.00  0.00     0.069 C 
HETATM   10  N   UNL     1     -42.056  60.606 -50.241  1.00  0.00    -0.358 N 
HETATM   11  H   UNL     1     -41.499  61.301 -49.762  1.00  0.00     0.166 HD
HETATM   12  C   UNL     1     -43.416  60.688 -50.412  1.00  0.00     0.043 A 
HETATM   13  C   UNL     1     -43.810  59.552 -51.117  1.00  0.00     0.004 A 
HETATM   14  C   UNL     1     -44.316  61.678 -49.998  1.00  0.00     0.030 A 
HETATM   15  C   UNL     1     -45.180  59.400 -51.425  1.00  0.00     0.014 A 
HETATM   16  C   UNL     1     -46.094  60.380 -51.018  1.00  0.00     0.001 A 
HETATM   17  C   UNL     1     -45.665  61.502 -50.315  1.00  0.00     0.002 A 
ENDBRANCH   6   7
ENDBRANCH   1   5
BRANCH   2  18
HETATM   18  C   UNL     1     -42.797  54.579 -55.635  1.00  0.00     0.227 C 
BRANCH  18  19
HETATM   19  N   UNL     1     -42.209  53.621 -54.713  1.00  0.00    -0.348 N 
HETATM   20  C   UNL     1     -40.854  53.382 -54.687  1.00  0.00     0.252 C 
HETATM   21  O   UNL     1     -40.079  53.879 -55.499  1.00  0.00    -0.268 OA
HETATM   22  H   UNL     1     -42.839  53.000 -54.220  1.00  0.00     0.163 HD
BRANCH  20  23
HETATM   23  C   UNL     1     -40.373  52.431 -53.651  1.00  0.00     0.032 A 
HETATM   24  C   UNL     1     -40.307  52.863 -52.319  1.00  0.00     0.020 A 
HETATM   25  C   UNL     1     -39.875  51.987 -51.322  1.00  0.00     0.043 A 
HETATM   26  C   UNL     1     -39.524  50.684 -51.658  1.00  0.00     0.116 A 
HETATM   27  F   UNL     1     -39.116  49.842 -50.700  1.00  0.00    -0.206 F 
HETATM   28  C   UNL     1     -39.598  50.237 -52.974  1.00  0.00     0.043 A 
HETATM   29  C   UNL     1     -40.026  51.111 -53.976  1.00  0.00     0.020 A 
ENDBRANCH  20  23
ENDBRANCH  18  19
ENDBRANCH   2  18
TORSDOF 5
ENDMDL
MODEL 9
REMARK VINA RESULT:      -7.8      2.851      3.111
REMARK  5 active torsions:
REMARK  status: ('A' for Active; 'I' for Inactive)
REMARK    1  A    between atoms: C_7  and  C_8 
REMARK    2  A    between atoms: N_9  and  N_10 
REMARK       I    between atoms: N_10  and  C_11 
REMARK    3  A    between atoms: C_11  and  C_12 
REMARK    4  A    between atoms: C_12  and  N_13 
REMARK       I    between atoms: N_13  and  C_14 
REMARK    5  A    between atoms: C_14  and  C_15 
ROOT
HETATM    1  N   UNL     1     -41.789  56.983 -53.741  1.00  0.00    -0.246 N 
HETATM    2  C   UNL     1     -42.257  57.025 -55.047  1.00  0.00     0.255 C 
HETATM    3  O   UNL     1     -42.117  56.144 -55.892  1.00  0.00    -0.270 OA
HETATM    4  H   UNL     1     -42.041  57.741 -53.099  1.00  0.00     0.192 HD
ENDROOT
BRANCH   1   5
HETATM    5  N   UNL     1     -41.047  55.927 -53.305  1.00  0.00    -0.184 NA
HETATM    6  C   UNL     1     -41.657  55.113 -52.505  1.00  0.00     0.153 C 
BRANCH   6   7
HETATM    7  C   UNL     1     -40.958  53.966 -51.952  1.00  0.00     0.018 A 
HETATM    8  C   UNL     1     -40.539  53.794 -50.638  1.00  0.00     0.018 A 
HETATM    9  C   UNL     1     -40.661  54.678 -49.447  1.00  0.00     0.069 C 
HETATM   10  N   UNL     1     -39.932  52.566 -50.551  1.00  0.00    -0.358 N 
HETATM   11  H   UNL     1     -39.534  52.175 -49.707  1.00  0.00     0.166 HD
HETATM   12  C   UNL     1     -39.945  51.929 -51.768  1.00  0.00     0.043 A 
HETATM   13  C   UNL     1     -40.579  52.782 -52.670  1.00  0.00     0.004 A 
HETATM   14  C   UNL     1     -39.447  50.671 -52.129  1.00  0.00     0.030 A 
HETATM   15  C   UNL     1     -40.723  52.350 -54.007  1.00  0.00     0.014 A 
HETATM   16  C   UNL     1     -40.230  51.095 -54.386  1.00  0.00     0.001 A 
HETATM   17  C   UNL     1     -39.602  50.269 -53.458  1.00  0.00     0.002 A 
ENDBRANCH   6   7
ENDBRANCH   1   5
BRANCH   2  18
HETATM   18  C   UNL     1     -42.953  58.346 -55.376  1.00  0.00     0.227 C 
BRANCH  18  19
HETATM   19  N   UNL     1     -42.844  58.722 -56.777  1.00  0.00    -0.348 N 
HETATM   20  C   UNL     1     -42.090  59.801 -57.178  1.00  0.00     0.252 C 
HETATM   21  O   UNL     1     -41.553  60.565 -56.381  1.00  0.00    -0.268 OA
HETATM   22  H   UNL     1     -43.484  58.285 -57.429  1.00  0.00     0.163 HD
BRANCH  20  23
HETATM   23  C   UNL     1     -42.005  60.037 -58.643  1.00  0.00     0.032 A 
HETATM   24  C   UNL     1     -42.438  59.027 -59.515  1.00  0.00     0.020 A 
HETATM   25  C   UNL     1     -42.386  59.227 -60.895  1.00  0.00     0.043 A 
HETATM   26  C   UNL     1     -41.914  60.437 -61.396  1.00  0.00     0.116 A 
HETATM   27  F   UNL     1     -41.872  60.630 -62.720  1.00  0.00    -0.206 F 
HETATM   28  C   UNL     1     -41.496  61.453 -60.542  1.00  0.00     0.043 A 
HETATM   29  C   UNL     1     -41.542  61.256 -59.160  1.00  0.00     0.020 A 
ENDBRANCH  20  23
ENDBRANCH  18  19
ENDBRANCH   2  18
TORSDOF 5
ENDMDL
MODEL 10
REMARK VINA RESULT:      -7.8      3.667      8.661
REMARK  5 active torsions:
REMARK  status: ('A' for Active; 'I' for Inactive)
REMARK    1  A    between atoms: C_7  and  C_8 
REMARK    2  A    between atoms: N_9  and  N_10 
REMARK       I    between atoms: N_10  and  C_11 
REMARK    3  A    between atoms: C_11  and  C_12 
REMARK    4  A    between atoms: C_12  and  N_13 
REMARK       I    between atoms: N_13  and  C_14 
REMARK    5  A    between atoms: C_14  and  C_15 
ROOT
HETATM    1  N   UNL     1     -42.040  57.804 -54.836  1.00  0.00    -0.246 N 
HETATM    2  C   UNL     1     -41.428  58.445 -53.768  1.00  0.00     0.255 C 
HETATM    3  O   UNL     1     -40.814  59.509 -53.820  1.00  0.00    -0.270 OA
HETATM    4  H   UNL     1     -42.598  56.964 -54.656  1.00  0.00     0.192 HD
ENDROOT
BRANCH   1   5
HETATM    5  N   UNL     1     -41.941  58.312 -56.096  1.00  0.00    -0.184 NA
HETATM    6  C   UNL     1     -42.437  57.569 -57.033  1.00  0.00     0.153 C 
BRANCH   6   7
HETATM    7  C   UNL     1     -42.364  57.992 -58.421  1.00  0.00     0.018 A 
HETATM    8  C   UNL     1     -42.633  57.223 -59.547  1.00  0.00     0.018 A 
HETATM    9  C   UNL     1     -43.051  55.802 -59.685  1.00  0.00     0.069 C 
HETATM   10  N   UNL     1     -42.451  58.019 -60.650  1.00  0.00    -0.358 N 
HETATM   11  H   UNL     1     -42.581  57.721 -61.607  1.00  0.00     0.166 HD
HETATM   12  C   UNL     1     -42.076  59.287 -60.278  1.00  0.00     0.043 A 
HETATM   13  C   UNL     1     -42.010  59.304 -58.886  1.00  0.00     0.004 A 
HETATM   14  C   UNL     1     -41.796  60.409 -61.068  1.00  0.00     0.030 A 
HETATM   15  C   UNL     1     -41.643  60.511 -58.251  1.00  0.00     0.014 A 
HETATM   16  C   UNL     1     -41.359  61.643 -59.025  1.00  0.00     0.001 A 
HETATM   17  C   UNL     1     -41.436  61.589 -60.414  1.00  0.00     0.002 A 
ENDBRANCH   6   7
ENDBRANCH   1   5
BRANCH   2  18
HETATM   18  C   UNL     1     -41.544  57.652 -52.466  1.00  0.00     0.227 C 
BRANCH  18  19
HETATM   19  N   UNL     1     -40.998  56.307 -52.558  1.00  0.00    -0.348 N 
HETATM   20  C   UNL     1     -41.797  55.221 -52.833  1.00  0.00     0.252 C 
HETATM   21  O   UNL     1     -43.020  55.304 -52.915  1.00  0.00    -0.268 OA
HETATM   22  H   UNL     1     -40.050  56.165 -52.232  1.00  0.00     0.163 HD
BRANCH  20  23
HETATM   23  C   UNL     1     -41.106  53.912 -52.969  1.00  0.00     0.032 A 
HETATM   24  C   UNL     1     -41.043  53.312 -54.234  1.00  0.00     0.020 A 
HETATM   25  C   UNL     1     -40.386  52.091 -54.395  1.00  0.00     0.043 A 
HETATM   26  C   UNL     1     -39.786  51.485 -53.297  1.00  0.00     0.116 A 
HETATM   27  F   UNL     1     -39.149  50.317 -53.454  1.00  0.00    -0.206 F 
HETATM   28  C   UNL     1     -39.828  52.077 -52.038  1.00  0.00     0.043 A 
HETATM   29  C   UNL     1     -40.488  53.296 -51.871  1.00  0.00     0.020 A 
ENDBRANCH  20  23
ENDBRANCH  18  19
ENDBRANCH   2  18
TORSDOF 5
ENDMDL
