MODEL 1
REMARK VINA RESULT:      -9.0      0.000      0.000
REMARK  1 active torsions:
REMARK  status: ('A' for Active; 'I' for Inactive)
REMARK    1  A    between atoms: C_8  and  C_9 
ROOT
HETATM    1  C   UNL     1     -42.160  57.556 -57.072  1.00  0.00     0.073 C 
HETATM    2  C   UNL     1     -43.197  57.339 -56.029  1.00  0.00     0.062 C 
HETATM    3  N   UNL     1     -44.467  57.147 -56.399  1.00  0.00    -0.178 NA
HETATM    4  N   UNL     1     -45.105  56.920 -55.246  1.00  0.00    -0.262 N 
HETATM    5  H   UNL     1     -46.099  56.725 -55.284  1.00  0.00     0.191 HD
HETATM    6  C   UNL     1     -44.321  57.100 -54.141  1.00  0.00     0.134 C 
HETATM    7  C   UNL     1     -43.029  57.273 -54.606  1.00  0.00     0.032 C 
HETATM    8  C   UNL     1     -41.720  57.295 -53.878  1.00  0.00     0.119 C 
HETATM    9  S   UNL     1     -41.622  57.999 -52.207  1.00  0.00    -0.141 SA
HETATM   10  C   UNL     1     -43.260  58.748 -51.995  1.00  0.00     0.136 C 
HETATM   11  C   UNL     1     -43.184  59.663 -50.771  1.00  0.00     0.031 C 
HETATM   12  C   UNL     1     -44.337  57.681 -51.784  1.00  0.00     0.236 C 
HETATM   13  O   UNL     1     -44.841  57.442 -50.684  1.00  0.00    -0.272 OA
HETATM   14  N   UNL     1     -44.852  57.039 -52.879  1.00  0.00    -0.311 N 
HETATM   15  H   UNL     1     -45.730  56.562 -52.706  1.00  0.00     0.170 HD
ENDROOT
BRANCH   8  16
HETATM   16  C   UNL     1     -41.229  55.848 -53.873  1.00  0.00    -0.039 A 
HETATM   17  C   UNL     1     -41.108  55.107 -52.680  1.00  0.00     0.021 A 
HETATM   18  C   UNL     1     -40.613  53.792 -52.672  1.00  0.00    -0.025 A 
HETATM   19  C   UNL     1     -40.230  53.191 -53.888  1.00  0.00    -0.026 A 
HETATM   20  C   UNL     1     -40.480  53.071 -51.474  1.00  0.00     0.012 A 
HETATM   21  C   UNL     1     -40.356  53.920 -55.080  1.00  0.00     0.013 A 
HETATM   22  C   UNL     1     -39.723  51.880 -53.875  1.00  0.00     0.012 A 
HETATM   23  C   UNL     1     -40.843  55.230 -55.073  1.00  0.00     0.009 A 
HETATM   24  C   UNL     1     -39.595  51.177 -52.676  1.00  0.00     0.001 A 
HETATM   25  C   UNL     1     -39.973  51.772 -51.476  1.00  0.00     0.001 A 
ENDBRANCH   8  16
TORSDOF 1
ENDMDL
MODEL 2
REMARK VINA RESULT:      -8.8      2.532      3.923
REMARK  1 active torsions:
REMARK  status: ('A' for Active; 'I' for Inactive)
REMARK    1  A    between atoms: C_8  and  C_9 
ROOT
HETATM    1  C   UNL     1     -40.997  58.268 -50.031  1.00  0.00     0.073 C 
HETATM    2  C   UNL     1     -40.918  58.381 -51.511  1.00  0.00     0.062 C 
HETATM    3  N   UNL     1     -40.019  59.205 -52.058  1.00  0.00    -0.178 NA
HETATM    4  N   UNL     1     -40.168  59.015 -53.373  1.00  0.00    -0.262 N 
HETATM    5  H   UNL     1     -39.562  59.533 -54.000  1.00  0.00     0.191 HD
HETATM    6  C   UNL     1     -41.223  58.208 -53.693  1.00  0.00     0.134 C 
HETATM    7  C   UNL     1     -41.685  57.681 -52.501  1.00  0.00     0.032 C 
HETATM    8  C   UNL     1     -42.664  56.579 -52.229  1.00  0.00     0.119 C 
HETATM    9  S   UNL     1     -44.090  56.341 -53.328  1.00  0.00    -0.141 SA
HETATM   10  C   UNL     1     -44.014  57.802 -54.400  1.00  0.00     0.136 C 
HETATM   11  C   UNL     1     -45.351  57.891 -55.140  1.00  0.00     0.031 C 
HETATM   12  C   UNL     1     -42.865  57.695 -55.407  1.00  0.00     0.236 C 
HETATM   13  O   UNL     1     -43.038  57.432 -56.600  1.00  0.00    -0.272 OA
HETATM   14  N   UNL     1     -41.598  58.018 -54.998  1.00  0.00    -0.311 N 
HETATM   15  H   UNL     1     -40.949  58.193 -55.757  1.00  0.00     0.170 HD
ENDROOT
BRANCH   8  16
HETATM   16  C   UNL     1     -41.833  55.300 -52.154  1.00  0.00    -0.039 A 
HETATM   17  C   UNL     1     -41.648  54.465 -53.275  1.00  0.00     0.021 A 
HETATM   18  C   UNL     1     -40.922  53.265 -53.194  1.00  0.00    -0.025 A 
HETATM   19  C   UNL     1     -40.355  52.883 -51.960  1.00  0.00    -0.026 A 
HETATM   20  C   UNL     1     -40.761  52.434 -54.314  1.00  0.00     0.012 A 
HETATM   21  C   UNL     1     -40.528  53.713 -50.843  1.00  0.00     0.013 A 
HETATM   22  C   UNL     1     -39.641  51.676 -51.879  1.00  0.00     0.012 A 
HETATM   23  C   UNL     1     -41.260  54.901 -50.936  1.00  0.00     0.009 A 
HETATM   24  C   UNL     1     -39.490  50.859 -53.001  1.00  0.00     0.001 A 
HETATM   25  C   UNL     1     -40.050  51.237 -54.218  1.00  0.00     0.001 A 
ENDBRANCH   8  16
TORSDOF 1
ENDMDL
MODEL 3
REMARK VINA RESULT:      -8.3      2.546      3.570
REMARK  1 active torsions:
REMARK  status: ('A' for Active; 'I' for Inactive)
REMARK    1  A    between atoms: C_8  and  C_9 
ROOT
HETATM    1  C   UNL     1     -41.815  57.935 -50.869  1.00  0.00     0.073 C 
HETATM    2  C   UNL     1     -41.671  58.343 -52.291  1.00  0.00     0.062 C 
HETATM    3  N   UNL     1     -40.783  59.289 -52.614  1.00  0.00    -0.178 NA
HETATM    4  N   UNL     1     -40.861  59.360 -53.946  1.00  0.00    -0.262 N 
HETATM    5  H   UNL     1     -40.249  60.012 -54.425  1.00  0.00     0.191 HD
HETATM    6  C   UNL     1     -41.863  58.598 -54.478  1.00  0.00     0.134 C 
HETATM    7  C   UNL     1     -42.358  57.828 -53.441  1.00  0.00     0.032 C 
HETATM    8  C   UNL     1     -43.299  56.662 -53.446  1.00  0.00     0.119 C 
HETATM    9  S   UNL     1     -44.659  56.600 -54.649  1.00  0.00    -0.141 SA
HETATM   10  C   UNL     1     -44.596  58.247 -55.406  1.00  0.00     0.136 C 
HETATM   11  C   UNL     1     -45.898  58.436 -56.187  1.00  0.00     0.031 C 
HETATM   12  C   UNL     1     -43.397  58.382 -56.349  1.00  0.00     0.236 C 
HETATM   13  O   UNL     1     -43.500  58.356 -57.577  1.00  0.00    -0.272 OA
HETATM   14  N   UNL     1     -42.166  58.659 -55.814  1.00  0.00    -0.311 N 
HETATM   15  H   UNL     1     -41.489  59.003 -56.486  1.00  0.00     0.170 HD
ENDROOT
BRANCH   8  16
HETATM   16  C   UNL     1     -42.417  55.423 -53.579  1.00  0.00    -0.039 A 
HETATM   17  C   UNL     1     -41.937  54.726 -52.451  1.00  0.00     0.021 A 
HETATM   18  C   UNL     1     -41.088  53.614 -52.573  1.00  0.00    -0.025 A 
HETATM   19  C   UNL     1     -40.705  53.175 -53.857  1.00  0.00    -0.026 A 
HETATM   20  C   UNL     1     -40.602  52.940 -51.441  1.00  0.00     0.012 A 
HETATM   21  C   UNL     1     -41.185  53.859 -54.984  1.00  0.00     0.013 A 
HETATM   22  C   UNL     1     -39.845  52.071 -53.976  1.00  0.00     0.012 A 
HETATM   23  C   UNL     1     -42.024  54.969 -54.848  1.00  0.00     0.009 A 
HETATM   24  C   UNL     1     -39.369  51.411 -52.841  1.00  0.00     0.001 A 
HETATM   25  C   UNL     1     -39.748  51.845 -51.574  1.00  0.00     0.001 A 
ENDBRANCH   8  16
TORSDOF 1
ENDMDL
MODEL 4
REMARK VINA RESULT:      -8.0      1.771      2.661
REMARK  1 active torsions:
REMARK  status: ('A' for Active; 'I' for Inactive)
REMARK    1  A    between atoms: C_8  and  C_9 
ROOT
HETATM    1  C   UNL     1     -42.210  59.560 -55.702  1.00  0.00     0.073 C 
HETATM    2  C   UNL     1     -43.417  59.390 -54.850  1.00  0.00     0.062 C 
HETATM    3  N   UNL     1     -44.626  59.390 -55.419  1.00  0.00    -0.178 NA
HETATM    4  N   UNL     1     -45.459  59.151 -54.402  1.00  0.00    -0.262 N 
HETATM    5  H   UNL     1     -46.450  59.086 -54.604  1.00  0.00     0.191 HD
HETATM    6  C   UNL     1     -44.844  59.140 -53.181  1.00  0.00     0.134 C 
HETATM    7  C   UNL     1     -43.484  59.187 -53.431  1.00  0.00     0.032 C 
HETATM    8  C   UNL     1     -42.311  58.984 -52.521  1.00  0.00     0.119 C 
HETATM    9  S   UNL     1     -42.400  59.531 -50.791  1.00  0.00    -0.141 SA
HETATM   10  C   UNL     1     -43.958  60.460 -50.748  1.00  0.00     0.136 C 
HETATM   11  C   UNL     1     -43.975  61.255 -49.440  1.00  0.00     0.031 C 
HETATM   12  C   UNL     1     -45.167  59.523 -50.805  1.00  0.00     0.236 C 
HETATM   13  O   UNL     1     -45.862  59.259 -49.821  1.00  0.00    -0.272 OA
HETATM   14  N   UNL     1     -45.571  59.042 -52.023  1.00  0.00    -0.311 N 
HETATM   15  H   UNL     1     -46.513  58.667 -52.030  1.00  0.00     0.170 HD
ENDROOT
BRANCH   8  16
HETATM   16  C   UNL     1     -41.992  57.492 -52.589  1.00  0.00    -0.039 A 
HETATM   17  C   UNL     1     -41.276  56.932 -53.666  1.00  0.00     0.021 A 
HETATM   18  C   UNL     1     -41.023  55.553 -53.751  1.00  0.00    -0.025 A 
HETATM   19  C   UNL     1     -41.493  54.701 -52.731  1.00  0.00    -0.026 A 
HETATM   20  C   UNL     1     -40.324  55.006 -54.840  1.00  0.00     0.012 A 
HETATM   21  C   UNL     1     -42.199  55.252 -51.652  1.00  0.00     0.013 A 
HETATM   22  C   UNL     1     -41.250  53.320 -52.825  1.00  0.00     0.012 A 
HETATM   23  C   UNL     1     -42.450  56.626 -51.584  1.00  0.00     0.009 A 
HETATM   24  C   UNL     1     -40.554  52.791 -53.914  1.00  0.00     0.001 A 
HETATM   25  C   UNL     1     -40.091  53.633 -54.921  1.00  0.00     0.001 A 
ENDBRANCH   8  16
TORSDOF 1
ENDMDL
MODEL 5
REMARK VINA RESULT:      -7.8     15.968     17.991
REMARK  1 active torsions:
REMARK  status: ('A' for Active; 'I' for Inactive)
REMARK    1  A    between atoms: C_8  and  C_9 
ROOT
HETATM    1  C   UNL     1     -33.535  37.233 -55.723  1.00  0.00     0.073 C 
HETATM    2  C   UNL     1     -33.200  38.414 -54.884  1.00  0.00     0.062 C 
HETATM    3  N   UNL     1     -31.925  38.798 -54.775  1.00  0.00    -0.178 NA
HETATM    4  N   UNL     1     -31.986  39.903 -54.025  1.00  0.00    -0.262 N 
HETATM    5  H   UNL     1     -31.120  40.390 -53.823  1.00  0.00     0.191 HD
HETATM    6  C   UNL     1     -33.234  40.162 -53.532  1.00  0.00     0.134 C 
HETATM    7  C   UNL     1     -34.090  39.270 -54.155  1.00  0.00     0.032 C 
HETATM    8  C   UNL     1     -35.587  39.210 -54.191  1.00  0.00     0.119 C 
HETATM    9  S   UNL     1     -36.551  39.710 -52.735  1.00  0.00    -0.141 SA
HETATM   10  C   UNL     1     -35.270  39.937 -51.470  1.00  0.00     0.136 C 
HETATM   11  C   UNL     1     -35.982  40.026 -50.118  1.00  0.00     0.031 C 
HETATM   12  C   UNL     1     -34.461  41.213 -51.719  1.00  0.00     0.236 C 
HETATM   13  O   UNL     1     -34.609  42.243 -51.059  1.00  0.00    -0.272 OA
HETATM   14  N   UNL     1     -33.445  41.179 -52.638  1.00  0.00    -0.311 N 
HETATM   15  H   UNL     1     -32.787  41.947 -52.558  1.00  0.00     0.170 HD
ENDROOT
BRANCH   8  16
HETATM   16  C   UNL     1     -36.002  40.032 -55.409  1.00  0.00    -0.039 A 
HETATM   17  C   UNL     1     -36.386  39.424 -56.622  1.00  0.00     0.021 A 
HETATM   18  C   UNL     1     -36.722  40.181 -57.757  1.00  0.00    -0.025 A 
HETATM   19  C   UNL     1     -36.681  41.589 -57.684  1.00  0.00    -0.026 A 
HETATM   20  C   UNL     1     -37.085  39.563 -58.964  1.00  0.00     0.012 A 
HETATM   21  C   UNL     1     -36.308  42.200 -56.478  1.00  0.00     0.013 A 
HETATM   22  C   UNL     1     -37.005  42.343 -58.824  1.00  0.00     0.012 A 
HETATM   23  C   UNL     1     -35.968  41.434 -55.359  1.00  0.00     0.009 A 
HETATM   24  C   UNL     1     -37.363  41.715 -60.018  1.00  0.00     0.001 A 
HETATM   25  C   UNL     1     -37.403  40.325 -60.088  1.00  0.00     0.001 A 
ENDBRANCH   8  16
TORSDOF 1
ENDMDL
MODEL 6
REMARK VINA RESULT:      -7.6      3.015      3.830
REMARK  1 active torsions:
REMARK  status: ('A' for Active; 'I' for Inactive)
REMARK    1  A    between atoms: C_8  and  C_9 
ROOT
HETATM    1  C   UNL     1     -44.039  54.574 -50.586  1.00  0.00     0.073 C 
HETATM    2  C   UNL     1     -42.854  55.471 -50.567  1.00  0.00     0.062 C 
HETATM    3  N   UNL     1     -42.253  55.737 -49.403  1.00  0.00    -0.178 NA
HETATM    4  N   UNL     1     -41.209  56.498 -49.748  1.00  0.00    -0.262 N 
HETATM    5  H   UNL     1     -40.585  56.811 -49.013  1.00  0.00     0.191 HD
HETATM    6  C   UNL     1     -41.199  56.847 -51.069  1.00  0.00     0.134 C 
HETATM    7  C   UNL     1     -42.202  56.110 -51.674  1.00  0.00     0.032 C 
HETATM    8  C   UNL     1     -42.527  55.897 -53.121  1.00  0.00     0.119 C 
HETATM    9  S   UNL     1     -42.270  57.241 -54.315  1.00  0.00    -0.141 SA
HETATM   10  C   UNL     1     -41.871  58.651 -53.247  1.00  0.00     0.136 C 
HETATM   11  C   UNL     1     -41.969  59.913 -54.108  1.00  0.00     0.031 C 
HETATM   12  C   UNL     1     -40.462  58.526 -52.661  1.00  0.00     0.236 C 
HETATM   13  O   UNL     1     -39.503  59.187 -53.067  1.00  0.00    -0.272 OA
HETATM   14  N   UNL     1     -40.275  57.732 -51.561  1.00  0.00    -0.311 N 
HETATM   15  H   UNL     1     -39.406  57.905 -51.067  1.00  0.00     0.170 HD
ENDROOT
BRANCH   8  16
HETATM   16  C   UNL     1     -41.742  54.656 -53.540  1.00  0.00    -0.039 A 
HETATM   17  C   UNL     1     -41.357  53.669 -52.611  1.00  0.00     0.021 A 
HETATM   18  C   UNL     1     -40.595  52.552 -52.989  1.00  0.00    -0.025 A 
HETATM   19  C   UNL     1     -40.205  52.406 -54.337  1.00  0.00    -0.026 A 
HETATM   20  C   UNL     1     -40.203  51.584 -52.050  1.00  0.00     0.012 A 
HETATM   21  C   UNL     1     -40.591  53.381 -55.268  1.00  0.00     0.013 A 
HETATM   22  C   UNL     1     -39.431  51.294 -54.710  1.00  0.00     0.012 A 
HETATM   23  C   UNL     1     -41.344  54.492 -54.876  1.00  0.00     0.009 A 
HETATM   24  C   UNL     1     -39.048  50.342 -53.764  1.00  0.00     0.001 A 
HETATM   25  C   UNL     1     -39.433  50.486 -52.435  1.00  0.00     0.001 A 
ENDBRANCH   8  16
TORSDOF 1
ENDMDL
MODEL 7
REMARK VINA RESULT:      -7.6      2.801      4.784
REMARK  1 active torsions:
REMARK  status: ('A' for Active; 'I' for Inactive)
REMARK    1  A    between atoms: C_8  and  C_9 
ROOT
HETATM    1  C   UNL     1     -42.116  60.159 -53.420  1.00  0.00     0.073 C 
HETATM    2  C   UNL     1     -43.072  59.233 -52.758  1.00  0.00     0.062 C 
HETATM    3  N   UNL     1     -44.258  59.695 -52.351  1.00  0.00    -0.178 NA
HETATM    4  N   UNL     1     -44.879  58.612 -51.875  1.00  0.00    -0.262 N 
HETATM    5  H   UNL     1     -45.823  58.721 -51.522  1.00  0.00     0.191 HD
HETATM    6  C   UNL     1     -44.085  57.501 -51.830  1.00  0.00     0.134 C 
HETATM    7  C   UNL     1     -42.918  57.830 -52.498  1.00  0.00     0.032 C 
HETATM    8  C   UNL     1     -41.778  56.975 -52.962  1.00  0.00     0.119 C 
HETATM    9  S   UNL     1     -41.261  55.540 -51.977  1.00  0.00    -0.141 SA
HETATM   10  C   UNL     1     -42.233  55.730 -50.457  1.00  0.00     0.136 C 
HETATM   11  C   UNL     1     -41.636  54.779 -49.417  1.00  0.00     0.031 C 
HETATM   12  C   UNL     1     -43.707  55.389 -50.692  1.00  0.00     0.236 C 
HETATM   13  O   UNL     1     -44.223  54.336 -50.311  1.00  0.00    -0.272 OA
HETATM   14  N   UNL     1     -44.523  56.340 -51.247  1.00  0.00    -0.311 N 
HETATM   15  H   UNL     1     -45.513  56.162 -51.122  1.00  0.00     0.170 HD
ENDROOT
BRANCH   8  16
HETATM   16  C   UNL     1     -42.142  56.541 -54.381  1.00  0.00    -0.039 A 
HETATM   17  C   UNL     1     -42.035  57.420 -55.479  1.00  0.00     0.021 A 
HETATM   18  C   UNL     1     -42.413  57.034 -56.775  1.00  0.00    -0.025 A 
HETATM   19  C   UNL     1     -42.910  55.732 -56.992  1.00  0.00    -0.026 A 
HETATM   20  C   UNL     1     -42.319  57.925 -57.857  1.00  0.00     0.012 A 
HETATM   21  C   UNL     1     -43.012  54.851 -55.905  1.00  0.00     0.013 A 
HETATM   22  C   UNL     1     -43.300  55.354 -58.287  1.00  0.00     0.012 A 
HETATM   23  C   UNL     1     -42.638  55.250 -54.618  1.00  0.00     0.009 A 
HETATM   24  C   UNL     1     -43.202  56.251 -59.353  1.00  0.00     0.001 A 
HETATM   25  C   UNL     1     -42.711  57.536 -59.138  1.00  0.00     0.001 A 
ENDBRANCH   8  16
TORSDOF 1
ENDMDL
MODEL 8
REMARK VINA RESULT:      -7.5     15.646     18.344
REMARK  1 active torsions:
REMARK  status: ('A' for Active; 'I' for Inactive)
REMARK    1  A    between atoms: C_8  and  C_9 
ROOT
HETATM    1  C   UNL     1     -34.839  39.579 -50.351  1.00  0.00     0.073 C 
HETATM    2  C   UNL     1     -34.873  40.686 -51.343  1.00  0.00     0.062 C 
HETATM    3  N   UNL     1     -34.626  41.936 -50.940  1.00  0.00    -0.178 NA
HETATM    4  N   UNL     1     -34.668  42.651 -52.069  1.00  0.00    -0.262 N 
HETATM    5  H   UNL     1     -34.486  43.646 -52.008  1.00  0.00     0.191 HD
HETATM    6  C   UNL     1     -35.072  41.932 -53.158  1.00  0.00     0.134 C 
HETATM    7  C   UNL     1     -35.118  40.609 -52.755  1.00  0.00     0.032 C 
HETATM    8  C   UNL     1     -35.276  39.346 -53.547  1.00  0.00     0.119 C 
HETATM    9  S   UNL     1     -36.327  39.330 -55.028  1.00  0.00    -0.141 SA
HETATM   10  C   UNL     1     -37.132  40.955 -54.962  1.00  0.00     0.136 C 
HETATM   11  C   UNL     1     -38.291  40.926 -55.961  1.00  0.00     0.031 C 
HETATM   12  C   UNL     1     -36.155  42.076 -55.327  1.00  0.00     0.236 C 
HETATM   13  O   UNL     1     -36.171  42.654 -56.416  1.00  0.00    -0.272 OA
HETATM   14  N   UNL     1     -35.298  42.541 -54.365  1.00  0.00    -0.311 N 
HETATM   15  H   UNL     1     -34.885  43.443 -54.578  1.00  0.00     0.170 HD
ENDROOT
BRANCH   8  16
HETATM   16  C   UNL     1     -33.857  38.902 -53.899  1.00  0.00    -0.039 A 
HETATM   17  C   UNL     1     -33.121  39.513 -54.935  1.00  0.00     0.021 A 
HETATM   18  C   UNL     1     -31.835  39.073 -55.289  1.00  0.00    -0.025 A 
HETATM   19  C   UNL     1     -31.257  37.995 -54.588  1.00  0.00    -0.026 A 
HETATM   20  C   UNL     1     -31.120  39.678 -56.335  1.00  0.00     0.012 A 
HETATM   21  C   UNL     1     -31.980  37.389 -53.550  1.00  0.00     0.013 A 
HETATM   22  C   UNL     1     -29.975  37.549 -54.952  1.00  0.00     0.012 A 
HETATM   23  C   UNL     1     -33.263  37.832 -53.214  1.00  0.00     0.009 A 
HETATM   24  C   UNL     1     -29.277  38.160 -55.996  1.00  0.00     0.001 A 
HETATM   25  C   UNL     1     -29.849  39.224 -56.687  1.00  0.00     0.001 A 
ENDBRANCH   8  16
TORSDOF 1
ENDMDL
MODEL 9
REMARK VINA RESULT:      -7.4      4.055      6.122
REMARK  1 active torsions:
REMARK  status: ('A' for Active; 'I' for Inactive)
REMARK    1  A    between atoms: C_8  and  C_9 
ROOT
HETATM    1  C   UNL     1     -44.744  54.238 -59.992  1.00  0.00     0.073 C 
HETATM    2  C   UNL     1     -45.226  55.644 -59.962  1.00  0.00     0.062 C 
HETATM    3  N   UNL     1     -46.507  55.903 -60.242  1.00  0.00    -0.178 NA
HETATM    4  N   UNL     1     -46.615  57.223 -60.060  1.00  0.00    -0.262 N 
HETATM    5  H   UNL     1     -47.523  57.650 -60.199  1.00  0.00     0.191 HD
HETATM    6  C   UNL     1     -45.421  57.841 -59.812  1.00  0.00     0.134 C 
HETATM    7  C   UNL     1     -44.491  56.831 -59.633  1.00  0.00     0.032 C 
HETATM    8  C   UNL     1     -43.081  56.874 -59.126  1.00  0.00     0.119 C 
HETATM    9  S   UNL     1     -42.025  58.303 -59.503  1.00  0.00    -0.141 SA
HETATM   10  C   UNL     1     -43.028  59.235 -60.693  1.00  0.00     0.136 C 
HETATM   11  C   UNL     1     -42.110  60.275 -61.341  1.00  0.00     0.031 C 
HETATM   12  C   UNL     1     -44.204  59.933 -60.005  1.00  0.00     0.236 C 
HETATM   13  O   UNL     1     -44.227  61.145 -59.776  1.00  0.00    -0.272 OA
HETATM   14  N   UNL     1     -45.333  59.206 -59.733  1.00  0.00    -0.311 N 
HETATM   15  H   UNL     1     -46.154  59.770 -59.540  1.00  0.00     0.170 HD
ENDROOT
BRANCH   8  16
HETATM   16  C   UNL     1     -43.182  56.673 -57.616  1.00  0.00    -0.039 A 
HETATM   17  C   UNL     1     -42.724  55.495 -56.990  1.00  0.00     0.021 A 
HETATM   18  C   UNL     1     -42.860  55.291 -55.606  1.00  0.00    -0.025 A 
HETATM   19  C   UNL     1     -43.464  56.290 -54.817  1.00  0.00    -0.026 A 
HETATM   20  C   UNL     1     -42.416  54.105 -54.998  1.00  0.00     0.012 A 
HETATM   21  C   UNL     1     -43.914  57.468 -55.432  1.00  0.00     0.013 A 
HETATM   22  C   UNL     1     -43.610  56.078 -53.436  1.00  0.00     0.012 A 
HETATM   23  C   UNL     1     -43.780  57.655 -56.811  1.00  0.00     0.009 A 
HETATM   24  C   UNL     1     -43.165  54.894 -52.845  1.00  0.00     0.001 A 
HETATM   25  C   UNL     1     -42.569  53.908 -53.625  1.00  0.00     0.001 A 
ENDBRANCH   8  16
TORSDOF 1
ENDMDL
MODEL 10
REMARK VINA RESULT:      -7.4     16.565     18.735
REMARK  1 active torsions:
REMARK  status: ('A' for Active; 'I' for Inactive)
REMARK    1  A    between atoms: C_8  and  C_9 
ROOT
HETATM    1  C   UNL     1     -37.336  40.389 -51.939  1.00  0.00     0.073 C 
HETATM    2  C   UNL     1     -36.309  40.978 -52.838  1.00  0.00     0.062 C 
HETATM    3  N   UNL     1     -36.394  42.270 -53.172  1.00  0.00    -0.178 NA
HETATM    4  N   UNL     1     -35.302  42.482 -53.914  1.00  0.00    -0.262 N 
HETATM    5  H   UNL     1     -35.143  43.418 -54.269  1.00  0.00     0.191 HD
HETATM    6  C   UNL     1     -34.595  41.344 -54.186  1.00  0.00     0.134 C 
HETATM    7  C   UNL     1     -35.158  40.344 -53.414  1.00  0.00     0.032 C 
HETATM    8  C   UNL     1     -34.689  38.951 -53.118  1.00  0.00     0.119 C 
HETATM    9  S   UNL     1     -33.808  38.001 -54.391  1.00  0.00    -0.141 SA
HETATM   10  C   UNL     1     -33.984  39.049 -55.861  1.00  0.00     0.136 C 
HETATM   11  C   UNL     1     -33.583  38.201 -57.071  1.00  0.00     0.031 C 
HETATM   12  C   UNL     1     -33.090  40.289 -55.772  1.00  0.00     0.236 C 
HETATM   13  O   UNL     1     -32.042  40.409 -56.410  1.00  0.00    -0.272 OA
HETATM   14  N   UNL     1     -33.526  41.363 -55.043  1.00  0.00    -0.311 N 
HETATM   15  H   UNL     1     -33.037  42.229 -55.246  1.00  0.00     0.170 HD
ENDROOT
BRANCH   8  16
HETATM   16  C   UNL     1     -33.835  39.066 -51.856  1.00  0.00    -0.039 A 
HETATM   17  C   UNL     1     -34.198  38.429 -50.651  1.00  0.00     0.021 A 
HETATM   18  C   UNL     1     -33.437  38.573 -49.479  1.00  0.00    -0.025 A 
HETATM   19  C   UNL     1     -32.274  39.371 -49.504  1.00  0.00    -0.026 A 
HETATM   20  C   UNL     1     -33.819  37.947 -48.281  1.00  0.00     0.012 A 
HETATM   21  C   UNL     1     -31.904  40.000 -50.701  1.00  0.00     0.013 A 
HETATM   22  C   UNL     1     -31.523  39.523 -48.327  1.00  0.00     0.012 A 
HETATM   23  C   UNL     1     -32.675  39.855 -51.859  1.00  0.00     0.009 A 
HETATM   24  C   UNL     1     -31.916  38.896 -47.143  1.00  0.00     0.001 A 
HETATM   25  C   UNL     1     -33.063  38.109 -47.120  1.00  0.00     0.001 A 
ENDBRANCH   8  16
TORSDOF 1
ENDMDL
