MODEL 1
REMARK VINA RESULT:      -8.8      0.000      0.000
REMARK  5 active torsions:
REMARK  status: ('A' for Active; 'I' for Inactive)
REMARK    1  A    between atoms: C_5  and  N_6 
REMARK    2  A    between atoms: C_7  and  N_8 
REMARK    3  A    between atoms: N_8  and  N_9 
REMARK    4  A    between atoms: N_13  and  C_14 
REMARK    5  A    between atoms: C_14  and  N_15 
ROOT
HETATM    1  N   UNL     1     -42.304  57.466 -54.938  1.00  0.00    -0.166 NA
HETATM    2  C   UNL     1     -42.030  56.474 -54.155  1.00  0.00     0.157 A 
HETATM    3  C   UNL     1     -41.985  54.978 -54.455  1.00  0.00     0.281 A 
HETATM    4  O   UNL     1     -42.177  54.504 -55.557  1.00  0.00    -0.265 OA
HETATM    5  N   UNL     1     -41.676  54.369 -53.252  1.00  0.00    -0.284 N 
HETATM    6  C   UNL     1     -41.698  56.617 -52.744  1.00  0.00     0.027 A 
HETATM    7  C   UNL     1     -41.486  55.335 -52.244  1.00  0.00     0.052 A 
HETATM    8  C   UNL     1     -41.141  55.158 -50.917  1.00  0.00     0.031 A 
HETATM    9  C   UNL     1     -41.021  56.297 -50.109  1.00  0.00     0.002 A 
HETATM   10  C   UNL     1     -41.239  57.587 -50.632  1.00  0.00     0.001 A 
HETATM   11  C   UNL     1     -41.583  57.758 -51.973  1.00  0.00     0.016 A 
ENDROOT
BRANCH   1  12
HETATM   12  N   UNL     1     -42.600  57.204 -56.246  1.00  0.00    -0.252 N 
HETATM   13  H   UNL     1     -42.598  56.234 -56.557  1.00  0.00     0.191 HD
BRANCH  12  14
HETATM   14  C   UNL     1     -42.624  58.216 -57.169  1.00  0.00     0.192 C 
HETATM   15  N   UNL     1     -43.035  57.956 -58.442  1.00  0.00    -0.332 N 
HETATM   16  H   UNL     1     -42.838  58.753 -59.036  1.00  0.00     0.168 HD
HETATM   17  S   UNL     1     -42.134  59.801 -56.873  1.00  0.00    -0.039 SA
BRANCH  15  18
HETATM   18  C   UNL     1     -43.771  56.916 -59.054  1.00  0.00     0.040 A 
HETATM   19  C   UNL     1     -45.076  57.213 -59.540  1.00  0.00    -0.029 A 
HETATM   20  C   UNL     1     -45.881  56.174 -60.071  1.00  0.00    -0.054 A 
HETATM   21  C   UNL     1     -45.621  58.622 -59.455  1.00  0.00     0.051 C 
HETATM   22  C   UNL     1     -47.291  56.411 -60.544  1.00  0.00     0.049 C 
HETATM   23  C   UNL     1     -45.360  54.877 -60.162  1.00  0.00     0.007 A 
HETATM   24  C   UNL     1     -44.083  54.593 -59.692  1.00  0.00     0.003 A 
HETATM   25  C   UNL     1     -43.304  55.600 -59.122  1.00  0.00     0.030 A 
ENDBRANCH  15  18
ENDBRANCH  12  14
ENDBRANCH   1  12
BRANCH   5  26
HETATM   26  C   UNL     1     -41.468  52.954 -53.092  1.00  0.00     0.405 C 
BRANCH  26  27
HETATM   27  N   UNL     1     -40.060  52.621 -53.315  1.00  0.00     0.106 N 
HETATM   28  C   UNL     1     -39.402  52.053 -52.128  1.00  0.00     0.274 C 
HETATM   29  C   UNL     1     -39.805  50.607 -51.817  1.00  0.00     0.030 C 
HETATM   30  C   UNL     1     -39.628  49.706 -53.033  1.00  0.00     0.003 C 
HETATM   31  C   UNL     1     -40.319  50.301 -54.255  1.00  0.00     0.030 C 
HETATM   32  C   UNL     1     -39.877  51.748 -54.482  1.00  0.00     0.274 C 
ENDBRANCH  26  27
ENDBRANCH   5  26
TORSDOF 5
ENDMDL
MODEL 2
REMARK VINA RESULT:      -8.3      1.150      1.828
REMARK  5 active torsions:
REMARK  status: ('A' for Active; 'I' for Inactive)
REMARK    1  A    between atoms: C_5  and  N_6 
REMARK    2  A    between atoms: C_7  and  N_8 
REMARK    3  A    between atoms: N_8  and  N_9 
REMARK    4  A    between atoms: N_13  and  C_14 
REMARK    5  A    between atoms: C_14  and  N_15 
ROOT
HETATM    1  N   UNL     1     -43.465  58.713 -55.296  1.00  0.00    -0.166 NA
HETATM    2  C   UNL     1     -42.713  57.968 -54.554  1.00  0.00     0.157 A 
HETATM    3  C   UNL     1     -42.080  56.612 -54.858  1.00  0.00     0.281 A 
HETATM    4  O   UNL     1     -42.181  56.043 -55.927  1.00  0.00    -0.265 OA
HETATM    5  N   UNL     1     -41.408  56.252 -53.704  1.00  0.00    -0.284 N 
HETATM    6  C   UNL     1     -42.310  58.310 -53.196  1.00  0.00     0.027 A 
HETATM    7  C   UNL     1     -41.525  57.261 -52.727  1.00  0.00     0.052 A 
HETATM    8  C   UNL     1     -40.988  57.314 -51.456  1.00  0.00     0.031 A 
HETATM    9  C   UNL     1     -41.263  58.441 -50.669  1.00  0.00     0.002 A 
HETATM   10  C   UNL     1     -42.060  59.494 -51.160  1.00  0.00     0.001 A 
HETATM   11  C   UNL     1     -42.596  59.435 -52.446  1.00  0.00     0.016 A 
ENDROOT
BRANCH   1  12
HETATM   12  N   UNL     1     -43.772  58.284 -56.556  1.00  0.00    -0.252 N 
HETATM   13  H   UNL     1     -44.295  57.415 -56.657  1.00  0.00     0.191 HD
BRANCH  12  14
HETATM   14  C   UNL     1     -43.165  58.844 -57.649  1.00  0.00     0.192 C 
HETATM   15  N   UNL     1     -43.151  58.168 -58.832  1.00  0.00    -0.332 N 
HETATM   16  H   UNL     1     -42.530  58.630 -59.485  1.00  0.00     0.168 HD
HETATM   17  S   UNL     1     -42.369  60.329 -57.652  1.00  0.00    -0.039 SA
BRANCH  15  18
HETATM   18  C   UNL     1     -43.892  57.089 -59.367  1.00  0.00     0.040 A 
HETATM   19  C   UNL     1     -45.154  57.371 -59.963  1.00  0.00    -0.029 A 
HETATM   20  C   UNL     1     -45.968  56.305 -60.421  1.00  0.00    -0.054 A 
HETATM   21  C   UNL     1     -45.646  58.798 -60.072  1.00  0.00     0.051 C 
HETATM   22  C   UNL     1     -47.337  56.532 -61.004  1.00  0.00     0.049 C 
HETATM   23  C   UNL     1     -45.494  54.989 -60.332  1.00  0.00     0.007 A 
HETATM   24  C   UNL     1     -44.259  54.720 -59.756  1.00  0.00     0.003 A 
HETATM   25  C   UNL     1     -43.474  55.759 -59.257  1.00  0.00     0.030 A 
ENDBRANCH  15  18
ENDBRANCH  12  14
ENDBRANCH   1  12
BRANCH   5  26
HETATM   26  C   UNL     1     -40.610  55.061 -53.572  1.00  0.00     0.405 C 
BRANCH  26  27
HETATM   27  N   UNL     1     -41.448  53.933 -53.162  1.00  0.00     0.106 N 
HETATM   28  C   UNL     1     -41.360  52.782 -54.074  1.00  0.00     0.274 C 
HETATM   29  C   UNL     1     -40.053  51.989 -53.963  1.00  0.00     0.030 C 
HETATM   30  C   UNL     1     -39.772  51.577 -52.522  1.00  0.00     0.003 C 
HETATM   31  C   UNL     1     -39.860  52.779 -51.587  1.00  0.00     0.030 C 
HETATM   32  C   UNL     1     -41.183  53.523 -51.776  1.00  0.00     0.274 C 
ENDBRANCH  26  27
ENDBRANCH   5  26
TORSDOF 5
ENDMDL
MODEL 3
REMARK VINA RESULT:      -8.2      2.916      7.638
REMARK  5 active torsions:
REMARK  status: ('A' for Active; 'I' for Inactive)
REMARK    1  A    between atoms: C_5  and  N_6 
REMARK    2  A    between atoms: C_7  and  N_8 
REMARK    3  A    between atoms: N_8  and  N_9 
REMARK    4  A    between atoms: N_13  and  C_14 
REMARK    5  A    between atoms: C_14  and  N_15 
ROOT
HETATM    1  N   UNL     1     -41.878  56.135 -50.285  1.00  0.00    -0.166 NA
HETATM    2  C   UNL     1     -42.373  56.845 -51.246  1.00  0.00     0.157 A 
HETATM    3  C   UNL     1     -43.039  56.399 -52.546  1.00  0.00     0.281 A 
HETATM    4  O   UNL     1     -43.234  55.237 -52.840  1.00  0.00    -0.265 OA
HETATM    5  N   UNL     1     -43.347  57.566 -53.221  1.00  0.00    -0.284 N 
HETATM    6  C   UNL     1     -42.380  58.302 -51.264  1.00  0.00     0.027 A 
HETATM    7  C   UNL     1     -42.978  58.692 -52.459  1.00  0.00     0.052 A 
HETATM    8  C   UNL     1     -43.132  60.034 -52.749  1.00  0.00     0.031 A 
HETATM    9  C   UNL     1     -42.667  60.969 -51.814  1.00  0.00     0.002 A 
HETATM   10  C   UNL     1     -42.064  60.556 -50.610  1.00  0.00     0.001 A 
HETATM   11  C   UNL     1     -41.915  59.200 -50.322  1.00  0.00     0.016 A 
ENDROOT
BRANCH   1  12
HETATM   12  N   UNL     1     -41.934  54.773 -50.383  1.00  0.00    -0.252 N 
HETATM   13  H   UNL     1     -42.814  54.344 -50.665  1.00  0.00     0.191 HD
BRANCH  12  14
HETATM   14  C   UNL     1     -40.935  53.997 -49.857  1.00  0.00     0.192 C 
HETATM   15  N   UNL     1     -40.354  53.034 -50.626  1.00  0.00    -0.332 N 
HETATM   16  H   UNL     1     -39.763  52.445 -50.052  1.00  0.00     0.168 HD
HETATM   17  S   UNL     1     -40.368  54.102 -48.274  1.00  0.00    -0.039 SA
BRANCH  15  18
HETATM   18  C   UNL     1     -40.292  52.778 -52.015  1.00  0.00     0.040 A 
HETATM   19  C   UNL     1     -39.945  51.464 -52.440  1.00  0.00    -0.029 A 
HETATM   20  C   UNL     1     -39.777  51.194 -53.822  1.00  0.00    -0.054 A 
HETATM   21  C   UNL     1     -39.717  50.367 -51.423  1.00  0.00     0.051 C 
HETATM   22  C   UNL     1     -39.353  49.842 -54.331  1.00  0.00     0.049 C 
HETATM   23  C   UNL     1     -40.009  52.212 -54.755  1.00  0.00     0.007 A 
HETATM   24  C   UNL     1     -40.353  53.491 -54.336  1.00  0.00     0.003 A 
HETATM   25  C   UNL     1     -40.471  53.778 -52.976  1.00  0.00     0.030 A 
ENDBRANCH  15  18
ENDBRANCH  12  14
ENDBRANCH   1  12
BRANCH   5  26
HETATM   26  C   UNL     1     -44.051  57.612 -54.477  1.00  0.00     0.405 C 
BRANCH  26  27
HETATM   27  N   UNL     1     -43.133  57.329 -55.582  1.00  0.00     0.106 N 
HETATM   28  C   UNL     1     -43.807  56.792 -56.774  1.00  0.00     0.274 C 
HETATM   29  C   UNL     1     -44.609  57.831 -57.565  1.00  0.00     0.030 C 
HETATM   30  C   UNL     1     -43.757  59.048 -57.910  1.00  0.00     0.003 C 
HETATM   31  C   UNL     1     -43.069  59.599 -56.666  1.00  0.00     0.030 C 
HETATM   32  C   UNL     1     -42.310  58.495 -55.927  1.00  0.00     0.274 C 
ENDBRANCH  26  27
ENDBRANCH   5  26
TORSDOF 5
ENDMDL
MODEL 4
REMARK VINA RESULT:      -8.1      2.548      7.710
REMARK  5 active torsions:
REMARK  status: ('A' for Active; 'I' for Inactive)
REMARK    1  A    between atoms: C_5  and  N_6 
REMARK    2  A    between atoms: C_7  and  N_8 
REMARK    3  A    between atoms: N_8  and  N_9 
REMARK    4  A    between atoms: N_13  and  C_14 
REMARK    5  A    between atoms: C_14  and  N_15 
ROOT
HETATM    1  N   UNL     1     -43.429  56.822 -52.517  1.00  0.00    -0.166 NA
HETATM    2  C   UNL     1     -43.395  57.545 -53.589  1.00  0.00     0.157 A 
HETATM    3  C   UNL     1     -42.560  57.374 -54.855  1.00  0.00     0.281 A 
HETATM    4  O   UNL     1     -41.797  56.447 -55.041  1.00  0.00    -0.265 OA
HETATM    5  N   UNL     1     -42.891  58.447 -55.663  1.00  0.00    -0.284 N 
HETATM    6  C   UNL     1     -44.202  58.742 -53.791  1.00  0.00     0.027 A 
HETATM    7  C   UNL     1     -43.875  59.245 -55.047  1.00  0.00     0.052 A 
HETATM    8  C   UNL     1     -44.498  60.385 -55.518  1.00  0.00     0.031 A 
HETATM    9  C   UNL     1     -45.449  61.006 -54.697  1.00  0.00     0.002 A 
HETATM   10  C   UNL     1     -45.767  60.482 -53.428  1.00  0.00     0.001 A 
HETATM   11  C   UNL     1     -45.137  59.329 -52.960  1.00  0.00     0.016 A 
ENDROOT
BRANCH   1  12
HETATM   12  N   UNL     1     -42.625  55.719 -52.447  1.00  0.00    -0.252 N 
HETATM   13  H   UNL     1     -42.933  54.866 -52.912  1.00  0.00     0.191 HD
BRANCH  12  14
HETATM   14  C   UNL     1     -41.584  55.673 -51.557  1.00  0.00     0.192 C 
HETATM   15  N   UNL     1     -40.787  54.569 -51.510  1.00  0.00    -0.332 N 
HETATM   16  H   UNL     1     -40.180  54.618 -50.701  1.00  0.00     0.168 HD
HETATM   17  S   UNL     1     -41.213  56.885 -50.447  1.00  0.00    -0.039 SA
BRANCH  15  18
HETATM   18  C   UNL     1     -40.538  53.487 -52.385  1.00  0.00     0.040 A 
HETATM   19  C   UNL     1     -40.249  52.215 -51.815  1.00  0.00    -0.029 A 
HETATM   20  C   UNL     1     -39.899  51.131 -52.658  1.00  0.00    -0.054 A 
HETATM   21  C   UNL     1     -40.276  52.027 -50.314  1.00  0.00     0.051 C 
HETATM   22  C   UNL     1     -39.523  49.778 -52.113  1.00  0.00     0.049 C 
HETATM   23  C   UNL     1     -39.895  51.311 -54.047  1.00  0.00     0.007 A 
HETATM   24  C   UNL     1     -40.185  52.553 -54.599  1.00  0.00     0.003 A 
HETATM   25  C   UNL     1     -40.481  53.638 -53.774  1.00  0.00     0.030 A 
ENDBRANCH  15  18
ENDBRANCH  12  14
ENDBRANCH   1  12
BRANCH   5  26
HETATM   26  C   UNL     1     -42.379  58.644 -56.994  1.00  0.00     0.405 C 
BRANCH  26  27
HETATM   27  N   UNL     1     -43.431  58.396 -57.983  1.00  0.00     0.106 N 
HETATM   28  C   UNL     1     -43.041  58.770 -59.351  1.00  0.00     0.274 C 
HETATM   29  C   UNL     1     -42.048  57.806 -60.009  1.00  0.00     0.030 C 
HETATM   30  C   UNL     1     -42.547  56.366 -59.947  1.00  0.00     0.003 C 
HETATM   31  C   UNL     1     -42.941  55.989 -58.524  1.00  0.00     0.030 C 
HETATM   32  C   UNL     1     -43.916  57.011 -57.937  1.00  0.00     0.274 C 
ENDBRANCH  26  27
ENDBRANCH   5  26
TORSDOF 5
ENDMDL
MODEL 5
REMARK VINA RESULT:      -8.0      2.658      6.537
REMARK  5 active torsions:
REMARK  status: ('A' for Active; 'I' for Inactive)
REMARK    1  A    between atoms: C_5  and  N_6 
REMARK    2  A    between atoms: C_7  and  N_8 
REMARK    3  A    between atoms: N_8  and  N_9 
REMARK    4  A    between atoms: N_13  and  C_14 
REMARK    5  A    between atoms: C_14  and  N_15 
ROOT
HETATM    1  N   UNL     1     -45.094  59.380 -55.691  1.00  0.00    -0.166 NA
HETATM    2  C   UNL     1     -44.540  58.217 -55.798  1.00  0.00     0.157 A 
HETATM    3  C   UNL     1     -44.228  57.181 -54.720  1.00  0.00     0.281 A 
HETATM    4  O   UNL     1     -44.520  57.317 -53.548  1.00  0.00    -0.265 OA
HETATM    5  N   UNL     1     -43.602  56.139 -55.380  1.00  0.00    -0.284 N 
HETATM    6  C   UNL     1     -44.074  57.648 -57.056  1.00  0.00     0.027 A 
HETATM    7  C   UNL     1     -43.527  56.402 -56.762  1.00  0.00     0.052 A 
HETATM    8  C   UNL     1     -43.009  55.618 -57.775  1.00  0.00     0.031 A 
HETATM    9  C   UNL     1     -43.048  56.119 -59.083  1.00  0.00     0.002 A 
HETATM   10  C   UNL     1     -43.606  57.382 -59.363  1.00  0.00     0.001 A 
HETATM   11  C   UNL     1     -44.131  58.166 -58.336  1.00  0.00     0.016 A 
ENDROOT
BRANCH   1  12
HETATM   12  N   UNL     1     -45.492  59.803 -54.454  1.00  0.00    -0.252 N 
HETATM   13  H   UNL     1     -46.204  59.263 -53.964  1.00  0.00     0.191 HD
BRANCH  12  14
HETATM   14  C   UNL     1     -45.155  61.053 -54.005  1.00  0.00     0.192 C 
HETATM   15  N   UNL     1     -44.056  61.212 -53.216  1.00  0.00    -0.332 N 
HETATM   16  H   UNL     1     -44.039  62.151 -52.835  1.00  0.00     0.168 HD
HETATM   17  S   UNL     1     -46.033  62.457 -54.320  1.00  0.00    -0.039 SA
BRANCH  15  18
HETATM   18  C   UNL     1     -42.913  60.429 -52.938  1.00  0.00     0.040 A 
HETATM   19  C   UNL     1     -42.542  60.241 -51.577  1.00  0.00    -0.029 A 
HETATM   20  C   UNL     1     -41.348  59.545 -51.263  1.00  0.00    -0.054 A 
HETATM   21  C   UNL     1     -43.396  60.813 -50.466  1.00  0.00     0.051 C 
HETATM   22  C   UNL     1     -40.870  59.365 -49.847  1.00  0.00     0.049 C 
HETATM   23  C   UNL     1     -40.575  59.003 -52.298  1.00  0.00     0.007 A 
HETATM   24  C   UNL     1     -40.944  59.184 -53.625  1.00  0.00     0.003 A 
HETATM   25  C   UNL     1     -42.091  59.911 -53.944  1.00  0.00     0.030 A 
ENDBRANCH  15  18
ENDBRANCH  12  14
ENDBRANCH   1  12
BRANCH   5  26
HETATM   26  C   UNL     1     -43.191  54.913 -54.747  1.00  0.00     0.405 C 
BRANCH  26  27
HETATM   27  N   UNL     1     -42.037  55.153 -53.880  1.00  0.00     0.106 N 
HETATM   28  C   UNL     1     -41.837  54.098 -52.874  1.00  0.00     0.274 C 
HETATM   29  C   UNL     1     -41.275  52.789 -53.438  1.00  0.00     0.030 C 
HETATM   30  C   UNL     1     -40.006  53.030 -54.248  1.00  0.00     0.003 C 
HETATM   31  C   UNL     1     -40.228  54.120 -55.291  1.00  0.00     0.030 C 
HETATM   32  C   UNL     1     -40.807  55.382 -54.648  1.00  0.00     0.274 C 
ENDBRANCH  26  27
ENDBRANCH   5  26
TORSDOF 5
ENDMDL
MODEL 6
REMARK VINA RESULT:      -8.0     15.293     17.632
REMARK  5 active torsions:
REMARK  status: ('A' for Active; 'I' for Inactive)
REMARK    1  A    between atoms: C_5  and  N_6 
REMARK    2  A    between atoms: C_7  and  N_8 
REMARK    3  A    between atoms: N_8  and  N_9 
REMARK    4  A    between atoms: N_13  and  C_14 
REMARK    5  A    between atoms: C_14  and  N_15 
ROOT
HETATM    1  N   UNL     1     -36.535  40.075 -52.038  1.00  0.00    -0.166 NA
HETATM    2  C   UNL     1     -35.377  39.633 -52.406  1.00  0.00     0.157 A 
HETATM    3  C   UNL     1     -34.973  38.899 -53.682  1.00  0.00     0.281 A 
HETATM    4  O   UNL     1     -35.739  38.658 -54.594  1.00  0.00    -0.265 OA
HETATM    5  N   UNL     1     -33.624  38.630 -53.541  1.00  0.00    -0.284 N 
HETATM    6  C   UNL     1     -34.165  39.760 -51.608  1.00  0.00     0.027 A 
HETATM    7  C   UNL     1     -33.139  39.154 -52.327  1.00  0.00     0.052 A 
HETATM    8  C   UNL     1     -31.856  39.130 -51.814  1.00  0.00     0.031 A 
HETATM    9  C   UNL     1     -31.633  39.723 -50.564  1.00  0.00     0.002 A 
HETATM   10  C   UNL     1     -32.684  40.332 -49.850  1.00  0.00     0.001 A 
HETATM   11  C   UNL     1     -33.976  40.356 -50.375  1.00  0.00     0.016 A 
ENDROOT
BRANCH   1  12
HETATM   12  N   UNL     1     -37.600  39.897 -52.877  1.00  0.00    -0.252 N 
HETATM   13  H   UNL     1     -37.679  39.012 -53.376  1.00  0.00     0.191 HD
BRANCH  12  14
HETATM   14  C   UNL     1     -38.378  40.961 -53.249  1.00  0.00     0.192 C 
HETATM   15  N   UNL     1     -37.912  41.844 -54.177  1.00  0.00    -0.332 N 
HETATM   16  H   UNL     1     -38.521  42.652 -54.218  1.00  0.00     0.168 HD
HETATM   17  S   UNL     1     -39.896  41.313 -52.610  1.00  0.00    -0.039 SA
BRANCH  15  18
HETATM   18  C   UNL     1     -36.887  41.812 -55.150  1.00  0.00     0.040 A 
HETATM   19  C   UNL     1     -37.188  41.253 -56.424  1.00  0.00    -0.029 A 
HETATM   20  C   UNL     1     -36.161  41.114 -57.391  1.00  0.00    -0.054 A 
HETATM   21  C   UNL     1     -38.588  40.770 -56.736  1.00  0.00     0.051 C 
HETATM   22  C   UNL     1     -36.401  40.476 -58.733  1.00  0.00     0.049 C 
HETATM   23  C   UNL     1     -34.873  41.582 -57.099  1.00  0.00     0.007 A 
HETATM   24  C   UNL     1     -34.586  42.133 -55.856  1.00  0.00     0.003 A 
HETATM   25  C   UNL     1     -35.579  42.226 -54.881  1.00  0.00     0.030 A 
ENDBRANCH  15  18
ENDBRANCH  12  14
ENDBRANCH   1  12
BRANCH   5  26
HETATM   26  C   UNL     1     -32.815  38.001 -54.553  1.00  0.00     0.405 C 
BRANCH  26  27
HETATM   27  N   UNL     1     -32.505  38.956 -55.618  1.00  0.00     0.106 N 
HETATM   28  C   UNL     1     -31.144  39.507 -55.526  1.00  0.00     0.274 C 
HETATM   29  C   UNL     1     -30.039  38.527 -55.937  1.00  0.00     0.030 C 
HETATM   30  C   UNL     1     -30.305  37.934 -57.316  1.00  0.00     0.003 C 
HETATM   31  C   UNL     1     -31.716  37.361 -57.397  1.00  0.00     0.030 C 
HETATM   32  C   UNL     1     -32.752  38.394 -56.953  1.00  0.00     0.274 C 
ENDBRANCH  26  27
ENDBRANCH   5  26
TORSDOF 5
ENDMDL
MODEL 7
REMARK VINA RESULT:      -7.9      1.855      8.084
REMARK  5 active torsions:
REMARK  status: ('A' for Active; 'I' for Inactive)
REMARK    1  A    between atoms: C_5  and  N_6 
REMARK    2  A    between atoms: C_7  and  N_8 
REMARK    3  A    between atoms: N_8  and  N_9 
REMARK    4  A    between atoms: N_13  and  C_14 
REMARK    5  A    between atoms: C_14  and  N_15 
ROOT
HETATM    1  N   UNL     1     -41.872  58.292 -54.659  1.00  0.00    -0.166 NA
HETATM    2  C   UNL     1     -42.141  58.154 -55.916  1.00  0.00     0.157 A 
HETATM    3  C   UNL     1     -42.453  56.890 -56.714  1.00  0.00     0.281 A 
HETATM    4  O   UNL     1     -42.531  55.782 -56.220  1.00  0.00    -0.265 OA
HETATM    5  N   UNL     1     -42.627  57.311 -58.019  1.00  0.00    -0.284 N 
HETATM    6  C   UNL     1     -42.193  59.258 -56.865  1.00  0.00     0.027 A 
HETATM    7  C   UNL     1     -42.494  58.711 -58.110  1.00  0.00     0.052 A 
HETATM    8  C   UNL     1     -42.619  59.532 -59.214  1.00  0.00     0.031 A 
HETATM    9  C   UNL     1     -42.428  60.910 -59.037  1.00  0.00     0.002 A 
HETATM   10  C   UNL     1     -42.124  61.446 -57.770  1.00  0.00     0.001 A 
HETATM   11  C   UNL     1     -42.003  60.611 -56.659  1.00  0.00     0.016 A 
ENDROOT
BRANCH   1  12
HETATM   12  N   UNL     1     -41.855  57.178 -53.867  1.00  0.00    -0.252 N 
HETATM   13  H   UNL     1     -41.136  56.476 -54.037  1.00  0.00     0.191 HD
BRANCH  12  14
HETATM   14  C   UNL     1     -42.923  56.881 -53.063  1.00  0.00     0.192 C 
HETATM   15  N   UNL     1     -42.822  55.869 -52.156  1.00  0.00    -0.332 N 
HETATM   16  H   UNL     1     -43.734  55.666 -51.764  1.00  0.00     0.168 HD
HETATM   17  S   UNL     1     -44.419  57.653 -53.125  1.00  0.00    -0.039 SA
BRANCH  15  18
HETATM   18  C   UNL     1     -41.744  55.168 -51.568  1.00  0.00     0.040 A 
HETATM   19  C   UNL     1     -41.273  53.992 -52.218  1.00  0.00    -0.029 A 
HETATM   20  C   UNL     1     -40.261  53.210 -51.607  1.00  0.00    -0.054 A 
HETATM   21  C   UNL     1     -41.876  53.554 -53.535  1.00  0.00     0.051 C 
HETATM   22  C   UNL     1     -39.763  51.924 -52.214  1.00  0.00     0.049 C 
HETATM   23  C   UNL     1     -39.697  53.635 -50.398  1.00  0.00     0.007 A 
HETATM   24  C   UNL     1     -40.156  54.787 -49.770  1.00  0.00     0.003 A 
HETATM   25  C   UNL     1     -41.187  55.535 -50.339  1.00  0.00     0.030 A 
ENDBRANCH  15  18
ENDBRANCH  12  14
ENDBRANCH   1  12
BRANCH   5  26
HETATM   26  C   UNL     1     -43.004  56.444 -59.105  1.00  0.00     0.405 C 
BRANCH  26  27
HETATM   27  N   UNL     1     -44.291  55.808 -58.821  1.00  0.00     0.106 N 
HETATM   28  C   UNL     1     -45.428  56.740 -58.890  1.00  0.00     0.274 C 
HETATM   29  C   UNL     1     -45.823  57.147 -60.313  1.00  0.00     0.030 C 
HETATM   30  C   UNL     1     -46.052  55.927 -61.198  1.00  0.00     0.003 C 
HETATM   31  C   UNL     1     -44.866  54.972 -61.123  1.00  0.00     0.030 C 
HETATM   32  C   UNL     1     -44.527  54.634 -59.671  1.00  0.00     0.274 C 
ENDBRANCH  26  27
ENDBRANCH   5  26
TORSDOF 5
ENDMDL
MODEL 8
REMARK VINA RESULT:      -7.7      2.525      5.238
REMARK  5 active torsions:
REMARK  status: ('A' for Active; 'I' for Inactive)
REMARK    1  A    between atoms: C_5  and  N_6 
REMARK    2  A    between atoms: C_7  and  N_8 
REMARK    3  A    between atoms: N_8  and  N_9 
REMARK    4  A    between atoms: N_13  and  C_14 
REMARK    5  A    between atoms: C_14  and  N_15 
ROOT
HETATM    1  N   UNL     1     -42.962  55.425 -57.119  1.00  0.00    -0.166 NA
HETATM    2  C   UNL     1     -42.722  55.777 -55.898  1.00  0.00     0.157 A 
HETATM    3  C   UNL     1     -43.132  57.043 -55.149  1.00  0.00     0.281 A 
HETATM    4  O   UNL     1     -43.818  57.922 -55.632  1.00  0.00    -0.265 OA
HETATM    5  N   UNL     1     -42.581  56.919 -53.886  1.00  0.00    -0.284 N 
HETATM    6  C   UNL     1     -41.959  54.973 -54.953  1.00  0.00     0.027 A 
HETATM    7  C   UNL     1     -41.905  55.690 -53.760  1.00  0.00     0.052 A 
HETATM    8  C   UNL     1     -41.245  55.162 -52.666  1.00  0.00     0.031 A 
HETATM    9  C   UNL     1     -40.638  53.906 -52.804  1.00  0.00     0.002 A 
HETATM   10  C   UNL     1     -40.702  53.196 -54.018  1.00  0.00     0.001 A 
HETATM   11  C   UNL     1     -41.374  53.732 -55.117  1.00  0.00     0.016 A 
ENDROOT
BRANCH   1  12
HETATM   12  N   UNL     1     -43.694  56.266 -57.910  1.00  0.00    -0.252 N 
HETATM   13  H   UNL     1     -44.133  57.077 -57.477  1.00  0.00     0.191 HD
BRANCH  12  14
HETATM   14  C   UNL     1     -44.058  55.888 -59.175  1.00  0.00     0.192 C 
HETATM   15  N   UNL     1     -44.150  56.827 -60.158  1.00  0.00    -0.332 N 
HETATM   16  H   UNL     1     -44.586  56.425 -60.979  1.00  0.00     0.168 HD
HETATM   17  S   UNL     1     -44.457  54.316 -59.633  1.00  0.00    -0.039 SA
BRANCH  15  18
HETATM   18  C   UNL     1     -43.663  58.144 -60.320  1.00  0.00     0.040 A 
HETATM   19  C   UNL     1     -44.606  59.210 -60.350  1.00  0.00    -0.029 A 
HETATM   20  C   UNL     1     -44.165  60.532 -60.609  1.00  0.00    -0.054 A 
HETATM   21  C   UNL     1     -46.080  58.932 -60.146  1.00  0.00     0.051 C 
HETATM   22  C   UNL     1     -45.119  61.692 -60.713  1.00  0.00     0.049 C 
HETATM   23  C   UNL     1     -42.796  60.781 -60.777  1.00  0.00     0.007 A 
HETATM   24  C   UNL     1     -41.879  59.738 -60.741  1.00  0.00     0.003 A 
HETATM   25  C   UNL     1     -42.311  58.428 -60.537  1.00  0.00     0.030 A 
ENDBRANCH  15  18
ENDBRANCH  12  14
ENDBRANCH   1  12
BRANCH   5  26
HETATM   26  C   UNL     1     -42.777  57.869 -52.822  1.00  0.00     0.405 C 
BRANCH  26  27
HETATM   27  N   UNL     1     -41.888  59.018 -53.001  1.00  0.00     0.106 N 
HETATM   28  C   UNL     1     -42.344  60.222 -52.289  1.00  0.00     0.274 C 
HETATM   29  C   UNL     1     -42.145  60.169 -50.771  1.00  0.00     0.030 C 
HETATM   30  C   UNL     1     -40.704  59.824 -50.410  1.00  0.00     0.003 C 
HETATM   31  C   UNL     1     -40.245  58.572 -51.148  1.00  0.00     0.030 C 
HETATM   32  C   UNL     1     -40.497  58.700 -52.652  1.00  0.00     0.274 C 
ENDBRANCH  26  27
ENDBRANCH   5  26
TORSDOF 5
ENDMDL
MODEL 9
REMARK VINA RESULT:      -7.7      2.525      3.657
REMARK  5 active torsions:
REMARK  status: ('A' for Active; 'I' for Inactive)
REMARK    1  A    between atoms: C_5  and  N_6 
REMARK    2  A    between atoms: C_7  and  N_8 
REMARK    3  A    between atoms: N_8  and  N_9 
REMARK    4  A    between atoms: N_13  and  C_14 
REMARK    5  A    between atoms: C_14  and  N_15 
ROOT
HETATM    1  N   UNL     1     -42.691  57.427 -55.813  1.00  0.00    -0.166 NA
HETATM    2  C   UNL     1     -42.646  56.538 -54.875  1.00  0.00     0.157 A 
HETATM    3  C   UNL     1     -42.017  55.147 -54.878  1.00  0.00     0.281 A 
HETATM    4  O   UNL     1     -41.403  54.685 -55.820  1.00  0.00    -0.265 OA
HETATM    5  N   UNL     1     -42.293  54.615 -53.632  1.00  0.00    -0.284 N 
HETATM    6  C   UNL     1     -43.233  56.717 -53.554  1.00  0.00     0.027 A 
HETATM    7  C   UNL     1     -42.993  55.546 -52.840  1.00  0.00     0.052 A 
HETATM    8  C   UNL     1     -43.433  55.430 -51.535  1.00  0.00     0.031 A 
HETATM    9  C   UNL     1     -44.123  56.512 -50.972  1.00  0.00     0.002 A 
HETATM   10  C   UNL     1     -44.357  57.689 -51.710  1.00  0.00     0.001 A 
HETATM   11  C   UNL     1     -43.907  57.801 -53.025  1.00  0.00     0.016 A 
ENDROOT
BRANCH   1  12
HETATM   12  N   UNL     1     -42.099  57.142 -57.012  1.00  0.00    -0.252 N 
HETATM   13  H   UNL     1     -41.081  57.122 -57.056  1.00  0.00     0.191 HD
BRANCH  12  14
HETATM   14  C   UNL     1     -42.830  57.159 -58.170  1.00  0.00     0.192 C 
HETATM   15  N   UNL     1     -43.035  58.338 -58.821  1.00  0.00    -0.332 N 
HETATM   16  H   UNL     1     -43.724  58.212 -59.553  1.00  0.00     0.168 HD
HETATM   17  S   UNL     1     -43.561  55.809 -58.866  1.00  0.00    -0.039 SA
BRANCH  15  18
HETATM   18  C   UNL     1     -42.419  59.610 -58.787  1.00  0.00     0.040 A 
HETATM   19  C   UNL     1     -42.065  60.218 -60.024  1.00  0.00    -0.029 A 
HETATM   20  C   UNL     1     -41.358  61.446 -60.027  1.00  0.00    -0.054 A 
HETATM   21  C   UNL     1     -42.404  59.539 -61.334  1.00  0.00     0.051 C 
HETATM   22  C   UNL     1     -40.901  62.109 -61.300  1.00  0.00     0.049 C 
HETATM   23  C   UNL     1     -41.066  62.075 -58.810  1.00  0.00     0.007 A 
HETATM   24  C   UNL     1     -41.419  61.481 -57.604  1.00  0.00     0.003 A 
HETATM   25  C   UNL     1     -42.070  60.248 -57.592  1.00  0.00     0.030 A 
ENDBRANCH  15  18
ENDBRANCH  12  14
ENDBRANCH   1  12
BRANCH   5  26
HETATM   26  C   UNL     1     -41.824  53.331 -53.179  1.00  0.00     0.405 C 
BRANCH  26  27
HETATM   27  N   UNL     1     -40.380  53.374 -52.942  1.00  0.00     0.106 N 
HETATM   28  C   UNL     1     -40.024  53.340 -51.515  1.00  0.00     0.274 C 
HETATM   29  C   UNL     1     -40.198  51.968 -50.856  1.00  0.00     0.030 C 
HETATM   30  C   UNL     1     -39.470  50.878 -51.636  1.00  0.00     0.003 C 
HETATM   31  C   UNL     1     -39.851  50.920 -53.111  1.00  0.00     0.030 C 
HETATM   32  C   UNL     1     -39.667  52.326 -53.684  1.00  0.00     0.274 C 
ENDBRANCH  26  27
ENDBRANCH   5  26
TORSDOF 5
ENDMDL
MODEL 10
REMARK VINA RESULT:      -7.5      3.998      6.793
REMARK  5 active torsions:
REMARK  status: ('A' for Active; 'I' for Inactive)
REMARK    1  A    between atoms: C_5  and  N_6 
REMARK    2  A    between atoms: C_7  and  N_8 
REMARK    3  A    between atoms: N_8  and  N_9 
REMARK    4  A    between atoms: N_13  and  C_14 
REMARK    5  A    between atoms: C_14  and  N_15 
ROOT
HETATM    1  N   UNL     1     -43.562  58.452 -52.836  1.00  0.00    -0.166 NA
HETATM    2  C   UNL     1     -43.195  57.279 -53.239  1.00  0.00     0.157 A 
HETATM    3  C   UNL     1     -42.689  56.085 -52.433  1.00  0.00     0.281 A 
HETATM    4  O   UNL     1     -42.601  56.076 -51.221  1.00  0.00    -0.265 OA
HETATM    5  N   UNL     1     -42.406  55.104 -53.366  1.00  0.00    -0.284 N 
HETATM    6  C   UNL     1     -43.192  56.860 -54.634  1.00  0.00     0.027 A 
HETATM    7  C   UNL     1     -42.721  55.551 -54.665  1.00  0.00     0.052 A 
HETATM    8  C   UNL     1     -42.617  54.881 -55.869  1.00  0.00     0.031 A 
HETATM    9  C   UNL     1     -42.992  55.561 -57.036  1.00  0.00     0.002 A 
HETATM   10  C   UNL     1     -43.467  56.886 -56.986  1.00  0.00     0.001 A 
HETATM   11  C   UNL     1     -43.572  57.554 -55.767  1.00  0.00     0.016 A 
ENDROOT
BRANCH   1  12
HETATM   12  N   UNL     1     -43.523  58.726 -51.497  1.00  0.00    -0.252 N 
HETATM   13  H   UNL     1     -44.261  58.349 -50.905  1.00  0.00     0.191 HD
BRANCH  12  14
HETATM   14  C   UNL     1     -42.686  59.695 -51.010  1.00  0.00     0.192 C 
HETATM   15  N   UNL     1     -43.091  60.996 -51.008  1.00  0.00    -0.332 N 
HETATM   16  H   UNL     1     -42.310  61.599 -50.779  1.00  0.00     0.168 HD
HETATM   17  S   UNL     1     -41.128  59.418 -50.430  1.00  0.00    -0.039 SA
BRANCH  15  18
HETATM   18  C   UNL     1     -44.341  61.645 -51.115  1.00  0.00     0.040 A 
HETATM   19  C   UNL     1     -45.038  61.963 -49.915  1.00  0.00    -0.029 A 
HETATM   20  C   UNL     1     -46.337  62.526 -49.984  1.00  0.00    -0.054 A 
HETATM   21  C   UNL     1     -44.414  61.667 -48.568  1.00  0.00     0.051 C 
HETATM   22  C   UNL     1     -47.149  62.828 -48.752  1.00  0.00     0.049 C 
HETATM   23  C   UNL     1     -46.897  62.813 -51.236  1.00  0.00     0.007 A 
HETATM   24  C   UNL     1     -46.211  62.507 -52.404  1.00  0.00     0.003 A 
HETATM   25  C   UNL     1     -44.954  61.907 -52.345  1.00  0.00     0.030 A 
ENDBRANCH  15  18
ENDBRANCH  12  14
ENDBRANCH   1  12
BRANCH   5  26
HETATM   26  C   UNL     1     -41.962  53.776 -53.033  1.00  0.00     0.405 C 
BRANCH  26  27
HETATM   27  N   UNL     1     -40.499  53.709 -53.065  1.00  0.00     0.106 N 
HETATM   28  C   UNL     1     -39.911  53.249 -51.798  1.00  0.00     0.274 C 
HETATM   29  C   UNL     1     -40.079  51.749 -51.533  1.00  0.00     0.030 C 
HETATM   30  C   UNL     1     -39.583  50.917 -52.710  1.00  0.00     0.003 C 
HETATM   31  C   UNL     1     -40.204  51.398 -54.016  1.00  0.00     0.030 C 
HETATM   32  C   UNL     1     -40.008  52.905 -54.192  1.00  0.00     0.274 C 
ENDBRANCH  26  27
ENDBRANCH   5  26
TORSDOF 5
ENDMDL
