MODEL 1
REMARK VINA RESULT:      -8.6      0.000      0.000
REMARK  3 active torsions:
REMARK  status: ('A' for Active; 'I' for Inactive)
REMARK    1  A    between atoms: C_6  and  N_7 
REMARK       I    between atoms: N_7  and  C_8 
REMARK    2  A    between atoms: C_8  and  C_9 
REMARK    3  A    between atoms: C_9  and  C_10 
ROOT
HETATM    1  C   UNL     1     -42.951  55.827 -56.908  1.00  0.00     0.286 C 
HETATM    2  N   UNL     1     -42.327  55.876 -58.297  1.00  0.00    -0.056 N 
HETATM    3  H   UNL     1     -41.660  56.680 -58.271  1.00  0.00     0.278 HD
HETATM    4  H   UNL     1     -41.746  55.049 -58.473  1.00  0.00     0.278 HD
HETATM    5  C   UNL     1     -43.297  56.114 -59.420  1.00  0.00     0.209 C 
HETATM    6  C   UNL     1     -44.165  57.360 -59.107  1.00  0.00     0.115 C 
HETATM    7  N   UNL     1     -44.706  57.364 -57.747  1.00  0.00    -0.353 N 
HETATM    8  C   UNL     1     -43.973  56.951 -56.659  1.00  0.00     0.249 C 
HETATM    9  O   UNL     1     -44.225  57.385 -55.541  1.00  0.00    -0.271 OA
HETATM   10  C   UNL     1     -44.110  54.844 -59.674  1.00  0.00     0.035 C 
HETATM   11  C   UNL     1     -45.174  55.077 -60.742  1.00  0.00     0.002 C 
HETATM   12  C   UNL     1     -46.082  56.244 -60.368  1.00  0.00     0.002 C 
HETATM   13  C   UNL     1     -45.284  57.528 -60.143  1.00  0.00     0.027 C 
HETATM   14  H   UNL     1     -45.346  58.119 -57.505  1.00  0.00     0.163 HD
ENDROOT
BRANCH   1  15
HETATM   15  C   UNL     1     -41.887  55.772 -55.806  1.00  0.00     0.146 C 
BRANCH  15  16
HETATM   16  C   UNL     1     -42.046  54.556 -54.917  1.00  0.00     0.224 C 
HETATM   17  N   UNL     1     -40.848  53.937 -54.655  1.00  0.00    -0.327 N 
HETATM   18  H   UNL     1     -40.129  54.051 -55.364  1.00  0.00     0.169 HD
HETATM   19  O   UNL     1     -43.157  54.284 -54.469  1.00  0.00    -0.273 OA
BRANCH  17  20
HETATM   20  C   UNL     1     -40.518  52.995 -53.650  1.00  0.00     0.040 A 
HETATM   21  C   UNL     1     -40.492  53.215 -52.261  1.00  0.00    -0.035 A 
HETATM   22  C   UNL     1     -40.108  52.151 -51.413  1.00  0.00     0.015 A 
HETATM   23  C   UNL     1     -40.794  54.519 -51.581  1.00  0.00     0.050 C 
HETATM   24  C   UNL     1     -39.715  50.905 -51.911  1.00  0.00    -0.061 A 
HETATM   25  C   UNL     1     -39.242  49.825 -50.984  1.00  0.00     0.048 C 
HETATM   26  C   UNL     1     -39.695  50.715 -53.288  1.00  0.00     0.009 A 
HETATM   27  C   UNL     1     -40.093  51.746 -54.142  1.00  0.00     0.030 A 
ENDBRANCH  17  20
ENDBRANCH  15  16
ENDBRANCH   1  15
TORSDOF 3
ENDMDL
MODEL 2
REMARK VINA RESULT:      -8.5      4.067      5.602
REMARK  3 active torsions:
REMARK  status: ('A' for Active; 'I' for Inactive)
REMARK    1  A    between atoms: C_6  and  N_7 
REMARK       I    between atoms: N_7  and  C_8 
REMARK    2  A    between atoms: C_8  and  C_9 
REMARK    3  A    between atoms: C_9  and  C_10 
ROOT
HETATM    1  C   UNL     1     -42.389  57.513 -50.881  1.00  0.00     0.286 C 
HETATM    2  N   UNL     1     -43.811  56.965 -50.887  1.00  0.00    -0.056 N 
HETATM    3  H   UNL     1     -43.750  56.047 -51.382  1.00  0.00     0.278 HD
HETATM    4  H   UNL     1     -44.126  56.739 -49.937  1.00  0.00     0.278 HD
HETATM    5  C   UNL     1     -44.816  57.818 -51.609  1.00  0.00     0.209 C 
HETATM    6  C   UNL     1     -44.295  58.151 -53.030  1.00  0.00     0.115 C 
HETATM    7  N   UNL     1     -42.903  58.604 -53.047  1.00  0.00    -0.353 N 
HETATM    8  C   UNL     1     -41.932  58.037 -52.254  1.00  0.00     0.249 C 
HETATM    9  O   UNL     1     -40.757  58.070 -52.596  1.00  0.00    -0.271 OA
HETATM   10  C   UNL     1     -45.143  59.052 -50.767  1.00  0.00     0.035 C 
HETATM   11  C   UNL     1     -46.087  59.991 -51.511  1.00  0.00     0.002 C 
HETATM   12  C   UNL     1     -45.511  60.388 -52.866  1.00  0.00     0.002 C 
HETATM   13  C   UNL     1     -45.210  59.164 -53.730  1.00  0.00     0.027 C 
HETATM   14  H   UNL     1     -42.526  58.909 -53.943  1.00  0.00     0.163 HD
ENDROOT
BRANCH   1  15
HETATM   15  C   UNL     1     -41.392  56.507 -50.296  1.00  0.00     0.146 C 
BRANCH  15  16
HETATM   16  C   UNL     1     -41.607  55.108 -50.833  1.00  0.00     0.224 C 
HETATM   17  N   UNL     1     -40.921  54.882 -52.001  1.00  0.00    -0.327 N 
HETATM   18  H   UNL     1     -40.740  55.703 -52.571  1.00  0.00     0.169 HD
HETATM   19  O   UNL     1     -42.278  54.313 -50.178  1.00  0.00    -0.273 OA
BRANCH  17  20
HETATM   20  C   UNL     1     -40.603  53.659 -52.640  1.00  0.00     0.040 A 
HETATM   21  C   UNL     1     -41.040  53.227 -53.905  1.00  0.00    -0.035 A 
HETATM   22  C   UNL     1     -40.635  51.953 -54.365  1.00  0.00     0.015 A 
HETATM   23  C   UNL     1     -41.957  53.991 -54.815  1.00  0.00     0.050 C 
HETATM   24  C   UNL     1     -39.851  51.095 -53.587  1.00  0.00    -0.061 A 
HETATM   25  C   UNL     1     -39.505  49.720 -54.078  1.00  0.00     0.048 C 
HETATM   26  C   UNL     1     -39.468  51.511 -52.317  1.00  0.00     0.009 A 
HETATM   27  C   UNL     1     -39.838  52.775 -51.854  1.00  0.00     0.030 A 
ENDBRANCH  17  20
ENDBRANCH  15  16
ENDBRANCH   1  15
TORSDOF 3
ENDMDL
MODEL 3
REMARK VINA RESULT:      -8.4      4.492      5.916
REMARK  3 active torsions:
REMARK  status: ('A' for Active; 'I' for Inactive)
REMARK    1  A    between atoms: C_6  and  N_7 
REMARK       I    between atoms: N_7  and  C_8 
REMARK    2  A    between atoms: C_8  and  C_9 
REMARK    3  A    between atoms: C_9  and  C_10 
ROOT
HETATM    1  C   UNL     1     -41.734  56.720 -50.611  1.00  0.00     0.286 C 
HETATM    2  N   UNL     1     -41.382  58.174 -50.318  1.00  0.00    -0.056 N 
HETATM    3  H   UNL     1     -41.749  58.357 -49.357  1.00  0.00     0.278 HD
HETATM    4  H   UNL     1     -40.366  58.303 -50.247  1.00  0.00     0.278 HD
HETATM    5  C   UNL     1     -41.998  59.176 -51.252  1.00  0.00     0.209 C 
HETATM    6  C   UNL     1     -43.526  58.936 -51.344  1.00  0.00     0.115 C 
HETATM    7  N   UNL     1     -43.882  57.530 -51.547  1.00  0.00    -0.353 N 
HETATM    8  C   UNL     1     -43.229  56.503 -50.906  1.00  0.00     0.249 C 
HETATM    9  O   UNL     1     -43.799  55.438 -50.701  1.00  0.00    -0.271 OA
HETATM   10  C   UNL     1     -41.283  59.127 -52.603  1.00  0.00     0.035 C 
HETATM   11  C   UNL     1     -41.946  60.063 -53.609  1.00  0.00     0.002 C 
HETATM   12  C   UNL     1     -43.429  59.745 -53.762  1.00  0.00     0.002 C 
HETATM   13  C   UNL     1     -44.162  59.823 -52.422  1.00  0.00     0.027 C 
HETATM   14  H   UNL     1     -44.867  57.317 -51.690  1.00  0.00     0.163 HD
ENDROOT
BRANCH   1  15
HETATM   15  C   UNL     1     -41.227  55.778 -49.513  1.00  0.00     0.146 C 
BRANCH  15  16
HETATM   16  C   UNL     1     -40.453  54.605 -50.077  1.00  0.00     0.224 C 
HETATM   17  N   UNL     1     -41.164  53.913 -51.027  1.00  0.00    -0.327 N 
HETATM   18  H   UNL     1     -42.175  53.954 -50.935  1.00  0.00     0.169 HD
HETATM   19  O   UNL     1     -39.292  54.426 -49.715  1.00  0.00    -0.273 OA
BRANCH  17  20
HETATM   20  C   UNL     1     -40.713  52.983 -51.995  1.00  0.00     0.040 A 
HETATM   21  C   UNL     1     -40.994  52.994 -53.373  1.00  0.00    -0.035 A 
HETATM   22  C   UNL     1     -40.472  51.958 -54.181  1.00  0.00     0.015 A 
HETATM   23  C   UNL     1     -41.856  54.002 -54.077  1.00  0.00     0.050 C 
HETATM   24  C   UNL     1     -39.723  50.903 -53.648  1.00  0.00    -0.061 A 
HETATM   25  C   UNL     1     -39.251  49.782 -54.525  1.00  0.00     0.048 C 
HETATM   26  C   UNL     1     -39.496  50.875 -52.277  1.00  0.00     0.009 A 
HETATM   27  C   UNL     1     -39.983  51.902 -51.465  1.00  0.00     0.030 A 
ENDBRANCH  17  20
ENDBRANCH  15  16
ENDBRANCH   1  15
TORSDOF 3
ENDMDL
MODEL 4
REMARK VINA RESULT:      -8.3      1.467      1.669
REMARK  3 active torsions:
REMARK  status: ('A' for Active; 'I' for Inactive)
REMARK    1  A    between atoms: C_6  and  N_7 
REMARK       I    between atoms: N_7  and  C_8 
REMARK    2  A    between atoms: C_8  and  C_9 
REMARK    3  A    between atoms: C_9  and  C_10 
ROOT
HETATM    1  C   UNL     1     -43.358  56.666 -55.444  1.00  0.00     0.286 C 
HETATM    2  N   UNL     1     -42.304  56.738 -56.542  1.00  0.00    -0.056 N 
HETATM    3  H   UNL     1     -41.824  57.655 -56.403  1.00  0.00     0.278 HD
HETATM    4  H   UNL     1     -41.575  56.028 -56.404  1.00  0.00     0.278 HD
HETATM    5  C   UNL     1     -42.844  56.702 -57.943  1.00  0.00     0.209 C 
HETATM    6  C   UNL     1     -43.952  57.775 -58.104  1.00  0.00     0.115 C 
HETATM    7  N   UNL     1     -44.929  57.769 -57.014  1.00  0.00    -0.353 N 
HETATM    8  C   UNL     1     -44.567  57.584 -55.699  1.00  0.00     0.249 C 
HETATM    9  O   UNL     1     -45.259  58.039 -54.796  1.00  0.00    -0.271 OA
HETATM   10  C   UNL     1     -43.305  55.284 -58.281  1.00  0.00     0.035 C 
HETATM   11  C   UNL     1     -43.951  55.230 -59.662  1.00  0.00     0.002 C 
HETATM   12  C   UNL     1     -45.105  56.221 -59.769  1.00  0.00     0.002 C 
HETATM   13  C   UNL     1     -44.650  57.649 -59.465  1.00  0.00     0.027 C 
HETATM   14  H   UNL     1     -45.723  58.401 -57.099  1.00  0.00     0.163 HD
ENDROOT
BRANCH   1  15
HETATM   15  C   UNL     1     -42.753  56.896 -54.055  1.00  0.00     0.146 C 
BRANCH  15  16
HETATM   16  C   UNL     1     -41.589  55.970 -53.776  1.00  0.00     0.224 C 
HETATM   17  N   UNL     1     -41.990  54.757 -53.272  1.00  0.00    -0.327 N 
HETATM   18  H   UNL     1     -42.866  54.763 -52.756  1.00  0.00     0.169 HD
HETATM   19  O   UNL     1     -40.452  56.329 -54.078  1.00  0.00    -0.273 OA
BRANCH  17  20
HETATM   20  C   UNL     1     -41.279  53.536 -53.179  1.00  0.00     0.040 A 
HETATM   21  C   UNL     1     -40.464  53.111 -52.115  1.00  0.00    -0.035 A 
HETATM   22  C   UNL     1     -39.809  51.862 -52.218  1.00  0.00     0.015 A 
HETATM   23  C   UNL     1     -40.179  53.899 -50.870  1.00  0.00     0.050 C 
HETATM   24  C   UNL     1     -39.913  51.058 -53.358  1.00  0.00    -0.061 A 
HETATM   25  C   UNL     1     -39.143  49.775 -53.461  1.00  0.00     0.048 C 
HETATM   26  C   UNL     1     -40.679  51.512 -54.425  1.00  0.00     0.009 A 
HETATM   27  C   UNL     1     -41.353  52.732 -54.333  1.00  0.00     0.030 A 
ENDBRANCH  17  20
ENDBRANCH  15  16
ENDBRANCH   1  15
TORSDOF 3
ENDMDL
MODEL 5
REMARK VINA RESULT:      -7.9      3.881      4.646
REMARK  3 active torsions:
REMARK  status: ('A' for Active; 'I' for Inactive)
REMARK    1  A    between atoms: C_6  and  N_7 
REMARK       I    between atoms: N_7  and  C_8 
REMARK    2  A    between atoms: C_8  and  C_9 
REMARK    3  A    between atoms: C_9  and  C_10 
ROOT
HETATM    1  C   UNL     1     -42.244  58.365 -52.239  1.00  0.00     0.286 C 
HETATM    2  N   UNL     1     -43.450  57.761 -52.950  1.00  0.00    -0.056 N 
HETATM    3  H   UNL     1     -43.098  56.881 -53.389  1.00  0.00     0.278 HD
HETATM    4  H   UNL     1     -44.165  57.460 -52.278  1.00  0.00     0.278 HD
HETATM    5  C   UNL     1     -44.041  58.617 -54.034  1.00  0.00     0.209 C 
HETATM    6  C   UNL     1     -42.927  59.063 -55.015  1.00  0.00     0.115 C 
HETATM    7  N   UNL     1     -41.731  59.573 -54.342  1.00  0.00    -0.353 N 
HETATM    8  C   UNL     1     -41.222  58.995 -53.202  1.00  0.00     0.249 C 
HETATM    9  O   UNL     1     -40.032  59.098 -52.933  1.00  0.00    -0.271 OA
HETATM   10  C   UNL     1     -44.813  59.779 -53.407  1.00  0.00     0.035 C 
HETATM   11  C   UNL     1     -45.346  60.726 -54.478  1.00  0.00     0.002 C 
HETATM   12  C   UNL     1     -44.220  61.234 -55.372  1.00  0.00     0.002 C 
HETATM   13  C   UNL     1     -43.461  60.082 -56.030  1.00  0.00     0.027 C 
HETATM   14  H   UNL     1     -40.992  59.951 -54.933  1.00  0.00     0.163 HD
ENDROOT
BRANCH   1  15
HETATM   15  C   UNL     1     -41.584  57.364 -51.284  1.00  0.00     0.146 C 
BRANCH  15  16
HETATM   16  C   UNL     1     -41.861  55.928 -51.678  1.00  0.00     0.224 C 
HETATM   17  N   UNL     1     -40.868  55.398 -52.465  1.00  0.00    -0.327 N 
HETATM   18  H   UNL     1     -40.348  56.066 -53.026  1.00  0.00     0.169 HD
HETATM   19  O   UNL     1     -42.856  55.366 -51.224  1.00  0.00    -0.273 OA
BRANCH  17  20
HETATM   20  C   UNL     1     -40.586  54.045 -52.774  1.00  0.00     0.040 A 
HETATM   21  C   UNL     1     -40.154  53.047 -51.884  1.00  0.00    -0.035 A 
HETATM   22  C   UNL     1     -39.896  51.751 -52.389  1.00  0.00     0.015 A 
HETATM   23  C   UNL     1     -39.890  53.242 -50.419  1.00  0.00     0.050 C 
HETATM   24  C   UNL     1     -40.015  51.444 -53.749  1.00  0.00    -0.061 A 
HETATM   25  C   UNL     1     -39.659  50.079 -54.258  1.00  0.00     0.048 C 
HETATM   26  C   UNL     1     -40.392  52.453 -54.628  1.00  0.00     0.009 A 
HETATM   27  C   UNL     1     -40.674  53.733 -54.145  1.00  0.00     0.030 A 
ENDBRANCH  17  20
ENDBRANCH  15  16
ENDBRANCH   1  15
TORSDOF 3
ENDMDL
MODEL 6
REMARK VINA RESULT:      -7.8      2.268      3.813
REMARK  3 active torsions:
REMARK  status: ('A' for Active; 'I' for Inactive)
REMARK    1  A    between atoms: C_6  and  N_7 
REMARK       I    between atoms: N_7  and  C_8 
REMARK    2  A    between atoms: C_8  and  C_9 
REMARK    3  A    between atoms: C_9  and  C_10 
ROOT
HETATM    1  C   UNL     1     -44.105  56.539 -59.141  1.00  0.00     0.286 C 
HETATM    2  N   UNL     1     -45.086  57.215 -58.191  1.00  0.00    -0.056 N 
HETATM    3  H   UNL     1     -45.658  56.440 -57.788  1.00  0.00     0.278 HD
HETATM    4  H   UNL     1     -44.599  57.634 -57.391  1.00  0.00     0.278 HD
HETATM    5  C   UNL     1     -46.022  58.196 -58.838  1.00  0.00     0.209 C 
HETATM    6  C   UNL     1     -46.723  57.531 -60.050  1.00  0.00     0.115 C 
HETATM    7  N   UNL     1     -45.801  56.810 -60.930  1.00  0.00    -0.353 N 
HETATM    8  C   UNL     1     -44.759  56.052 -60.447  1.00  0.00     0.249 C 
HETATM    9  O   UNL     1     -44.319  55.116 -61.102  1.00  0.00    -0.271 OA
HETATM   10  C   UNL     1     -45.262  59.476 -59.191  1.00  0.00     0.035 C 
HETATM   11  C   UNL     1     -46.158  60.458 -59.939  1.00  0.00     0.002 C 
HETATM   12  C   UNL     1     -46.759  59.816 -61.185  1.00  0.00     0.002 C 
HETATM   13  C   UNL     1     -47.549  58.553 -60.841  1.00  0.00     0.027 C 
HETATM   14  H   UNL     1     -46.190  56.414 -61.783  1.00  0.00     0.163 HD
ENDROOT
BRANCH   1  15
HETATM   15  C   UNL     1     -43.317  55.422 -58.449  1.00  0.00     0.146 C 
BRANCH  15  16
HETATM   16  C   UNL     1     -42.949  55.779 -57.024  1.00  0.00     0.224 C 
HETATM   17  N   UNL     1     -43.141  54.733 -56.154  1.00  0.00    -0.327 N 
HETATM   18  H   UNL     1     -43.858  54.065 -56.421  1.00  0.00     0.169 HD
HETATM   19  O   UNL     1     -42.466  56.885 -56.791  1.00  0.00    -0.273 OA
BRANCH  17  20
HETATM   20  C   UNL     1     -42.641  54.546 -54.842  1.00  0.00     0.040 A 
HETATM   21  C   UNL     1     -41.327  54.201 -54.480  1.00  0.00    -0.035 A 
HETATM   22  C   UNL     1     -41.023  54.029 -53.110  1.00  0.00     0.015 A 
HETATM   23  C   UNL     1     -40.199  53.945 -55.438  1.00  0.00     0.050 C 
HETATM   24  C   UNL     1     -41.994  54.150 -52.110  1.00  0.00    -0.061 A 
HETATM   25  C   UNL     1     -41.650  53.887 -50.674  1.00  0.00     0.048 C 
HETATM   26  C   UNL     1     -43.301  54.440 -52.485  1.00  0.00     0.009 A 
HETATM   27  C   UNL     1     -43.617  54.636 -53.831  1.00  0.00     0.030 A 
ENDBRANCH  17  20
ENDBRANCH  15  16
ENDBRANCH   1  15
TORSDOF 3
ENDMDL
MODEL 7
REMARK VINA RESULT:      -7.8      2.779      3.744
REMARK  3 active torsions:
REMARK  status: ('A' for Active; 'I' for Inactive)
REMARK    1  A    between atoms: C_6  and  N_7 
REMARK       I    between atoms: N_7  and  C_8 
REMARK    2  A    between atoms: C_8  and  C_9 
REMARK    3  A    between atoms: C_9  and  C_10 
ROOT
HETATM    1  C   UNL     1     -42.480  57.404 -58.225  1.00  0.00     0.286 C 
HETATM    2  N   UNL     1     -43.314  58.592 -57.760  1.00  0.00    -0.056 N 
HETATM    3  H   UNL     1     -44.305  58.326 -57.956  1.00  0.00     0.278 HD
HETATM    4  H   UNL     1     -43.262  58.707 -56.742  1.00  0.00     0.278 HD
HETATM    5  C   UNL     1     -43.029  59.884 -58.472  1.00  0.00     0.209 C 
HETATM    6  C   UNL     1     -43.100  59.664 -60.005  1.00  0.00     0.115 C 
HETATM    7  N   UNL     1     -42.368  58.480 -60.456  1.00  0.00    -0.353 N 
HETATM    8  C   UNL     1     -42.376  57.295 -59.757  1.00  0.00     0.249 C 
HETATM    9  O   UNL     1     -42.189  56.232 -60.336  1.00  0.00    -0.271 OA
HETATM   10  C   UNL     1     -41.693  60.452 -57.992  1.00  0.00     0.035 C 
HETATM   11  C   UNL     1     -41.323  61.715 -58.765  1.00  0.00     0.002 C 
HETATM   12  C   UNL     1     -41.300  61.452 -60.267  1.00  0.00     0.002 C 
HETATM   13  C   UNL     1     -42.641  60.915 -60.765  1.00  0.00     0.027 C 
HETATM   14  H   UNL     1     -42.315  58.322 -61.461  1.00  0.00     0.163 HD
ENDROOT
BRANCH   1  15
HETATM   15  C   UNL     1     -42.954  56.091 -57.591  1.00  0.00     0.146 C 
BRANCH  15  16
HETATM   16  C   UNL     1     -42.463  55.932 -56.168  1.00  0.00     0.224 C 
HETATM   17  N   UNL     1     -42.537  54.633 -55.729  1.00  0.00    -0.327 N 
HETATM   18  H   UNL     1     -43.255  54.061 -56.165  1.00  0.00     0.169 HD
HETATM   19  O   UNL     1     -41.995  56.908 -55.584  1.00  0.00    -0.273 OA
BRANCH  17  20
HETATM   20  C   UNL     1     -41.908  54.017 -54.619  1.00  0.00     0.040 A 
HETATM   21  C   UNL     1     -42.237  54.182 -53.262  1.00  0.00    -0.035 A 
HETATM   22  C   UNL     1     -41.471  53.499 -52.290  1.00  0.00     0.015 A 
HETATM   23  C   UNL     1     -43.321  55.075 -52.733  1.00  0.00     0.050 C 
HETATM   24  C   UNL     1     -40.374  52.700 -52.631  1.00  0.00    -0.061 A 
HETATM   25  C   UNL     1     -39.539  52.052 -51.567  1.00  0.00     0.048 C 
HETATM   26  C   UNL     1     -40.027  52.586 -53.972  1.00  0.00     0.009 A 
HETATM   27  C   UNL     1     -40.785  53.234 -54.950  1.00  0.00     0.030 A 
ENDBRANCH  17  20
ENDBRANCH  15  16
ENDBRANCH   1  15
TORSDOF 3
ENDMDL
MODEL 8
REMARK VINA RESULT:      -7.5      2.688      7.996
REMARK  3 active torsions:
REMARK  status: ('A' for Active; 'I' for Inactive)
REMARK    1  A    between atoms: C_6  and  N_7 
REMARK       I    between atoms: N_7  and  C_8 
REMARK    2  A    between atoms: C_8  and  C_9 
REMARK    3  A    between atoms: C_9  and  C_10 
ROOT
HETATM    1  C   UNL     1     -42.037  57.354 -52.180  1.00  0.00     0.286 C 
HETATM    2  N   UNL     1     -42.760  56.014 -52.122  1.00  0.00    -0.056 N 
HETATM    3  H   UNL     1     -43.695  56.223 -51.706  1.00  0.00     0.278 HD
HETATM    4  H   UNL     1     -42.958  55.657 -53.064  1.00  0.00     0.278 HD
HETATM    5  C   UNL     1     -42.094  54.970 -51.270  1.00  0.00     0.209 C 
HETATM    6  C   UNL     1     -41.797  55.553 -49.865  1.00  0.00     0.115 C 
HETATM    7  N   UNL     1     -41.173  56.877 -49.906  1.00  0.00    -0.353 N 
HETATM    8  C   UNL     1     -41.556  57.847 -50.803  1.00  0.00     0.249 C 
HETATM    9  O   UNL     1     -41.398  59.032 -50.540  1.00  0.00    -0.271 OA
HETATM   10  C   UNL     1     -40.856  54.433 -51.989  1.00  0.00     0.035 C 
HETATM   11  C   UNL     1     -40.098  53.441 -51.112  1.00  0.00     0.002 C 
HETATM   12  C   UNL     1     -39.726  54.066 -49.772  1.00  0.00     0.002 C 
HETATM   13  C   UNL     1     -40.959  54.578 -49.028  1.00  0.00     0.027 C 
HETATM   14  H   UNL     1     -40.886  57.281 -49.016  1.00  0.00     0.163 HD
ENDROOT
BRANCH   1  15
HETATM   15  C   UNL     1     -42.865  58.419 -52.908  1.00  0.00     0.146 C 
BRANCH  15  16
HETATM   16  C   UNL     1     -43.689  57.833 -54.035  1.00  0.00     0.224 C 
HETATM   17  N   UNL     1     -42.999  57.787 -55.222  1.00  0.00    -0.327 N 
HETATM   18  H   UNL     1     -42.271  58.487 -55.334  1.00  0.00     0.169 HD
HETATM   19  O   UNL     1     -44.814  57.402 -53.792  1.00  0.00    -0.273 OA
BRANCH  17  20
HETATM   20  C   UNL     1     -43.273  57.050 -56.399  1.00  0.00     0.040 A 
HETATM   21  C   UNL     1     -42.862  55.737 -56.690  1.00  0.00    -0.035 A 
HETATM   22  C   UNL     1     -43.213  55.177 -57.940  1.00  0.00     0.015 A 
HETATM   23  C   UNL     1     -42.025  54.870 -55.795  1.00  0.00     0.050 C 
HETATM   24  C   UNL     1     -43.917  55.899 -58.909  1.00  0.00    -0.061 A 
HETATM   25  C   UNL     1     -44.205  55.297 -60.252  1.00  0.00     0.048 C 
HETATM   26  C   UNL     1     -44.272  57.214 -58.631  1.00  0.00     0.009 A 
HETATM   27  C   UNL     1     -43.956  57.778 -57.393  1.00  0.00     0.030 A 
ENDBRANCH  17  20
ENDBRANCH  15  16
ENDBRANCH   1  15
TORSDOF 3
ENDMDL
MODEL 9
REMARK VINA RESULT:      -7.5      1.882      7.772
REMARK  3 active torsions:
REMARK  status: ('A' for Active; 'I' for Inactive)
REMARK    1  A    between atoms: C_6  and  N_7 
REMARK       I    between atoms: N_7  and  C_8 
REMARK    2  A    between atoms: C_8  and  C_9 
REMARK    3  A    between atoms: C_9  and  C_10 
ROOT
HETATM    1  C   UNL     1     -41.580  56.337 -53.617  1.00  0.00     0.286 C 
HETATM    2  N   UNL     1     -42.353  55.088 -54.021  1.00  0.00    -0.056 N 
HETATM    3  H   UNL     1     -43.336  55.261 -53.715  1.00  0.00     0.278 HD
HETATM    4  H   UNL     1     -42.402  54.995 -55.042  1.00  0.00     0.278 HD
HETATM    5  C   UNL     1     -41.882  53.814 -53.378  1.00  0.00     0.209 C 
HETATM    6  C   UNL     1     -41.806  54.002 -51.841  1.00  0.00     0.115 C 
HETATM    7  N   UNL     1     -41.135  55.239 -51.439  1.00  0.00    -0.353 N 
HETATM    8  C   UNL     1     -41.321  56.429 -52.102  1.00  0.00     0.249 C 
HETATM    9  O   UNL     1     -41.165  57.495 -51.518  1.00  0.00    -0.271 OA
HETATM   10  C   UNL     1     -40.561  53.376 -54.012  1.00  0.00     0.035 C 
HETATM   11  C   UNL     1     -40.002  52.138 -53.316  1.00  0.00     0.002 C 
HETATM   12  C   UNL     1     -39.840  52.376 -51.819  1.00  0.00     0.002 C 
HETATM   13  C   UNL     1     -41.161  52.784 -51.167  1.00  0.00     0.027 C 
HETATM   14  H   UNL     1     -40.987  55.383 -50.442  1.00  0.00     0.163 HD
ENDROOT
BRANCH   1  15
HETATM   15  C   UNL     1     -42.231  57.613 -54.161  1.00  0.00     0.146 C 
BRANCH  15  16
HETATM   16  C   UNL     1     -43.334  57.315 -55.154  1.00  0.00     0.224 C 
HETATM   17  N   UNL     1     -42.940  57.517 -56.455  1.00  0.00    -0.327 N 
HETATM   18  H   UNL     1     -42.205  58.205 -56.590  1.00  0.00     0.169 HD
HETATM   19  O   UNL     1     -44.404  56.870 -54.744  1.00  0.00    -0.273 OA
BRANCH  17  20
HETATM   20  C   UNL     1     -43.534  57.068 -57.659  1.00  0.00     0.040 A 
HETATM   21  C   UNL     1     -44.582  57.685 -58.366  1.00  0.00    -0.035 A 
HETATM   22  C   UNL     1     -45.063  57.067 -59.543  1.00  0.00     0.015 A 
HETATM   23  C   UNL     1     -45.287  58.944 -57.952  1.00  0.00     0.050 C 
HETATM   24  C   UNL     1     -44.560  55.845 -60.003  1.00  0.00    -0.061 A 
HETATM   25  C   UNL     1     -45.148  55.183 -61.214  1.00  0.00     0.048 C 
HETATM   26  C   UNL     1     -43.561  55.219 -59.267  1.00  0.00     0.009 A 
HETATM   27  C   UNL     1     -43.056  55.824 -58.114  1.00  0.00     0.030 A 
ENDBRANCH  17  20
ENDBRANCH  15  16
ENDBRANCH   1  15
TORSDOF 3
ENDMDL
MODEL 10
REMARK VINA RESULT:      -7.5      2.472      7.839
REMARK  3 active torsions:
REMARK  status: ('A' for Active; 'I' for Inactive)
REMARK    1  A    between atoms: C_6  and  N_7 
REMARK       I    between atoms: N_7  and  C_8 
REMARK    2  A    between atoms: C_8  and  C_9 
REMARK    3  A    between atoms: C_9  and  C_10 
ROOT
HETATM    1  C   UNL     1     -42.094  56.274 -52.139  1.00  0.00     0.286 C 
HETATM    2  N   UNL     1     -42.863  54.976 -52.353  1.00  0.00    -0.056 N 
HETATM    3  H   UNL     1     -43.659  55.013 -51.677  1.00  0.00     0.278 HD
HETATM    4  H   UNL     1     -43.299  54.951 -53.281  1.00  0.00     0.278 HD
HETATM    5  C   UNL     1     -42.080  53.723 -52.081  1.00  0.00     0.209 C 
HETATM    6  C   UNL     1     -41.425  53.809 -50.678  1.00  0.00     0.115 C 
HETATM    7  N   UNL     1     -40.749  55.083 -50.431  1.00  0.00    -0.353 N 
HETATM    8  C   UNL     1     -41.273  56.289 -50.837  1.00  0.00     0.249 C 
HETATM    9  O   UNL     1     -40.985  57.321 -50.244  1.00  0.00    -0.271 OA
HETATM   10  C   UNL     1     -41.081  53.484 -53.214  1.00  0.00     0.035 C 
HETATM   11  C   UNL     1     -40.200  52.273 -52.925  1.00  0.00     0.002 C 
HETATM   12  C   UNL     1     -39.485  52.422 -51.586  1.00  0.00     0.002 C 
HETATM   13  C   UNL     1     -40.474  52.629 -50.439  1.00  0.00     0.027 C 
HETATM   14  H   UNL     1     -40.235  55.173 -49.555  1.00  0.00     0.163 HD
ENDROOT
BRANCH   1  15
HETATM   15  C   UNL     1     -43.004  57.502 -52.251  1.00  0.00     0.146 C 
BRANCH  15  16
HETATM   16  C   UNL     1     -43.527  57.702 -53.658  1.00  0.00     0.224 C 
HETATM   17  N   UNL     1     -42.542  57.579 -54.607  1.00  0.00    -0.327 N 
HETATM   18  H   UNL     1     -41.601  57.806 -54.297  1.00  0.00     0.169 HD
HETATM   19  O   UNL     1     -44.732  57.872 -53.829  1.00  0.00    -0.273 OA
BRANCH  17  20
HETATM   20  C   UNL     1     -42.653  57.382 -56.005  1.00  0.00     0.040 A 
HETATM   21  C   UNL     1     -42.821  56.157 -56.675  1.00  0.00    -0.035 A 
HETATM   22  C   UNL     1     -42.884  56.159 -58.088  1.00  0.00     0.015 A 
HETATM   23  C   UNL     1     -42.893  54.809 -56.019  1.00  0.00     0.050 C 
HETATM   24  C   UNL     1     -42.744  57.331 -58.838  1.00  0.00    -0.061 A 
HETATM   25  C   UNL     1     -42.741  57.283 -60.338  1.00  0.00     0.048 C 
HETATM   26  C   UNL     1     -42.527  58.528 -58.167  1.00  0.00     0.009 A 
HETATM   27  C   UNL     1     -42.484  58.551 -56.771  1.00  0.00     0.030 A 
ENDBRANCH  17  20
ENDBRANCH  15  16
ENDBRANCH   1  15
TORSDOF 3
ENDMDL
