MODEL 1
REMARK VINA RESULT:      -8.9      0.000      0.000
REMARK  7 active torsions:
REMARK  status: ('A' for Active; 'I' for Inactive)
REMARK    1  A    between atoms: O_2  and  C_3 
REMARK    2  A    between atoms: C_6  and  C_7 
REMARK    3  A    between atoms: C_7  and  C_8 
REMARK    4  A    between atoms: C_7  and  C_14 
REMARK    5  A    between atoms: C_14  and  C_15 
REMARK       I    between atoms: C_15  and  N_16 
REMARK    6  A    between atoms: N_16  and  C_17 
REMARK    7  A    between atoms: C_17  and  C_18 
ROOT
HETATM    1  C   UNL     1     -40.597  54.004 -53.678  1.00  0.00     0.060 C 
ENDROOT
BRANCH   1   2
HETATM    2  C   UNL     1     -41.682  54.634 -52.799  1.00  0.00    -0.049 A 
HETATM    3  C   UNL     1     -41.626  56.018 -52.543  1.00  0.00     0.010 A 
HETATM    4  C   UNL     1     -42.585  56.653 -51.749  1.00  0.00     0.037 A 
HETATM    5  C   UNL     1     -43.639  55.929 -51.198  1.00  0.00     0.068 A 
HETATM    6  C   UNL     1     -43.730  54.566 -51.465  1.00  0.00     0.037 A 
HETATM    7  C   UNL     1     -42.767  53.929 -52.263  1.00  0.00     0.010 A 
BRANCH   5   8
HETATM    8  O   UNL     1     -44.505  56.662 -50.436  1.00  0.00    -0.356 OA
HETATM    9  C   UNL     1     -45.086  57.806 -51.049  1.00  0.00     0.210 C 
ENDBRANCH   5   8
ENDBRANCH   1   2
BRANCH   1  10
HETATM   10  C   UNL     1     -40.244  52.549 -53.343  1.00  0.00    -0.049 A 
HETATM   11  C   UNL     1     -39.799  52.149 -52.074  1.00  0.00     0.008 A 
HETATM   12  C   UNL     1     -39.492  50.811 -51.813  1.00  0.00     0.001 A 
HETATM   13  C   UNL     1     -39.622  49.853 -52.815  1.00  0.00     0.000 A 
HETATM   14  C   UNL     1     -40.061  50.230 -54.081  1.00  0.00     0.001 A 
HETATM   15  C   UNL     1     -40.369  51.566 -54.342  1.00  0.00     0.008 A 
ENDBRANCH   1  10
BRANCH   1  16
HETATM   16  C   UNL     1     -40.638  54.244 -55.203  1.00  0.00     0.116 C 
BRANCH  16  17
HETATM   17  C   UNL     1     -41.887  54.814 -55.848  1.00  0.00     0.218 C 
HETATM   18  N   UNL     1     -41.857  56.108 -56.273  1.00  0.00    -0.355 N 
HETATM   19  H   UNL     1     -41.001  56.649 -56.306  1.00  0.00     0.162 HD
HETATM   20  O   UNL     1     -42.913  54.134 -55.923  1.00  0.00    -0.274 OA
BRANCH  18  21
HETATM   21  C   UNL     1     -42.989  56.678 -56.969  1.00  0.00     0.184 C 
BRANCH  21  22
HETATM   22  C   UNL     1     -42.602  57.099 -58.350  1.00  0.00     0.080 A 
HETATM   23  N   UNL     1     -42.390  56.197 -59.339  1.00  0.00    -0.177 NA
HETATM   24  N   UNL     1     -42.110  56.942 -60.436  1.00  0.00    -0.281 N 
HETATM   25  H   UNL     1     -41.928  56.469 -61.315  1.00  0.00     0.189 HD
HETATM   26  C   UNL     1     -42.132  58.259 -60.155  1.00  0.00     0.036 A 
HETATM   27  C   UNL     1     -42.436  58.400 -58.837  1.00  0.00    -0.006 A 
HETATM   28  C   UNL     1     -41.936  59.510 -60.896  1.00  0.00     0.059 C 
HETATM   29  C   UNL     1     -42.499  59.815 -58.441  1.00  0.00     0.043 C 
HETATM   30  C   UNL     1     -41.878  60.526 -59.700  1.00  0.00     0.011 C 
ENDBRANCH  21  22
ENDBRANCH  18  21
ENDBRANCH  16  17
ENDBRANCH   1  16
TORSDOF 7
ENDMDL
MODEL 2
REMARK VINA RESULT:      -8.9      1.988      2.899
REMARK  7 active torsions:
REMARK  status: ('A' for Active; 'I' for Inactive)
REMARK    1  A    between atoms: O_2  and  C_3 
REMARK    2  A    between atoms: C_6  and  C_7 
REMARK    3  A    between atoms: C_7  and  C_8 
REMARK    4  A    between atoms: C_7  and  C_14 
REMARK    5  A    between atoms: C_14  and  C_15 
REMARK       I    between atoms: C_15  and  N_16 
REMARK    6  A    between atoms: N_16  and  C_17 
REMARK    7  A    between atoms: C_17  and  C_18 
ROOT
HETATM    1  C   UNL     1     -40.632  54.003 -53.672  1.00  0.00     0.060 C 
ENDROOT
BRANCH   1   2
HETATM    2  C   UNL     1     -41.713  54.623 -52.780  1.00  0.00    -0.049 A 
HETATM    3  C   UNL     1     -41.744  56.024 -52.629  1.00  0.00     0.010 A 
HETATM    4  C   UNL     1     -42.705  56.650 -51.830  1.00  0.00     0.037 A 
HETATM    5  C   UNL     1     -43.673  55.900 -51.168  1.00  0.00     0.068 A 
HETATM    6  C   UNL     1     -43.679  54.517 -51.330  1.00  0.00     0.037 A 
HETATM    7  C   UNL     1     -42.714  53.888 -52.134  1.00  0.00     0.010 A 
BRANCH   5   8
HETATM    8  O   UNL     1     -44.550  56.628 -50.413  1.00  0.00    -0.356 OA
HETATM    9  C   UNL     1     -45.139  57.763 -51.034  1.00  0.00     0.210 C 
ENDBRANCH   5   8
ENDBRANCH   1   2
BRANCH   1  10
HETATM   10  C   UNL     1     -40.273  52.547 -53.352  1.00  0.00    -0.049 A 
HETATM   11  C   UNL     1     -39.772  52.145 -52.105  1.00  0.00     0.008 A 
HETATM   12  C   UNL     1     -39.462  50.805 -51.857  1.00  0.00     0.001 A 
HETATM   13  C   UNL     1     -39.645  49.847 -52.851  1.00  0.00     0.000 A 
HETATM   14  C   UNL     1     -40.139  50.226 -54.095  1.00  0.00     0.001 A 
HETATM   15  C   UNL     1     -40.450  51.564 -54.343  1.00  0.00     0.008 A 
ENDBRANCH   1  10
BRANCH   1  16
HETATM   16  C   UNL     1     -40.683  54.257 -55.194  1.00  0.00     0.116 C 
BRANCH  16  17
HETATM   17  C   UNL     1     -41.918  54.878 -55.819  1.00  0.00     0.218 C 
HETATM   18  N   UNL     1     -41.855  56.182 -56.208  1.00  0.00    -0.355 N 
HETATM   19  H   UNL     1     -40.986  56.701 -56.228  1.00  0.00     0.162 HD
HETATM   20  O   UNL     1     -42.961  54.226 -55.910  1.00  0.00    -0.274 OA
BRANCH  18  21
HETATM   21  C   UNL     1     -42.974  56.800 -56.884  1.00  0.00     0.184 C 
BRANCH  21  22
HETATM   22  C   UNL     1     -43.687  57.743 -55.969  1.00  0.00     0.080 A 
HETATM   23  N   UNL     1     -45.039  57.762 -55.876  1.00  0.00    -0.177 NA
HETATM   24  N   UNL     1     -45.309  58.694 -54.928  1.00  0.00    -0.281 N 
HETATM   25  H   UNL     1     -46.276  58.870 -54.679  1.00  0.00     0.189 HD
HETATM   26  C   UNL     1     -44.180  59.250 -54.449  1.00  0.00     0.036 A 
HETATM   27  C   UNL     1     -43.127  58.675 -55.090  1.00  0.00    -0.006 A 
HETATM   28  C   UNL     1     -43.833  60.259 -53.443  1.00  0.00     0.059 C 
HETATM   29  C   UNL     1     -41.842  59.213 -54.616  1.00  0.00     0.043 C 
HETATM   30  C   UNL     1     -42.309  60.453 -53.767  1.00  0.00     0.011 C 
ENDBRANCH  21  22
ENDBRANCH  18  21
ENDBRANCH  16  17
ENDBRANCH   1  16
TORSDOF 7
ENDMDL
MODEL 3
REMARK VINA RESULT:      -8.6      3.651      8.034
REMARK  7 active torsions:
REMARK  status: ('A' for Active; 'I' for Inactive)
REMARK    1  A    between atoms: O_2  and  C_3 
REMARK    2  A    between atoms: C_6  and  C_7 
REMARK    3  A    between atoms: C_7  and  C_8 
REMARK    4  A    between atoms: C_7  and  C_14 
REMARK    5  A    between atoms: C_14  and  C_15 
REMARK       I    between atoms: C_15  and  N_16 
REMARK    6  A    between atoms: N_16  and  C_17 
REMARK    7  A    between atoms: C_17  and  C_18 
ROOT
HETATM    1  C   UNL     1     -41.811  56.275 -51.603  1.00  0.00     0.060 C 
ENDROOT
BRANCH   1   2
HETATM    2  C   UNL     1     -42.131  55.999 -53.076  1.00  0.00    -0.049 A 
HETATM    3  C   UNL     1     -42.920  54.877 -53.398  1.00  0.00     0.010 A 
HETATM    4  C   UNL     1     -43.247  54.571 -54.722  1.00  0.00     0.037 A 
HETATM    5  C   UNL     1     -42.808  55.382 -55.765  1.00  0.00     0.068 A 
HETATM    6  C   UNL     1     -42.054  56.513 -55.465  1.00  0.00     0.037 A 
HETATM    7  C   UNL     1     -41.726  56.821 -54.135  1.00  0.00     0.010 A 
BRANCH   5   8
HETATM    8  O   UNL     1     -43.188  54.972 -57.012  1.00  0.00    -0.356 OA
HETATM    9  C   UNL     1     -43.003  55.899 -58.074  1.00  0.00     0.210 C 
ENDBRANCH   5   8
ENDBRANCH   1   2
BRANCH   1  10
HETATM   10  C   UNL     1     -41.830  57.753 -51.193  1.00  0.00    -0.049 A 
HETATM   11  C   UNL     1     -40.711  58.405 -50.654  1.00  0.00     0.008 A 
HETATM   12  C   UNL     1     -40.773  59.755 -50.298  1.00  0.00     0.001 A 
HETATM   13  C   UNL     1     -41.953  60.473 -50.473  1.00  0.00     0.000 A 
HETATM   14  C   UNL     1     -43.073  59.844 -51.005  1.00  0.00     0.001 A 
HETATM   15  C   UNL     1     -43.012  58.496 -51.363  1.00  0.00     0.008 A 
ENDBRANCH   1  10
BRANCH   1  16
HETATM   16  C   UNL     1     -42.444  55.375 -50.520  1.00  0.00     0.116 C 
BRANCH  16  17
HETATM   17  C   UNL     1     -41.610  54.307 -49.837  1.00  0.00     0.218 C 
HETATM   18  N   UNL     1     -41.179  53.254 -50.584  1.00  0.00    -0.355 N 
HETATM   19  H   UNL     1     -41.269  53.230 -51.592  1.00  0.00     0.162 HD
HETATM   20  O   UNL     1     -41.390  54.373 -48.625  1.00  0.00    -0.274 OA
BRANCH  18  21
HETATM   21  C   UNL     1     -40.312  52.251 -50.005  1.00  0.00     0.184 C 
BRANCH  21  22
HETATM   22  C   UNL     1     -39.983  51.195 -51.011  1.00  0.00     0.080 A 
HETATM   23  N   UNL     1     -39.654  49.934 -50.641  1.00  0.00    -0.177 NA
HETATM   24  N   UNL     1     -39.475  49.264 -51.806  1.00  0.00    -0.281 N 
HETATM   25  H   UNL     1     -39.232  48.280 -51.772  1.00  0.00     0.189 HD
HETATM   26  C   UNL     1     -39.672  50.067 -52.870  1.00  0.00     0.036 A 
HETATM   27  C   UNL     1     -39.992  51.304 -52.405  1.00  0.00    -0.006 A 
HETATM   28  C   UNL     1     -39.644  49.927 -54.329  1.00  0.00     0.059 C 
HETATM   29  C   UNL     1     -40.242  52.250 -53.504  1.00  0.00     0.043 C 
HETATM   30  C   UNL     1     -39.721  51.438 -54.748  1.00  0.00     0.011 C 
ENDBRANCH  21  22
ENDBRANCH  18  21
ENDBRANCH  16  17
ENDBRANCH   1  16
TORSDOF 7
ENDMDL
MODEL 4
REMARK VINA RESULT:      -8.5      4.465      7.242
REMARK  7 active torsions:
REMARK  status: ('A' for Active; 'I' for Inactive)
REMARK    1  A    between atoms: O_2  and  C_3 
REMARK    2  A    between atoms: C_6  and  C_7 
REMARK    3  A    between atoms: C_7  and  C_8 
REMARK    4  A    between atoms: C_7  and  C_14 
REMARK    5  A    between atoms: C_14  and  C_15 
REMARK       I    between atoms: C_15  and  N_16 
REMARK    6  A    between atoms: N_16  and  C_17 
REMARK    7  A    between atoms: C_17  and  C_18 
ROOT
HETATM    1  C   UNL     1     -42.393  56.091 -51.451  1.00  0.00     0.060 C 
ENDROOT
BRANCH   1   2
HETATM    2  C   UNL     1     -43.184  57.399 -51.350  1.00  0.00    -0.049 A 
HETATM    3  C   UNL     1     -44.589  57.336 -51.270  1.00  0.00     0.010 A 
HETATM    4  C   UNL     1     -45.368  58.493 -51.176  1.00  0.00     0.037 A 
HETATM    5  C   UNL     1     -44.768  59.749 -51.144  1.00  0.00     0.068 A 
HETATM    6  C   UNL     1     -43.379  59.831 -51.190  1.00  0.00     0.037 A 
HETATM    7  C   UNL     1     -42.597  58.669 -51.283  1.00  0.00     0.010 A 
BRANCH   5   8
HETATM    8  O   UNL     1     -45.637  60.800 -51.058  1.00  0.00    -0.356 OA
HETATM    9  C   UNL     1     -46.725  60.807 -51.973  1.00  0.00     0.210 C 
ENDBRANCH   5   8
ENDBRANCH   1   2
BRANCH   1  10
HETATM   10  C   UNL     1     -42.115  55.600 -52.877  1.00  0.00    -0.049 A 
HETATM   11  C   UNL     1     -40.946  55.930 -53.578  1.00  0.00     0.008 A 
HETATM   12  C   UNL     1     -40.734  55.457 -54.876  1.00  0.00     0.001 A 
HETATM   13  C   UNL     1     -41.686  54.650 -55.493  1.00  0.00     0.000 A 
HETATM   14  C   UNL     1     -42.852  54.313 -54.815  1.00  0.00     0.001 A 
HETATM   15  C   UNL     1     -43.065  54.784 -53.518  1.00  0.00     0.008 A 
ENDBRANCH   1  10
BRANCH   1  16
HETATM   16  C   UNL     1     -41.172  55.883 -50.528  1.00  0.00     0.116 C 
BRANCH  16  17
HETATM   17  C   UNL     1     -40.990  54.569 -49.793  1.00  0.00     0.218 C 
HETATM   18  N   UNL     1     -40.649  53.468 -50.519  1.00  0.00    -0.355 N 
HETATM   19  H   UNL     1     -40.375  53.523 -51.492  1.00  0.00     0.162 HD
HETATM   20  O   UNL     1     -41.209  54.501 -48.581  1.00  0.00    -0.274 OA
BRANCH  18  21
HETATM   21  C   UNL     1     -40.383  52.209 -49.859  1.00  0.00     0.184 C 
BRANCH  21  22
HETATM   22  C   UNL     1     -40.024  51.157 -50.858  1.00  0.00     0.080 A 
HETATM   23  N   UNL     1     -39.698  49.896 -50.483  1.00  0.00    -0.177 NA
HETATM   24  N   UNL     1     -39.487  49.231 -51.645  1.00  0.00    -0.281 N 
HETATM   25  H   UNL     1     -39.240  48.247 -51.606  1.00  0.00     0.189 HD
HETATM   26  C   UNL     1     -39.661  50.034 -52.711  1.00  0.00     0.036 A 
HETATM   27  C   UNL     1     -39.998  51.270 -52.252  1.00  0.00    -0.006 A 
HETATM   28  C   UNL     1     -39.595  49.898 -54.170  1.00  0.00     0.059 C 
HETATM   29  C   UNL     1     -40.225  52.216 -53.355  1.00  0.00     0.043 C 
HETATM   30  C   UNL     1     -39.669  51.410 -54.587  1.00  0.00     0.011 C 
ENDBRANCH  21  22
ENDBRANCH  18  21
ENDBRANCH  16  17
ENDBRANCH   1  16
TORSDOF 7
ENDMDL
MODEL 5
REMARK VINA RESULT:      -8.5      3.076      5.136
REMARK  7 active torsions:
REMARK  status: ('A' for Active; 'I' for Inactive)
REMARK    1  A    between atoms: O_2  and  C_3 
REMARK    2  A    between atoms: C_6  and  C_7 
REMARK    3  A    between atoms: C_7  and  C_8 
REMARK    4  A    between atoms: C_7  and  C_14 
REMARK    5  A    between atoms: C_14  and  C_15 
REMARK       I    between atoms: C_15  and  N_16 
REMARK    6  A    between atoms: N_16  and  C_17 
REMARK    7  A    between atoms: C_17  and  C_18 
ROOT
HETATM    1  C   UNL     1     -41.246  53.357 -52.302  1.00  0.00     0.060 C 
ENDROOT
BRANCH   1   2
HETATM    2  C   UNL     1     -41.651  54.160 -53.542  1.00  0.00    -0.049 A 
HETATM    3  C   UNL     1     -40.771  55.148 -54.026  1.00  0.00     0.010 A 
HETATM    4  C   UNL     1     -41.083  55.915 -55.153  1.00  0.00     0.037 A 
HETATM    5  C   UNL     1     -42.276  55.710 -55.840  1.00  0.00     0.068 A 
HETATM    6  C   UNL     1     -43.145  54.716 -55.397  1.00  0.00     0.037 A 
HETATM    7  C   UNL     1     -42.831  53.946 -54.266  1.00  0.00     0.010 A 
BRANCH   5   8
HETATM    8  O   UNL     1     -42.467  56.527 -56.919  1.00  0.00    -0.356 OA
HETATM    9  C   UNL     1     -43.195  55.982 -58.013  1.00  0.00     0.210 C 
ENDBRANCH   5   8
ENDBRANCH   1   2
BRANCH   1  10
HETATM   10  C   UNL     1     -40.525  52.033 -52.584  1.00  0.00    -0.049 A 
HETATM   11  C   UNL     1     -40.331  51.537 -53.882  1.00  0.00     0.008 A 
HETATM   12  C   UNL     1     -39.665  50.326 -54.092  1.00  0.00     0.001 A 
HETATM   13  C   UNL     1     -39.185  49.593 -53.010  1.00  0.00     0.000 A 
HETATM   14  C   UNL     1     -39.368  50.068 -51.715  1.00  0.00     0.001 A 
HETATM   15  C   UNL     1     -40.032  51.278 -51.504  1.00  0.00     0.008 A 
ENDBRANCH   1  10
BRANCH   1  16
HETATM   16  C   UNL     1     -40.621  54.102 -51.101  1.00  0.00     0.116 C 
BRANCH  16  17
HETATM   17  C   UNL     1     -41.225  55.408 -50.621  1.00  0.00     0.218 C 
HETATM   18  N   UNL     1     -40.574  56.566 -50.923  1.00  0.00    -0.355 N 
HETATM   19  H   UNL     1     -39.795  56.598 -51.569  1.00  0.00     0.162 HD
HETATM   20  O   UNL     1     -42.242  55.402 -49.924  1.00  0.00    -0.274 OA
BRANCH  18  21
HETATM   21  C   UNL     1     -41.147  57.844 -50.563  1.00  0.00     0.184 C 
BRANCH  21  22
HETATM   22  C   UNL     1     -41.667  58.549 -51.774  1.00  0.00     0.080 A 
HETATM   23  N   UNL     1     -41.079  59.670 -52.257  1.00  0.00    -0.177 NA
HETATM   24  N   UNL     1     -41.789  59.984 -53.369  1.00  0.00    -0.281 N 
HETATM   25  H   UNL     1     -41.513  60.796 -53.911  1.00  0.00     0.189 HD
HETATM   26  C   UNL     1     -42.790  59.108 -53.577  1.00  0.00     0.036 A 
HETATM   27  C   UNL     1     -42.750  58.183 -52.581  1.00  0.00    -0.006 A 
HETATM   28  C   UNL     1     -43.844  58.914 -54.578  1.00  0.00     0.059 C 
HETATM   29  C   UNL     1     -43.804  57.169 -52.738  1.00  0.00     0.043 C 
HETATM   30  C   UNL     1     -44.701  57.812 -53.859  1.00  0.00     0.011 C 
ENDBRANCH  21  22
ENDBRANCH  18  21
ENDBRANCH  16  17
ENDBRANCH   1  16
TORSDOF 7
ENDMDL
MODEL 6
REMARK VINA RESULT:      -8.4      2.486      2.961
REMARK  7 active torsions:
REMARK  status: ('A' for Active; 'I' for Inactive)
REMARK    1  A    between atoms: O_2  and  C_3 
REMARK    2  A    between atoms: C_6  and  C_7 
REMARK    3  A    between atoms: C_7  and  C_8 
REMARK    4  A    between atoms: C_7  and  C_14 
REMARK    5  A    between atoms: C_14  and  C_15 
REMARK       I    between atoms: C_15  and  N_16 
REMARK    6  A    between atoms: N_16  and  C_17 
REMARK    7  A    between atoms: C_17  and  C_18 
ROOT
HETATM    1  C   UNL     1     -41.305  54.906 -54.238  1.00  0.00     0.060 C 
ENDROOT
BRANCH   1   2
HETATM    2  C   UNL     1     -41.552  56.054 -53.253  1.00  0.00    -0.049 A 
HETATM    3  C   UNL     1     -40.758  57.213 -53.353  1.00  0.00     0.010 A 
HETATM    4  C   UNL     1     -40.934  58.295 -52.484  1.00  0.00     0.037 A 
HETATM    5  C   UNL     1     -41.916  58.258 -51.498  1.00  0.00     0.068 A 
HETATM    6  C   UNL     1     -42.732  57.134 -51.404  1.00  0.00     0.037 A 
HETATM    7  C   UNL     1     -42.556  56.049 -52.277  1.00  0.00     0.010 A 
BRANCH   5   8
HETATM    8  O   UNL     1     -41.982  59.372 -50.709  1.00  0.00    -0.356 OA
HETATM    9  C   UNL     1     -40.763  59.820 -50.131  1.00  0.00     0.210 C 
ENDBRANCH   5   8
ENDBRANCH   1   2
BRANCH   1  10
HETATM   10  C   UNL     1     -40.700  53.636 -53.628  1.00  0.00    -0.049 A 
HETATM   11  C   UNL     1     -40.406  53.517 -52.262  1.00  0.00     0.008 A 
HETATM   12  C   UNL     1     -39.858  52.338 -51.749  1.00  0.00     0.001 A 
HETATM   13  C   UNL     1     -39.593  51.262 -52.592  1.00  0.00     0.000 A 
HETATM   14  C   UNL     1     -39.877  51.362 -53.950  1.00  0.00     0.001 A 
HETATM   15  C   UNL     1     -40.426  52.538 -54.464  1.00  0.00     0.008 A 
ENDBRANCH   1  10
BRANCH   1  16
HETATM   16  C   UNL     1     -42.391  54.574 -55.285  1.00  0.00     0.116 C 
BRANCH  16  17
HETATM   17  C   UNL     1     -42.899  55.655 -56.221  1.00  0.00     0.218 C 
HETATM   18  N   UNL     1     -42.418  55.680 -57.494  1.00  0.00    -0.355 N 
HETATM   19  H   UNL     1     -41.853  54.932 -57.877  1.00  0.00     0.162 HD
HETATM   20  O   UNL     1     -43.679  56.516 -55.808  1.00  0.00    -0.274 OA
BRANCH  18  21
HETATM   21  C   UNL     1     -42.928  56.636 -58.453  1.00  0.00     0.184 C 
BRANCH  21  22
HETATM   22  C   UNL     1     -44.128  56.088 -59.155  1.00  0.00     0.080 A 
HETATM   23  N   UNL     1     -44.266  54.764 -59.406  1.00  0.00    -0.177 NA
HETATM   24  N   UNL     1     -45.479  54.647 -60.001  1.00  0.00    -0.281 N 
HETATM   25  H   UNL     1     -45.804  53.724 -60.270  1.00  0.00     0.189 HD
HETATM   26  C   UNL     1     -46.080  55.844 -60.132  1.00  0.00     0.036 A 
HETATM   27  C   UNL     1     -45.251  56.787 -59.610  1.00  0.00    -0.006 A 
HETATM   28  C   UNL     1     -47.355  56.344 -60.657  1.00  0.00     0.059 C 
HETATM   29  C   UNL     1     -45.837  58.134 -59.695  1.00  0.00     0.043 C 
HETATM   30  C   UNL     1     -47.066  57.888 -60.646  1.00  0.00     0.011 C 
ENDBRANCH  21  22
ENDBRANCH  18  21
ENDBRANCH  16  17
ENDBRANCH   1  16
TORSDOF 7
ENDMDL
MODEL 7
REMARK VINA RESULT:      -8.3      4.191      7.202
REMARK  7 active torsions:
REMARK  status: ('A' for Active; 'I' for Inactive)
REMARK    1  A    between atoms: O_2  and  C_3 
REMARK    2  A    between atoms: C_6  and  C_7 
REMARK    3  A    between atoms: C_7  and  C_8 
REMARK    4  A    between atoms: C_7  and  C_14 
REMARK    5  A    between atoms: C_14  and  C_15 
REMARK       I    between atoms: C_15  and  N_16 
REMARK    6  A    between atoms: N_16  and  C_17 
REMARK    7  A    between atoms: C_17  and  C_18 
ROOT
HETATM    1  C   UNL     1     -42.344  55.839 -52.738  1.00  0.00     0.060 C 
ENDROOT
BRANCH   1   2
HETATM    2  C   UNL     1     -41.550  54.551 -52.978  1.00  0.00    -0.049 A 
HETATM    3  C   UNL     1     -40.940  53.918 -51.877  1.00  0.00     0.010 A 
HETATM    4  C   UNL     1     -40.202  52.741 -52.030  1.00  0.00     0.037 A 
HETATM    5  C   UNL     1     -40.062  52.151 -53.283  1.00  0.00     0.068 A 
HETATM    6  C   UNL     1     -40.685  52.743 -54.379  1.00  0.00     0.037 A 
HETATM    7  C   UNL     1     -41.426  53.925 -54.225  1.00  0.00     0.010 A 
BRANCH   5   8
HETATM    8  O   UNL     1     -39.312  51.008 -53.302  1.00  0.00    -0.356 OA
HETATM    9  C   UNL     1     -39.636  50.045 -54.297  1.00  0.00     0.210 C 
ENDBRANCH   5   8
ENDBRANCH   1   2
BRANCH   1  10
HETATM   10  C   UNL     1     -41.530  57.021 -52.198  1.00  0.00    -0.049 A 
HETATM   11  C   UNL     1     -41.509  57.369 -50.839  1.00  0.00     0.008 A 
HETATM   12  C   UNL     1     -40.749  58.453 -50.390  1.00  0.00     0.001 A 
HETATM   13  C   UNL     1     -40.001  59.206 -51.291  1.00  0.00     0.000 A 
HETATM   14  C   UNL     1     -40.009  58.877 -52.643  1.00  0.00     0.001 A 
HETATM   15  C   UNL     1     -40.767  57.794 -53.092  1.00  0.00     0.008 A 
ENDBRANCH   1  10
BRANCH   1  16
HETATM   16  C   UNL     1     -43.371  56.293 -53.800  1.00  0.00     0.116 C 
BRANCH  16  17
HETATM   17  C   UNL     1     -44.530  57.187 -53.402  1.00  0.00     0.218 C 
HETATM   18  N   UNL     1     -44.895  57.219 -52.090  1.00  0.00    -0.355 N 
HETATM   19  H   UNL     1     -44.340  56.789 -51.361  1.00  0.00     0.162 HD
HETATM   20  O   UNL     1     -45.154  57.813 -54.261  1.00  0.00    -0.274 OA
BRANCH  18  21
HETATM   21  C   UNL     1     -45.938  58.116 -51.641  1.00  0.00     0.184 C 
BRANCH  21  22
HETATM   22  C   UNL     1     -45.366  59.207 -50.795  1.00  0.00     0.080 A 
HETATM   23  N   UNL     1     -45.801  59.433 -49.531  1.00  0.00    -0.177 NA
HETATM   24  N   UNL     1     -45.028  60.449 -49.074  1.00  0.00    -0.281 N 
HETATM   25  H   UNL     1     -45.170  60.782 -48.127  1.00  0.00     0.189 HD
HETATM   26  C   UNL     1     -44.149  60.858 -50.009  1.00  0.00     0.036 A 
HETATM   27  C   UNL     1     -44.337  60.096 -51.120  1.00  0.00    -0.006 A 
HETATM   28  C   UNL     1     -43.085  61.862 -50.103  1.00  0.00     0.059 C 
HETATM   29  C   UNL     1     -43.402  60.464 -52.196  1.00  0.00     0.043 C 
HETATM   30  C   UNL     1     -42.796  61.808 -51.646  1.00  0.00     0.011 C 
ENDBRANCH  21  22
ENDBRANCH  18  21
ENDBRANCH  16  17
ENDBRANCH   1  16
TORSDOF 7
ENDMDL
MODEL 8
REMARK VINA RESULT:      -8.1      2.690      7.597
REMARK  7 active torsions:
REMARK  status: ('A' for Active; 'I' for Inactive)
REMARK    1  A    between atoms: O_2  and  C_3 
REMARK    2  A    between atoms: C_6  and  C_7 
REMARK    3  A    between atoms: C_7  and  C_8 
REMARK    4  A    between atoms: C_7  and  C_14 
REMARK    5  A    between atoms: C_14  and  C_15 
REMARK       I    between atoms: C_15  and  N_16 
REMARK    6  A    between atoms: N_16  and  C_17 
REMARK    7  A    between atoms: C_17  and  C_18 
ROOT
HETATM    1  C   UNL     1     -42.666  56.693 -56.001  1.00  0.00     0.060 C 
ENDROOT
BRANCH   1   2
HETATM    2  C   UNL     1     -42.073  55.403 -55.425  1.00  0.00    -0.049 A 
HETATM    3  C   UNL     1     -42.944  54.343 -55.103  1.00  0.00     0.010 A 
HETATM    4  C   UNL     1     -42.466  53.141 -54.574  1.00  0.00     0.037 A 
HETATM    5  C   UNL     1     -41.103  52.953 -54.364  1.00  0.00     0.068 A 
HETATM    6  C   UNL     1     -40.222  53.976 -54.706  1.00  0.00     0.037 A 
HETATM    7  C   UNL     1     -40.702  55.183 -55.237  1.00  0.00     0.010 A 
BRANCH   5   8
HETATM    8  O   UNL     1     -40.763  51.738 -53.837  1.00  0.00    -0.356 OA
HETATM    9  C   UNL     1     -39.499  51.652 -53.191  1.00  0.00     0.210 C 
ENDBRANCH   5   8
ENDBRANCH   1   2
BRANCH   1  10
HETATM   10  C   UNL     1     -42.679  56.783 -57.531  1.00  0.00    -0.049 A 
HETATM   11  C   UNL     1     -43.237  55.787 -58.345  1.00  0.00     0.008 A 
HETATM   12  C   UNL     1     -43.230  55.913 -59.737  1.00  0.00     0.001 A 
HETATM   13  C   UNL     1     -42.664  57.035 -60.337  1.00  0.00     0.000 A 
HETATM   14  C   UNL     1     -42.104  58.034 -59.547  1.00  0.00     0.001 A 
HETATM   15  C   UNL     1     -42.112  57.909 -58.156  1.00  0.00     0.008 A 
ENDBRANCH   1  10
BRANCH   1  16
HETATM   16  C   UNL     1     -43.964  57.259 -55.385  1.00  0.00     0.116 C 
BRANCH  16  17
HETATM   17  C   UNL     1     -43.975  57.744 -53.948  1.00  0.00     0.218 C 
HETATM   18  N   UNL     1     -44.385  56.878 -52.980  1.00  0.00    -0.355 N 
HETATM   19  H   UNL     1     -44.542  55.895 -53.162  1.00  0.00     0.162 HD
HETATM   20  O   UNL     1     -43.676  58.911 -53.685  1.00  0.00    -0.274 OA
BRANCH  18  21
HETATM   21  C   UNL     1     -44.336  57.260 -51.585  1.00  0.00     0.184 C 
BRANCH  21  22
HETATM   22  C   UNL     1     -42.984  56.984 -51.011  1.00  0.00     0.080 A 
HETATM   23  N   UNL     1     -42.171  57.981 -50.586  1.00  0.00    -0.177 NA
HETATM   24  N   UNL     1     -41.075  57.351 -50.094  1.00  0.00    -0.281 N 
HETATM   25  H   UNL     1     -40.326  57.911 -49.702  1.00  0.00     0.189 HD
HETATM   26  C   UNL     1     -41.183  56.014 -50.211  1.00  0.00     0.036 A 
HETATM   27  C   UNL     1     -42.380  55.741 -50.794  1.00  0.00    -0.006 A 
HETATM   28  C   UNL     1     -40.368  54.846 -49.861  1.00  0.00     0.059 C 
HETATM   29  C   UNL     1     -42.593  54.293 -50.948  1.00  0.00     0.043 C 
HETATM   30  C   UNL     1     -41.162  53.724 -50.622  1.00  0.00     0.011 C 
ENDBRANCH  21  22
ENDBRANCH  18  21
ENDBRANCH  16  17
ENDBRANCH   1  16
TORSDOF 7
ENDMDL
MODEL 9
REMARK VINA RESULT:      -8.0      3.366      4.470
REMARK  7 active torsions:
REMARK  status: ('A' for Active; 'I' for Inactive)
REMARK    1  A    between atoms: O_2  and  C_3 
REMARK    2  A    between atoms: C_6  and  C_7 
REMARK    3  A    between atoms: C_7  and  C_8 
REMARK    4  A    between atoms: C_7  and  C_14 
REMARK    5  A    between atoms: C_14  and  C_15 
REMARK       I    between atoms: C_15  and  N_16 
REMARK    6  A    between atoms: N_16  and  C_17 
REMARK    7  A    between atoms: C_17  and  C_18 
ROOT
HETATM    1  C   UNL     1     -41.422  54.508 -53.773  1.00  0.00     0.060 C 
ENDROOT
BRANCH   1   2
HETATM    2  C   UNL     1     -41.323  55.593 -52.695  1.00  0.00    -0.049 A 
HETATM    3  C   UNL     1     -40.951  56.896 -53.079  1.00  0.00     0.010 A 
HETATM    4  C   UNL     1     -40.843  57.929 -52.144  1.00  0.00     0.037 A 
HETATM    5  C   UNL     1     -41.117  57.697 -50.799  1.00  0.00     0.068 A 
HETATM    6  C   UNL     1     -41.517  56.424 -50.404  1.00  0.00     0.037 A 
HETATM    7  C   UNL     1     -41.626  55.386 -51.343  1.00  0.00     0.010 A 
BRANCH   5   8
HETATM    8  O   UNL     1     -40.968  58.785 -49.985  1.00  0.00    -0.356 OA
HETATM    9  C   UNL     1     -40.003  59.752 -50.379  1.00  0.00     0.210 C 
ENDBRANCH   5   8
ENDBRANCH   1   2
BRANCH   1  10
HETATM   10  C   UNL     1     -40.760  53.170 -53.421  1.00  0.00    -0.049 A 
HETATM   11  C   UNL     1     -40.630  52.122 -54.343  1.00  0.00     0.008 A 
HETATM   12  C   UNL     1     -40.016  50.920 -53.979  1.00  0.00     0.001 A 
HETATM   13  C   UNL     1     -39.525  50.747 -52.688  1.00  0.00     0.000 A 
HETATM   14  C   UNL     1     -39.645  51.775 -51.758  1.00  0.00     0.001 A 
HETATM   15  C   UNL     1     -40.257  52.976 -52.121  1.00  0.00     0.008 A 
ENDBRANCH   1  10
BRANCH   1  16
HETATM   16  C   UNL     1     -42.766  54.304 -54.506  1.00  0.00     0.116 C 
BRANCH  16  17
HETATM   17  C   UNL     1     -43.503  55.496 -55.087  1.00  0.00     0.218 C 
HETATM   18  N   UNL     1     -44.496  56.061 -54.345  1.00  0.00    -0.355 N 
HETATM   19  H   UNL     1     -44.660  55.811 -53.378  1.00  0.00     0.162 HD
HETATM   20  O   UNL     1     -43.241  55.893 -56.225  1.00  0.00    -0.274 OA
BRANCH  18  21
HETATM   21  C   UNL     1     -45.175  57.249 -54.813  1.00  0.00     0.184 C 
BRANCH  21  22
HETATM   22  C   UNL     1     -44.487  58.479 -54.314  1.00  0.00     0.080 A 
HETATM   23  N   UNL     1     -43.802  59.301 -55.146  1.00  0.00    -0.177 NA
HETATM   24  N   UNL     1     -43.369  60.314 -54.355  1.00  0.00    -0.281 N 
HETATM   25  H   UNL     1     -42.836  61.067 -54.775  1.00  0.00     0.189 HD
HETATM   26  C   UNL     1     -43.752  60.138 -53.076  1.00  0.00     0.036 A 
HETATM   27  C   UNL     1     -44.461  58.979 -53.008  1.00  0.00    -0.006 A 
HETATM   28  C   UNL     1     -43.610  60.867 -51.812  1.00  0.00     0.059 C 
HETATM   29  C   UNL     1     -44.937  58.712 -51.642  1.00  0.00     0.043 C 
HETATM   30  C   UNL     1     -44.130  59.776 -50.809  1.00  0.00     0.011 C 
ENDBRANCH  21  22
ENDBRANCH  18  21
ENDBRANCH  16  17
ENDBRANCH   1  16
TORSDOF 7
ENDMDL
MODEL 10
REMARK VINA RESULT:      -8.0      2.646      5.063
REMARK  7 active torsions:
REMARK  status: ('A' for Active; 'I' for Inactive)
REMARK    1  A    between atoms: O_2  and  C_3 
REMARK    2  A    between atoms: C_6  and  C_7 
REMARK    3  A    between atoms: C_7  and  C_8 
REMARK    4  A    between atoms: C_7  and  C_14 
REMARK    5  A    between atoms: C_14  and  C_15 
REMARK       I    between atoms: C_15  and  N_16 
REMARK    6  A    between atoms: N_16  and  C_17 
REMARK    7  A    between atoms: C_17  and  C_18 
ROOT
HETATM    1  C   UNL     1     -42.766  55.105 -53.189  1.00  0.00     0.060 C 
ENDROOT
BRANCH   1   2
HETATM    2  C   UNL     1     -41.744  54.010 -52.867  1.00  0.00    -0.049 A 
HETATM    3  C   UNL     1     -41.406  53.777 -51.519  1.00  0.00     0.010 A 
HETATM    4  C   UNL     1     -40.480  52.793 -51.159  1.00  0.00     0.037 A 
HETATM    5  C   UNL     1     -39.874  52.002 -52.131  1.00  0.00     0.068 A 
HETATM    6  C   UNL     1     -40.219  52.196 -53.466  1.00  0.00     0.037 A 
HETATM    7  C   UNL     1     -41.149  53.183 -53.827  1.00  0.00     0.010 A 
BRANCH   5   8
HETATM    8  O   UNL     1     -38.983  51.083 -51.652  1.00  0.00    -0.356 OA
HETATM    9  C   UNL     1     -39.524  49.982 -50.933  1.00  0.00     0.210 C 
ENDBRANCH   5   8
ENDBRANCH   1   2
BRANCH   1  10
HETATM   10  C   UNL     1     -42.264  56.544 -53.018  1.00  0.00    -0.049 A 
HETATM   11  C   UNL     1     -43.035  57.550 -52.418  1.00  0.00     0.008 A 
HETATM   12  C   UNL     1     -42.534  58.848 -52.279  1.00  0.00     0.001 A 
HETATM   13  C   UNL     1     -41.258  59.160 -52.738  1.00  0.00     0.000 A 
HETATM   14  C   UNL     1     -40.478  58.176 -53.337  1.00  0.00     0.001 A 
HETATM   15  C   UNL     1     -40.976  56.879 -53.475  1.00  0.00     0.008 A 
ENDBRANCH   1  10
BRANCH   1  16
HETATM   16  C   UNL     1     -43.648  54.956 -54.449  1.00  0.00     0.116 C 
BRANCH  16  17
HETATM   17  C   UNL     1     -43.158  55.480 -55.785  1.00  0.00     0.218 C 
HETATM   18  N   UNL     1     -43.894  56.444 -56.406  1.00  0.00    -0.355 N 
HETATM   19  H   UNL     1     -44.664  56.918 -55.949  1.00  0.00     0.162 HD
HETATM   20  O   UNL     1     -42.154  54.996 -56.312  1.00  0.00    -0.274 OA
BRANCH  18  21
HETATM   21  C   UNL     1     -43.431  57.039 -57.640  1.00  0.00     0.184 C 
BRANCH  21  22
HETATM   22  C   UNL     1     -44.154  56.455 -58.811  1.00  0.00     0.080 A 
HETATM   23  N   UNL     1     -43.685  55.369 -59.471  1.00  0.00    -0.177 NA
HETATM   24  N   UNL     1     -44.617  55.109 -60.421  1.00  0.00    -0.281 N 
HETATM   25  H   UNL     1     -44.477  54.315 -61.037  1.00  0.00     0.189 HD
HETATM   26  C   UNL     1     -45.628  55.997 -60.374  1.00  0.00     0.036 A 
HETATM   27  C   UNL     1     -45.368  56.872 -59.366  1.00  0.00    -0.006 A 
HETATM   28  C   UNL     1     -46.883  56.221 -61.098  1.00  0.00     0.059 C 
HETATM   29  C   UNL     1     -46.436  57.876 -59.228  1.00  0.00     0.043 C 
HETATM   30  C   UNL     1     -47.267  57.639 -60.543  1.00  0.00     0.011 C 
ENDBRANCH  21  22
ENDBRANCH  18  21
ENDBRANCH  16  17
ENDBRANCH   1  16
TORSDOF 7
ENDMDL
