MODEL 1
REMARK VINA RESULT:      -8.2      0.000      0.000
REMARK  6 active torsions:
REMARK  status: ('A' for Active; 'I' for Inactive)
REMARK    1  A    between atoms: C_4  and  C_5 
REMARK    2  A    between atoms: C_5  and  C_6 
REMARK    3  A    between atoms: C_6  and  C_7 
REMARK    4  A    between atoms: C_7  and  C_8 
REMARK       I    between atoms: C_8  and  N_9 
REMARK    5  A    between atoms: N_9  and  C_10 
REMARK    6  A    between atoms: C_12  and  C_13 
ROOT
HETATM    1  C   UNL     1     -40.737  55.146 -49.005  1.00  0.00     0.222 C 
HETATM    2  N   UNL     1     -41.330  56.215 -49.602  1.00  0.00    -0.327 N 
HETATM    3  O   UNL     1     -41.121  54.862 -47.866  1.00  0.00    -0.273 OA
HETATM    4  H   UNL     1     -42.026  56.603 -48.972  1.00  0.00     0.169 HD
ENDROOT
BRANCH   2   5
HETATM    5  C   UNL     1     -41.176  56.897 -50.824  1.00  0.00     0.035 A 
HETATM    6  C   UNL     1     -41.536  56.421 -52.086  1.00  0.00     0.042 A 
HETATM    7  C   UNL     1     -41.301  57.183 -53.247  1.00  0.00    -0.021 A 
HETATM    8  C   UNL     1     -40.700  58.441 -53.132  1.00  0.00     0.012 A 
HETATM    9  C   UNL     1     -40.347  58.934 -51.880  1.00  0.00     0.003 A 
HETATM   10  C   UNL     1     -40.584  58.167 -50.738  1.00  0.00     0.029 A 
BRANCH   7  11
HETATM   11  C   UNL     1     -41.651  56.672 -54.561  1.00  0.00     0.010 A 
HETATM   12  C   UNL     1     -42.402  57.256 -55.608  1.00  0.00     0.152 A 
HETATM   13  N   UNL     1     -42.519  56.454 -56.670  1.00  0.00    -0.187 NA
HETATM   14  N   UNL     1     -41.846  55.352 -56.307  1.00  0.00    -0.289 N 
HETATM   15  H   UNL     1     -41.797  54.579 -56.964  1.00  0.00     0.188 HD
HETATM   16  C   UNL     1     -41.306  55.431 -55.054  1.00  0.00     0.123 A 
ENDBRANCH   7  11
ENDBRANCH   2   5
BRANCH   1  17
HETATM   17  C   UNL     1     -39.662  54.339 -49.699  1.00  0.00     0.103 C 
BRANCH  17  18
HETATM   18  C   UNL     1     -40.195  53.090 -50.408  1.00  0.00     0.014 C 
BRANCH  18  19
HETATM   19  C   UNL     1     -40.251  53.238 -51.934  1.00  0.00     0.039 C 
BRANCH  19  20
HETATM   20  C   UNL     1     -39.994  51.918 -52.621  1.00  0.00    -0.058 A 
HETATM   21  C   UNL     1     -40.146  51.806 -54.011  1.00  0.00     0.007 A 
HETATM   22  C   UNL     1     -39.935  50.583 -54.650  1.00  0.00     0.001 A 
HETATM   23  C   UNL     1     -39.569  49.463 -53.908  1.00  0.00     0.000 A 
HETATM   24  C   UNL     1     -39.414  49.563 -52.526  1.00  0.00     0.001 A 
HETATM   25  C   UNL     1     -39.627  50.785 -51.884  1.00  0.00     0.007 A 
ENDBRANCH  19  20
ENDBRANCH  18  19
ENDBRANCH  17  18
ENDBRANCH   1  17
TORSDOF 6
ENDMDL
MODEL 2
REMARK VINA RESULT:      -8.0      2.624      4.592
REMARK  6 active torsions:
REMARK  status: ('A' for Active; 'I' for Inactive)
REMARK    1  A    between atoms: C_4  and  C_5 
REMARK    2  A    between atoms: C_5  and  C_6 
REMARK    3  A    between atoms: C_6  and  C_7 
REMARK    4  A    between atoms: C_7  and  C_8 
REMARK       I    between atoms: C_8  and  N_9 
REMARK    5  A    between atoms: N_9  and  C_10 
REMARK    6  A    between atoms: C_12  and  C_13 
ROOT
HETATM    1  C   UNL     1     -42.882  54.356 -55.234  1.00  0.00     0.222 C 
HETATM    2  N   UNL     1     -43.443  54.549 -54.009  1.00  0.00    -0.327 N 
HETATM    3  O   UNL     1     -43.586  53.806 -56.087  1.00  0.00    -0.273 OA
HETATM    4  H   UNL     1     -44.394  54.193 -54.020  1.00  0.00     0.169 HD
ENDROOT
BRANCH   2   5
HETATM    5  C   UNL     1     -43.008  55.070 -52.775  1.00  0.00     0.035 A 
HETATM    6  C   UNL     1     -42.537  56.364 -52.546  1.00  0.00     0.042 A 
HETATM    7  C   UNL     1     -42.095  56.763 -51.270  1.00  0.00    -0.021 A 
HETATM    8  C   UNL     1     -42.134  55.848 -50.213  1.00  0.00     0.012 A 
HETATM    9  C   UNL     1     -42.614  54.559 -50.423  1.00  0.00     0.003 A 
HETATM   10  C   UNL     1     -43.046  54.176 -51.693  1.00  0.00     0.029 A 
BRANCH   7  11
HETATM   11  C   UNL     1     -41.578  58.102 -51.042  1.00  0.00     0.010 A 
HETATM   12  C   UNL     1     -40.251  58.562 -50.873  1.00  0.00     0.152 A 
HETATM   13  N   UNL     1     -40.183  59.881 -50.668  1.00  0.00    -0.187 NA
HETATM   14  N   UNL     1     -41.467  60.270 -50.702  1.00  0.00    -0.289 N 
HETATM   15  H   UNL     1     -41.674  61.254 -50.563  1.00  0.00     0.188 HD
HETATM   16  C   UNL     1     -42.341  59.244 -50.923  1.00  0.00     0.123 A 
ENDBRANCH   7  11
ENDBRANCH   2   5
BRANCH   1  17
HETATM   17  C   UNL     1     -41.468  54.796 -55.542  1.00  0.00     0.103 C 
BRANCH  17  18
HETATM   18  C   UNL     1     -40.411  53.736 -55.214  1.00  0.00     0.014 C 
BRANCH  18  19
HETATM   19  C   UNL     1     -40.102  53.633 -53.715  1.00  0.00     0.039 C 
BRANCH  19  20
HETATM   20  C   UNL     1     -39.918  52.196 -53.292  1.00  0.00    -0.058 A 
HETATM   21  C   UNL     1     -40.019  51.165 -54.237  1.00  0.00     0.007 A 
HETATM   22  C   UNL     1     -39.875  49.832 -53.849  1.00  0.00     0.001 A 
HETATM   23  C   UNL     1     -39.627  49.517 -52.516  1.00  0.00     0.000 A 
HETATM   24  C   UNL     1     -39.522  50.534 -51.568  1.00  0.00     0.001 A 
HETATM   25  C   UNL     1     -39.669  51.868 -51.954  1.00  0.00     0.007 A 
ENDBRANCH  19  20
ENDBRANCH  18  19
ENDBRANCH  17  18
ENDBRANCH   1  17
TORSDOF 6
ENDMDL
MODEL 3
REMARK VINA RESULT:      -7.9      2.960      5.726
REMARK  6 active torsions:
REMARK  status: ('A' for Active; 'I' for Inactive)
REMARK    1  A    between atoms: C_4  and  C_5 
REMARK    2  A    between atoms: C_5  and  C_6 
REMARK    3  A    between atoms: C_6  and  C_7 
REMARK    4  A    between atoms: C_7  and  C_8 
REMARK       I    between atoms: C_8  and  N_9 
REMARK    5  A    between atoms: N_9  and  C_10 
REMARK    6  A    between atoms: C_12  and  C_13 
ROOT
HETATM    1  C   UNL     1     -41.292  58.536 -53.637  1.00  0.00     0.222 C 
HETATM    2  N   UNL     1     -40.730  57.335 -53.946  1.00  0.00    -0.327 N 
HETATM    3  O   UNL     1     -40.522  59.492 -53.504  1.00  0.00    -0.273 OA
HETATM    4  H   UNL     1     -39.724  57.450 -54.024  1.00  0.00     0.169 HD
ENDROOT
BRANCH   2   5
HETATM    5  C   UNL     1     -41.204  56.022 -54.134  1.00  0.00     0.035 A 
HETATM    6  C   UNL     1     -40.585  54.851 -53.692  1.00  0.00     0.042 A 
HETATM    7  C   UNL     1     -41.139  53.585 -53.971  1.00  0.00    -0.021 A 
HETATM    8  C   UNL     1     -42.331  53.503 -54.698  1.00  0.00     0.012 A 
HETATM    9  C   UNL     1     -42.965  54.662 -55.133  1.00  0.00     0.003 A 
HETATM   10  C   UNL     1     -42.404  55.909 -54.852  1.00  0.00     0.029 A 
BRANCH   7  11
HETATM   11  C   UNL     1     -40.477  52.368 -53.534  1.00  0.00     0.010 A 
HETATM   12  C   UNL     1     -39.839  52.053 -52.312  1.00  0.00     0.152 A 
HETATM   13  N   UNL     1     -39.330  50.817 -52.298  1.00  0.00    -0.187 NA
HETATM   14  N   UNL     1     -39.638  50.337 -53.513  1.00  0.00    -0.289 N 
HETATM   15  H   UNL     1     -39.344  49.394 -53.745  1.00  0.00     0.188 HD
HETATM   16  C   UNL     1     -40.324  51.225 -54.291  1.00  0.00     0.123 A 
ENDBRANCH   7  11
ENDBRANCH   2   5
BRANCH   1  17
HETATM   17  C   UNL     1     -42.786  58.696 -53.466  1.00  0.00     0.103 C 
BRANCH  17  18
HETATM   18  C   UNL     1     -43.245  58.648 -52.005  1.00  0.00     0.014 C 
BRANCH  18  19
HETATM   19  C   UNL     1     -44.014  57.369 -51.654  1.00  0.00     0.039 C 
BRANCH  19  20
HETATM   20  C   UNL     1     -43.090  56.309 -51.103  1.00  0.00    -0.058 A 
HETATM   21  C   UNL     1     -43.441  54.954 -51.189  1.00  0.00     0.007 A 
HETATM   22  C   UNL     1     -42.604  53.970 -50.661  1.00  0.00     0.001 A 
HETATM   23  C   UNL     1     -41.409  54.330 -50.044  1.00  0.00     0.000 A 
HETATM   24  C   UNL     1     -41.048  55.674 -49.954  1.00  0.00     0.001 A 
HETATM   25  C   UNL     1     -41.886  56.660 -50.480  1.00  0.00     0.007 A 
ENDBRANCH  19  20
ENDBRANCH  18  19
ENDBRANCH  17  18
ENDBRANCH   1  17
TORSDOF 6
ENDMDL
MODEL 4
REMARK VINA RESULT:      -7.9      2.647      5.067
REMARK  6 active torsions:
REMARK  status: ('A' for Active; 'I' for Inactive)
REMARK    1  A    between atoms: C_4  and  C_5 
REMARK    2  A    between atoms: C_5  and  C_6 
REMARK    3  A    between atoms: C_6  and  C_7 
REMARK    4  A    between atoms: C_7  and  C_8 
REMARK       I    between atoms: C_8  and  N_9 
REMARK    5  A    between atoms: N_9  and  C_10 
REMARK    6  A    between atoms: C_12  and  C_13 
ROOT
HETATM    1  C   UNL     1     -39.765  51.856 -53.517  1.00  0.00     0.222 C 
HETATM    2  N   UNL     1     -40.189  52.741 -54.461  1.00  0.00    -0.327 N 
HETATM    3  O   UNL     1     -38.973  50.985 -53.888  1.00  0.00    -0.273 OA
HETATM    4  H   UNL     1     -39.747  52.518 -55.347  1.00  0.00     0.169 HD
ENDROOT
BRANCH   2   5
HETATM    5  C   UNL     1     -41.091  53.822 -54.492  1.00  0.00     0.035 A 
HETATM    6  C   UNL     1     -40.777  55.166 -54.281  1.00  0.00     0.042 A 
HETATM    7  C   UNL     1     -41.775  56.160 -54.304  1.00  0.00    -0.021 A 
HETATM    8  C   UNL     1     -43.103  55.794 -54.547  1.00  0.00     0.012 A 
HETATM    9  C   UNL     1     -43.429  54.460 -54.771  1.00  0.00     0.003 A 
HETATM   10  C   UNL     1     -42.431  53.485 -54.744  1.00  0.00     0.029 A 
BRANCH   7  11
HETATM   11  C   UNL     1     -41.448  57.553 -54.055  1.00  0.00     0.010 A 
HETATM   12  C   UNL     1     -40.409  58.135 -53.291  1.00  0.00     0.152 A 
HETATM   13  N   UNL     1     -40.450  59.470 -53.293  1.00  0.00    -0.187 NA
HETATM   14  N   UNL     1     -41.518  59.749 -54.056  1.00  0.00    -0.289 N 
HETATM   15  H   UNL     1     -41.761  60.724 -54.204  1.00  0.00     0.188 HD
HETATM   16  C   UNL     1     -42.150  58.638 -54.537  1.00  0.00     0.123 A 
ENDBRANCH   7  11
ENDBRANCH   2   5
BRANCH   1  17
HETATM   17  C   UNL     1     -40.236  51.935 -52.081  1.00  0.00     0.103 C 
BRANCH  17  18
HETATM   18  C   UNL     1     -39.590  53.073 -51.286  1.00  0.00     0.014 C 
BRANCH  18  19
HETATM   19  C   UNL     1     -40.393  53.476 -50.043  1.00  0.00     0.039 C 
BRANCH  19  20
HETATM   20  C   UNL     1     -41.442  54.509 -50.380  1.00  0.00    -0.058 A 
HETATM   21  C   UNL     1     -41.144  55.875 -50.276  1.00  0.00     0.007 A 
HETATM   22  C   UNL     1     -42.115  56.836 -50.562  1.00  0.00     0.001 A 
HETATM   23  C   UNL     1     -43.391  56.441 -50.955  1.00  0.00     0.000 A 
HETATM   24  C   UNL     1     -43.698  55.085 -51.064  1.00  0.00     0.001 A 
HETATM   25  C   UNL     1     -42.729  54.123 -50.776  1.00  0.00     0.007 A 
ENDBRANCH  19  20
ENDBRANCH  18  19
ENDBRANCH  17  18
ENDBRANCH   1  17
TORSDOF 6
ENDMDL
MODEL 5
REMARK VINA RESULT:      -7.8      2.682      5.289
REMARK  6 active torsions:
REMARK  status: ('A' for Active; 'I' for Inactive)
REMARK    1  A    between atoms: C_4  and  C_5 
REMARK    2  A    between atoms: C_5  and  C_6 
REMARK    3  A    between atoms: C_6  and  C_7 
REMARK    4  A    between atoms: C_7  and  C_8 
REMARK       I    between atoms: C_8  and  N_9 
REMARK    5  A    between atoms: N_9  and  C_10 
REMARK    6  A    between atoms: C_12  and  C_13 
ROOT
HETATM    1  C   UNL     1     -40.741  58.695 -50.886  1.00  0.00     0.222 C 
HETATM    2  N   UNL     1     -41.192  57.609 -50.199  1.00  0.00    -0.327 N 
HETATM    3  O   UNL     1     -40.453  59.693 -50.218  1.00  0.00    -0.273 OA
HETATM    4  H   UNL     1     -41.204  57.825 -49.208  1.00  0.00     0.169 HD
ENDROOT
BRANCH   2   5
HETATM    5  C   UNL     1     -41.663  56.327 -50.543  1.00  0.00     0.035 A 
HETATM    6  C   UNL     1     -40.884  55.182 -50.718  1.00  0.00     0.042 A 
HETATM    7  C   UNL     1     -41.465  53.956 -51.097  1.00  0.00    -0.021 A 
HETATM    8  C   UNL     1     -42.847  53.885 -51.297  1.00  0.00     0.012 A 
HETATM    9  C   UNL     1     -43.638  55.015 -51.114  1.00  0.00     0.003 A 
HETATM   10  C   UNL     1     -43.049  56.223 -50.740  1.00  0.00     0.029 A 
BRANCH   7  11
HETATM   11  C   UNL     1     -40.647  52.773 -51.306  1.00  0.00     0.010 A 
HETATM   12  C   UNL     1     -39.984  52.303 -52.463  1.00  0.00     0.152 A 
HETATM   13  N   UNL     1     -39.336  51.153 -52.257  1.00  0.00    -0.187 NA
HETATM   14  N   UNL     1     -39.584  50.880 -50.967  1.00  0.00    -0.289 N 
HETATM   15  H   UNL     1     -39.192  50.032 -50.571  1.00  0.00     0.188 HD
HETATM   16  C   UNL     1     -40.364  51.819 -50.352  1.00  0.00     0.123 A 
ENDBRANCH   7  11
ENDBRANCH   2   5
BRANCH   1  17
HETATM   17  C   UNL     1     -40.594  58.682 -52.391  1.00  0.00     0.103 C 
BRANCH  17  18
HETATM   18  C   UNL     1     -41.932  58.694 -53.137  1.00  0.00     0.014 C 
BRANCH  18  19
HETATM   19  C   UNL     1     -41.823  58.197 -54.584  1.00  0.00     0.039 C 
BRANCH  19  20
HETATM   20  C   UNL     1     -42.029  56.703 -54.666  1.00  0.00    -0.058 A 
HETATM   21  C   UNL     1     -40.924  55.842 -54.741  1.00  0.00     0.007 A 
HETATM   22  C   UNL     1     -41.107  54.463 -54.843  1.00  0.00     0.001 A 
HETATM   23  C   UNL     1     -42.393  53.930 -54.868  1.00  0.00     0.000 A 
HETATM   24  C   UNL     1     -43.499  54.776 -54.792  1.00  0.00     0.001 A 
HETATM   25  C   UNL     1     -43.318  56.157 -54.693  1.00  0.00     0.007 A 
ENDBRANCH  19  20
ENDBRANCH  18  19
ENDBRANCH  17  18
ENDBRANCH   1  17
TORSDOF 6
ENDMDL
MODEL 6
REMARK VINA RESULT:      -7.8      3.476      5.671
REMARK  6 active torsions:
REMARK  status: ('A' for Active; 'I' for Inactive)
REMARK    1  A    between atoms: C_4  and  C_5 
REMARK    2  A    between atoms: C_5  and  C_6 
REMARK    3  A    between atoms: C_6  and  C_7 
REMARK    4  A    between atoms: C_7  and  C_8 
REMARK       I    between atoms: C_8  and  N_9 
REMARK    5  A    between atoms: N_9  and  C_10 
REMARK    6  A    between atoms: C_12  and  C_13 
ROOT
HETATM    1  C   UNL     1     -42.747  54.762 -55.880  1.00  0.00     0.222 C 
HETATM    2  N   UNL     1     -43.218  55.275 -57.049  1.00  0.00    -0.327 N 
HETATM    3  O   UNL     1     -43.402  53.847 -55.371  1.00  0.00    -0.273 OA
HETATM    4  H   UNL     1     -44.065  54.781 -57.311  1.00  0.00     0.169 HD
ENDROOT
BRANCH   2   5
HETATM    5  C   UNL     1     -42.833  56.316 -57.917  1.00  0.00     0.035 A 
HETATM    6  C   UNL     1     -42.545  57.631 -57.550  1.00  0.00     0.042 A 
HETATM    7  C   UNL     1     -42.203  58.599 -58.515  1.00  0.00    -0.021 A 
HETATM    8  C   UNL     1     -42.146  58.232 -59.864  1.00  0.00     0.012 A 
HETATM    9  C   UNL     1     -42.419  56.921 -60.243  1.00  0.00     0.003 A 
HETATM   10  C   UNL     1     -42.759  55.974 -59.276  1.00  0.00     0.029 A 
BRANCH   7  11
HETATM   11  C   UNL     1     -41.931  59.974 -58.132  1.00  0.00     0.010 A 
HETATM   12  C   UNL     1     -41.370  61.043 -58.869  1.00  0.00     0.152 A 
HETATM   13  N   UNL     1     -41.267  62.167 -58.154  1.00  0.00    -0.187 NA
HETATM   14  N   UNL     1     -41.759  61.821 -56.954  1.00  0.00    -0.289 N 
HETATM   15  H   UNL     1     -41.781  62.524 -56.223  1.00  0.00     0.188 HD
HETATM   16  C   UNL     1     -42.171  60.520 -56.889  1.00  0.00     0.123 A 
ENDBRANCH   7  11
ENDBRANCH   2   5
BRANCH   1  17
HETATM   17  C   UNL     1     -41.481  55.280 -55.233  1.00  0.00     0.103 C 
BRANCH  17  18
HETATM   18  C   UNL     1     -40.459  54.183 -54.920  1.00  0.00     0.014 C 
BRANCH  18  19
HETATM   19  C   UNL     1     -40.427  53.790 -53.438  1.00  0.00     0.039 C 
BRANCH  19  20
HETATM   20  C   UNL     1     -40.168  52.312 -53.269  1.00  0.00    -0.058 A 
HETATM   21  C   UNL     1     -39.710  51.812 -52.042  1.00  0.00     0.007 A 
HETATM   22  C   UNL     1     -39.444  50.451 -51.886  1.00  0.00     0.001 A 
HETATM   23  C   UNL     1     -39.636  49.577 -52.953  1.00  0.00     0.000 A 
HETATM   24  C   UNL     1     -40.093  50.062 -54.177  1.00  0.00     0.001 A 
HETATM   25  C   UNL     1     -40.356  51.424 -54.336  1.00  0.00     0.007 A 
ENDBRANCH  19  20
ENDBRANCH  18  19
ENDBRANCH  17  18
ENDBRANCH   1  17
TORSDOF 6
ENDMDL
MODEL 7
REMARK VINA RESULT:      -7.8      2.517      3.836
REMARK  6 active torsions:
REMARK  status: ('A' for Active; 'I' for Inactive)
REMARK    1  A    between atoms: C_4  and  C_5 
REMARK    2  A    between atoms: C_5  and  C_6 
REMARK    3  A    between atoms: C_6  and  C_7 
REMARK    4  A    between atoms: C_7  and  C_8 
REMARK       I    between atoms: C_8  and  N_9 
REMARK    5  A    between atoms: N_9  and  C_10 
REMARK    6  A    between atoms: C_12  and  C_13 
ROOT
HETATM    1  C   UNL     1     -43.915  56.497 -51.506  1.00  0.00     0.222 C 
HETATM    2  N   UNL     1     -44.382  56.436 -52.783  1.00  0.00    -0.327 N 
HETATM    3  O   UNL     1     -44.720  56.841 -50.635  1.00  0.00    -0.273 OA
HETATM    4  H   UNL     1     -45.364  56.691 -52.789  1.00  0.00     0.169 HD
ENDROOT
BRANCH   2   5
HETATM    5  C   UNL     1     -43.824  56.151 -54.044  1.00  0.00     0.035 A 
HETATM    6  C   UNL     1     -43.424  57.087 -54.999  1.00  0.00     0.042 A 
HETATM    7  C   UNL     1     -42.909  56.681 -56.246  1.00  0.00    -0.021 A 
HETATM    8  C   UNL     1     -42.792  55.316 -56.529  1.00  0.00     0.012 A 
HETATM    9  C   UNL     1     -43.176  54.372 -55.581  1.00  0.00     0.003 A 
HETATM   10  C   UNL     1     -43.687  54.788 -54.351  1.00  0.00     0.029 A 
BRANCH   7  11
HETATM   11  C   UNL     1     -42.520  57.658 -57.248  1.00  0.00     0.010 A 
HETATM   12  C   UNL     1     -42.400  57.541 -58.653  1.00  0.00     0.152 A 
HETATM   13  N   UNL     1     -41.996  58.674 -59.234  1.00  0.00    -0.187 NA
HETATM   14  N   UNL     1     -41.852  59.521 -58.203  1.00  0.00    -0.289 N 
HETATM   15  H   UNL     1     -41.539  60.467 -58.398  1.00  0.00     0.188 HD
HETATM   16  C   UNL     1     -42.153  58.962 -56.994  1.00  0.00     0.123 A 
ENDBRANCH   7  11
ENDBRANCH   2   5
BRANCH   1  17
HETATM   17  C   UNL     1     -42.481  56.157 -51.164  1.00  0.00     0.103 C 
BRANCH  17  18
HETATM   18  C   UNL     1     -42.251  54.666 -50.896  1.00  0.00     0.014 C 
BRANCH  18  19
HETATM   19  C   UNL     1     -40.767  54.287 -50.814  1.00  0.00     0.039 C 
BRANCH  19  20
HETATM   20  C   UNL     1     -40.406  53.259 -51.860  1.00  0.00    -0.058 A 
HETATM   21  C   UNL     1     -39.892  52.013 -51.475  1.00  0.00     0.007 A 
HETATM   22  C   UNL     1     -39.532  51.068 -52.437  1.00  0.00     0.001 A 
HETATM   23  C   UNL     1     -39.684  51.358 -53.790  1.00  0.00     0.000 A 
HETATM   24  C   UNL     1     -40.197  52.593 -54.184  1.00  0.00     0.001 A 
HETATM   25  C   UNL     1     -40.554  53.541 -53.223  1.00  0.00     0.007 A 
ENDBRANCH  19  20
ENDBRANCH  18  19
ENDBRANCH  17  18
ENDBRANCH   1  17
TORSDOF 6
ENDMDL
MODEL 8
REMARK VINA RESULT:      -7.8      1.685      2.583
REMARK  6 active torsions:
REMARK  status: ('A' for Active; 'I' for Inactive)
REMARK    1  A    between atoms: C_4  and  C_5 
REMARK    2  A    between atoms: C_5  and  C_6 
REMARK    3  A    between atoms: C_6  and  C_7 
REMARK    4  A    between atoms: C_7  and  C_8 
REMARK       I    between atoms: C_8  and  N_9 
REMARK    5  A    between atoms: N_9  and  C_10 
REMARK    6  A    between atoms: C_12  and  C_13 
ROOT
HETATM    1  C   UNL     1     -40.886  54.948 -49.179  1.00  0.00     0.222 C 
HETATM    2  N   UNL     1     -41.526  56.098 -49.528  1.00  0.00    -0.327 N 
HETATM    3  O   UNL     1     -41.079  54.531 -48.032  1.00  0.00    -0.273 OA
HETATM    4  H   UNL     1     -42.084  56.419 -48.743  1.00  0.00     0.169 HD
ENDROOT
BRANCH   2   5
HETATM    5  C   UNL     1     -41.555  56.926 -50.667  1.00  0.00     0.035 A 
HETATM    6  C   UNL     1     -42.468  56.847 -51.721  1.00  0.00     0.042 A 
HETATM    7  C   UNL     1     -42.377  57.712 -52.830  1.00  0.00    -0.021 A 
HETATM    8  C   UNL     1     -41.357  58.668 -52.872  1.00  0.00     0.012 A 
HETATM    9  C   UNL     1     -40.448  58.766 -51.823  1.00  0.00     0.003 A 
HETATM   10  C   UNL     1     -40.549  57.902 -50.732  1.00  0.00     0.029 A 
BRANCH   7  11
HETATM   11  C   UNL     1     -43.311  57.607 -53.937  1.00  0.00     0.010 A 
HETATM   12  C   UNL     1     -43.144  57.887 -55.314  1.00  0.00     0.152 A 
HETATM   13  N   UNL     1     -44.258  57.678 -56.023  1.00  0.00    -0.187 NA
HETATM   14  N   UNL     1     -45.143  57.267 -55.102  1.00  0.00    -0.289 N 
HETATM   15  H   UNL     1     -46.086  57.048 -55.406  1.00  0.00     0.188 HD
HETATM   16  C   UNL     1     -44.627  57.207 -53.839  1.00  0.00     0.123 A 
ENDBRANCH   7  11
ENDBRANCH   2   5
BRANCH   1  17
HETATM   17  C   UNL     1     -39.984  54.212 -50.145  1.00  0.00     0.103 C 
BRANCH  17  18
HETATM   18  C   UNL     1     -40.613  52.940 -50.722  1.00  0.00     0.014 C 
BRANCH  18  19
HETATM   19  C   UNL     1     -39.984  52.504 -52.051  1.00  0.00     0.039 C 
BRANCH  19  20
HETATM   20  C   UNL     1     -40.631  53.207 -53.220  1.00  0.00    -0.058 A 
HETATM   21  C   UNL     1     -41.998  53.521 -53.185  1.00  0.00     0.007 A 
HETATM   22  C   UNL     1     -42.608  54.148 -54.272  1.00  0.00     0.001 A 
HETATM   23  C   UNL     1     -41.860  54.470 -55.401  1.00  0.00     0.000 A 
HETATM   24  C   UNL     1     -40.501  54.165 -55.447  1.00  0.00     0.001 A 
HETATM   25  C   UNL     1     -39.889  53.534 -54.361  1.00  0.00     0.007 A 
ENDBRANCH  19  20
ENDBRANCH  18  19
ENDBRANCH  17  18
ENDBRANCH   1  17
TORSDOF 6
ENDMDL
MODEL 9
REMARK VINA RESULT:      -7.7      3.310      5.572
REMARK  6 active torsions:
REMARK  status: ('A' for Active; 'I' for Inactive)
REMARK    1  A    between atoms: C_4  and  C_5 
REMARK    2  A    between atoms: C_5  and  C_6 
REMARK    3  A    between atoms: C_6  and  C_7 
REMARK    4  A    between atoms: C_7  and  C_8 
REMARK       I    between atoms: C_8  and  N_9 
REMARK    5  A    between atoms: N_9  and  C_10 
REMARK    6  A    between atoms: C_12  and  C_13 
ROOT
HETATM    1  C   UNL     1     -42.742  55.590 -56.320  1.00  0.00     0.222 C 
HETATM    2  N   UNL     1     -42.543  56.812 -55.755  1.00  0.00    -0.327 N 
HETATM    3  O   UNL     1     -42.917  55.564 -57.542  1.00  0.00    -0.273 OA
HETATM    4  H   UNL     1     -42.568  57.521 -56.482  1.00  0.00     0.169 HD
ENDROOT
BRANCH   2   5
HETATM    5  C   UNL     1     -42.359  57.297 -54.446  1.00  0.00     0.035 A 
HETATM    6  C   UNL     1     -43.365  57.699 -53.566  1.00  0.00     0.042 A 
HETATM    7  C   UNL     1     -43.056  58.201 -52.286  1.00  0.00    -0.021 A 
HETATM    8  C   UNL     1     -41.718  58.293 -51.890  1.00  0.00     0.012 A 
HETATM    9  C   UNL     1     -40.705  57.883 -52.752  1.00  0.00     0.003 A 
HETATM   10  C   UNL     1     -41.025  57.390 -54.017  1.00  0.00     0.029 A 
BRANCH   7  11
HETATM   11  C   UNL     1     -44.104  58.646 -51.385  1.00  0.00     0.010 A 
HETATM   12  C   UNL     1     -45.312  58.021 -50.994  1.00  0.00     0.152 A 
HETATM   13  N   UNL     1     -46.029  58.765 -50.147  1.00  0.00    -0.187 NA
HETATM   14  N   UNL     1     -45.285  59.871 -49.994  1.00  0.00    -0.289 N 
HETATM   15  H   UNL     1     -45.634  60.604 -49.385  1.00  0.00     0.188 HD
HETATM   16  C   UNL     1     -44.124  59.850 -50.712  1.00  0.00     0.123 A 
ENDBRANCH   7  11
ENDBRANCH   2   5
BRANCH   1  17
HETATM   17  C   UNL     1     -42.745  54.321 -55.495  1.00  0.00     0.103 C 
BRANCH  17  18
HETATM   18  C   UNL     1     -41.369  53.951 -54.935  1.00  0.00     0.014 C 
BRANCH  18  19
HETATM   19  C   UNL     1     -41.441  53.023 -53.715  1.00  0.00     0.039 C 
BRANCH  19  20
HETATM   20  C   UNL     1     -41.699  53.804 -52.449  1.00  0.00    -0.058 A 
HETATM   21  C   UNL     1     -40.627  54.232 -51.653  1.00  0.00     0.007 A 
HETATM   22  C   UNL     1     -40.859  54.932 -50.468  1.00  0.00     0.001 A 
HETATM   23  C   UNL     1     -42.163  55.212 -50.068  1.00  0.00     0.000 A 
HETATM   24  C   UNL     1     -43.237  54.793 -50.852  1.00  0.00     0.001 A 
HETATM   25  C   UNL     1     -43.007  54.090 -52.037  1.00  0.00     0.007 A 
ENDBRANCH  19  20
ENDBRANCH  18  19
ENDBRANCH  17  18
ENDBRANCH   1  17
TORSDOF 6
ENDMDL
MODEL 10
REMARK VINA RESULT:      -7.7      3.131      4.793
REMARK  6 active torsions:
REMARK  status: ('A' for Active; 'I' for Inactive)
REMARK    1  A    between atoms: C_4  and  C_5 
REMARK    2  A    between atoms: C_5  and  C_6 
REMARK    3  A    between atoms: C_6  and  C_7 
REMARK    4  A    between atoms: C_7  and  C_8 
REMARK       I    between atoms: C_8  and  N_9 
REMARK    5  A    between atoms: N_9  and  C_10 
REMARK    6  A    between atoms: C_12  and  C_13 
ROOT
HETATM    1  C   UNL     1     -42.744  55.371 -55.985  1.00  0.00     0.222 C 
HETATM    2  N   UNL     1     -42.694  56.665 -55.564  1.00  0.00    -0.327 N 
HETATM    3  O   UNL     1     -43.039  55.183 -57.169  1.00  0.00    -0.273 OA
HETATM    4  H   UNL     1     -42.912  57.276 -56.345  1.00  0.00     0.169 HD
ENDROOT
BRANCH   2   5
HETATM    5  C   UNL     1     -42.458  57.314 -54.337  1.00  0.00     0.035 A 
HETATM    6  C   UNL     1     -43.429  57.729 -53.423  1.00  0.00     0.042 A 
HETATM    7  C   UNL     1     -43.073  58.403 -52.238  1.00  0.00    -0.021 A 
HETATM    8  C   UNL     1     -41.724  58.656 -51.972  1.00  0.00     0.012 A 
HETATM    9  C   UNL     1     -40.745  58.237 -52.868  1.00  0.00     0.003 A 
HETATM   10  C   UNL     1     -41.111  57.572 -54.038  1.00  0.00     0.029 A 
BRANCH   7  11
HETATM   11  C   UNL     1     -44.088  58.858 -51.304  1.00  0.00     0.010 A 
HETATM   12  C   UNL     1     -45.335  58.292 -50.948  1.00  0.00     0.152 A 
HETATM   13  N   UNL     1     -45.999  59.026 -50.051  1.00  0.00    -0.187 NA
HETATM   14  N   UNL     1     -45.181  60.067 -49.831  1.00  0.00    -0.289 N 
HETATM   15  H   UNL     1     -45.479  60.781 -49.174  1.00  0.00     0.188 HD
HETATM   16  C   UNL     1     -44.025  60.014 -50.555  1.00  0.00     0.123 A 
ENDBRANCH   7  11
ENDBRANCH   2   5
BRANCH   1  17
HETATM   17  C   UNL     1     -42.451  54.217 -55.052  1.00  0.00     0.103 C 
BRANCH  17  18
HETATM   18  C   UNL     1     -40.957  53.920 -54.894  1.00  0.00     0.014 C 
BRANCH  18  19
HETATM   19  C   UNL     1     -40.535  53.692 -53.437  1.00  0.00     0.039 C 
BRANCH  19  20
HETATM   20  C   UNL     1     -40.179  52.245 -53.191  1.00  0.00    -0.058 A 
HETATM   21  C   UNL     1     -40.268  51.310 -54.233  1.00  0.00     0.007 A 
HETATM   22  C   UNL     1     -39.965  49.967 -54.007  1.00  0.00     0.001 A 
HETATM   23  C   UNL     1     -39.569  49.545 -52.741  1.00  0.00     0.000 A 
HETATM   24  C   UNL     1     -39.475  50.466 -51.698  1.00  0.00     0.001 A 
HETATM   25  C   UNL     1     -39.781  51.810 -51.921  1.00  0.00     0.007 A 
ENDBRANCH  19  20
ENDBRANCH  18  19
ENDBRANCH  17  18
ENDBRANCH   1  17
TORSDOF 6
ENDMDL
