MODEL 1
REMARK VINA RESULT:      -9.3      0.000      0.000
REMARK  5 active torsions:
REMARK  status: ('A' for Active; 'I' for Inactive)
REMARK    1  A    between atoms: C_4  and  N_5 
REMARK    2  A    between atoms: C_7  and  C_8 
REMARK       I    between atoms: C_8  and  N_9 
REMARK    3  A    between atoms: N_9  and  N_10 
REMARK       I    between atoms: N_10  and  C_11 
REMARK    4  A    between atoms: C_11  and  C_12 
REMARK    5  A    between atoms: C_16  and  C_17 
ROOT
HETATM    1  C   UNL     1     -44.831  58.355 -50.948  1.00  0.00     0.286 C 
HETATM    2  N   UNL     1     -43.456  58.310 -50.928  1.00  0.00    -0.262 N 
HETATM    3  O   UNL     1     -45.556  57.370 -50.888  1.00  0.00    -0.264 OA
HETATM    4  H   UNL     1     -42.874  59.145 -51.004  1.00  0.00     0.190 HD
ENDROOT
BRANCH   2   5
HETATM    5  N   UNL     1     -42.844  57.058 -50.854  1.00  0.00    -0.262 N 
HETATM    6  C   UNL     1     -41.471  56.954 -50.804  1.00  0.00     0.288 C 
HETATM    7  O   UNL     1     -40.738  57.940 -50.768  1.00  0.00    -0.264 OA
HETATM    8  H   UNL     1     -43.458  56.250 -50.923  1.00  0.00     0.190 HD
BRANCH   6   9
HETATM    9  C   UNL     1     -40.970  55.606 -50.794  1.00  0.00     0.121 A 
HETATM   10  N   UNL     1     -40.387  55.052 -49.689  1.00  0.00    -0.272 N 
HETATM   11  H   UNL     1     -40.236  55.498 -48.789  1.00  0.00     0.189 HD
HETATM   12  N   UNL     1     -40.000  53.777 -49.852  1.00  0.00    -0.174 NA
HETATM   13  C   UNL     1     -40.315  53.484 -51.124  1.00  0.00     0.089 A 
HETATM   14  C   UNL     1     -40.930  54.606 -51.746  1.00  0.00     0.071 A 
BRANCH  13  15
HETATM   15  C   UNL     1     -40.046  52.168 -51.712  1.00  0.00    -0.006 A 
HETATM   16  C   UNL     1     -39.846  51.048 -50.891  1.00  0.00     0.014 A 
HETATM   17  C   UNL     1     -39.610  49.787 -51.446  1.00  0.00     0.001 A 
HETATM   18  C   UNL     1     -39.566  49.630 -52.829  1.00  0.00     0.000 A 
HETATM   19  C   UNL     1     -39.754  50.734 -53.659  1.00  0.00     0.001 A 
HETATM   20  C   UNL     1     -39.992  51.994 -53.104  1.00  0.00     0.014 A 
ENDBRANCH  13  15
ENDBRANCH   6   9
ENDBRANCH   2   5
BRANCH   1  21
HETATM   21  C   UNL     1     -45.430  59.748 -51.051  1.00  0.00     0.125 C 
HETATM   22  N   UNL     1     -45.474  60.498 -49.991  1.00  0.00    -0.164 NA
HETATM   23  N   UNL     1     -46.001  61.783 -50.101  1.00  0.00    -0.201 N 
HETATM   24  C   UNL     1     -46.705  62.215 -51.242  1.00  0.00     0.245 C 
HETATM   25  C   UNL     1     -47.057  61.109 -52.205  1.00  0.00     0.111 C 
HETATM   26  O   UNL     1     -47.088  63.357 -51.494  1.00  0.00    -0.271 OA
HETATM   27  C   UNL     1     -45.878  60.198 -52.404  1.00  0.00     0.076 C 
BRANCH  23  28
HETATM   28  C   UNL     1     -45.782  62.605 -48.938  1.00  0.00     0.062 A 
HETATM   29  C   UNL     1     -46.667  62.628 -47.847  1.00  0.00     0.038 A 
HETATM   30  C   UNL     1     -46.438  63.436 -46.718  1.00  0.00    -0.060 A 
HETATM   31  C   UNL     1     -47.390  63.411 -45.557  1.00  0.00     0.048 C 
HETATM   32  C   UNL     1     -45.289  64.226 -46.665  1.00  0.00     0.007 A 
HETATM   33  C   UNL     1     -44.392  64.218 -47.727  1.00  0.00     0.003 A 
HETATM   34  C   UNL     1     -44.635  63.416 -48.847  1.00  0.00     0.032 A 
ENDBRANCH  23  28
ENDBRANCH   1  21
TORSDOF 5
ENDMDL
MODEL 2
REMARK VINA RESULT:      -9.2      7.101      8.854
REMARK  5 active torsions:
REMARK  status: ('A' for Active; 'I' for Inactive)
REMARK    1  A    between atoms: C_4  and  N_5 
REMARK    2  A    between atoms: C_7  and  C_8 
REMARK       I    between atoms: C_8  and  N_9 
REMARK    3  A    between atoms: N_9  and  N_10 
REMARK       I    between atoms: N_10  and  C_11 
REMARK    4  A    between atoms: C_11  and  C_12 
REMARK    5  A    between atoms: C_16  and  C_17 
ROOT
HETATM    1  C   UNL     1     -42.890  57.078 -58.408  1.00  0.00     0.286 C 
HETATM    2  N   UNL     1     -42.089  57.378 -57.330  1.00  0.00    -0.262 N 
HETATM    3  O   UNL     1     -43.364  55.971 -58.630  1.00  0.00    -0.264 OA
HETATM    4  H   UNL     1     -41.686  58.304 -57.181  1.00  0.00     0.190 HD
ENDROOT
BRANCH   2   5
HETATM    5  N   UNL     1     -41.779  56.349 -56.440  1.00  0.00    -0.262 N 
HETATM    6  C   UNL     1     -41.626  56.612 -55.096  1.00  0.00     0.288 C 
HETATM    7  O   UNL     1     -41.804  57.731 -54.620  1.00  0.00    -0.264 OA
HETATM    8  H   UNL     1     -41.597  55.437 -56.850  1.00  0.00     0.190 HD
BRANCH   6   9
HETATM    9  C   UNL     1     -41.245  55.475 -54.301  1.00  0.00     0.121 A 
HETATM   10  N   UNL     1     -41.173  55.528 -52.937  1.00  0.00    -0.272 N 
HETATM   11  H   UNL     1     -41.361  56.333 -52.346  1.00  0.00     0.189 HD
HETATM   12  N   UNL     1     -40.825  54.368 -52.359  1.00  0.00    -0.174 NA
HETATM   13  C   UNL     1     -40.634  53.520 -53.382  1.00  0.00     0.089 A 
HETATM   14  C   UNL     1     -40.893  54.178 -54.616  1.00  0.00     0.071 A 
BRANCH  13  15
HETATM   15  C   UNL     1     -40.231  52.125 -53.175  1.00  0.00    -0.006 A 
HETATM   16  C   UNL     1     -39.816  51.684 -51.909  1.00  0.00     0.014 A 
HETATM   17  C   UNL     1     -39.451  50.350 -51.701  1.00  0.00     0.001 A 
HETATM   18  C   UNL     1     -39.492  49.443 -52.756  1.00  0.00     0.000 A 
HETATM   19  C   UNL     1     -39.892  49.867 -54.022  1.00  0.00     0.001 A 
HETATM   20  C   UNL     1     -40.260  51.200 -54.230  1.00  0.00     0.014 A 
ENDBRANCH  13  15
ENDBRANCH   6   9
ENDBRANCH   2   5
BRANCH   1  21
HETATM   21  C   UNL     1     -43.170  58.241 -59.347  1.00  0.00     0.125 C 
HETATM   22  N   UNL     1     -42.388  59.277 -59.322  1.00  0.00    -0.164 NA
HETATM   23  N   UNL     1     -42.638  60.326 -60.204  1.00  0.00    -0.201 N 
HETATM   24  C   UNL     1     -43.832  60.420 -60.946  1.00  0.00     0.245 C 
HETATM   25  C   UNL     1     -44.903  59.448 -60.519  1.00  0.00     0.111 C 
HETATM   26  O   UNL     1     -44.092  61.222 -61.843  1.00  0.00    -0.271 OA
HETATM   27  C   UNL     1     -44.309  58.084 -60.301  1.00  0.00     0.076 C 
BRANCH  23  28
HETATM   28  C   UNL     1     -41.583  61.306 -60.261  1.00  0.00     0.062 A 
HETATM   29  C   UNL     1     -41.040  61.767 -61.472  1.00  0.00     0.038 A 
HETATM   30  C   UNL     1     -40.010  62.725 -61.510  1.00  0.00    -0.060 A 
HETATM   31  C   UNL     1     -39.475  63.217 -62.824  1.00  0.00     0.048 C 
HETATM   32  C   UNL     1     -39.523  63.253 -60.314  1.00  0.00     0.007 A 
HETATM   33  C   UNL     1     -40.047  62.820 -59.101  1.00  0.00     0.003 A 
HETATM   34  C   UNL     1     -41.065  61.861 -59.076  1.00  0.00     0.032 A 
ENDBRANCH  23  28
ENDBRANCH   1  21
TORSDOF 5
ENDMDL
MODEL 3
REMARK VINA RESULT:      -9.1      1.776      2.101
REMARK  5 active torsions:
REMARK  status: ('A' for Active; 'I' for Inactive)
REMARK    1  A    between atoms: C_4  and  N_5 
REMARK    2  A    between atoms: C_7  and  C_8 
REMARK       I    between atoms: C_8  and  N_9 
REMARK    3  A    between atoms: N_9  and  N_10 
REMARK       I    between atoms: N_10  and  C_11 
REMARK    4  A    between atoms: C_11  and  C_12 
REMARK    5  A    between atoms: C_16  and  C_17 
ROOT
HETATM    1  C   UNL     1     -44.566  58.259 -51.415  1.00  0.00     0.286 C 
HETATM    2  N   UNL     1     -43.398  58.300 -52.141  1.00  0.00    -0.262 N 
HETATM    3  O   UNL     1     -45.090  57.231 -51.006  1.00  0.00    -0.264 OA
HETATM    4  H   UNL     1     -42.994  59.170 -52.491  1.00  0.00     0.190 HD
ENDROOT
BRANCH   2   5
HETATM    5  N   UNL     1     -42.778  57.089 -52.450  1.00  0.00    -0.262 N 
HETATM    6  C   UNL     1     -41.634  57.066 -53.219  1.00  0.00     0.288 C 
HETATM    7  O   UNL     1     -41.087  58.094 -53.614  1.00  0.00    -0.264 OA
HETATM    8  H   UNL     1     -43.260  56.245 -52.151  1.00  0.00     0.190 HD
BRANCH   6   9
HETATM    9  C   UNL     1     -41.135  55.750 -53.515  1.00  0.00     0.121 A 
HETATM   10  N   UNL     1     -40.557  55.441 -54.714  1.00  0.00    -0.272 N 
HETATM   11  H   UNL     1     -40.420  56.063 -55.505  1.00  0.00     0.189 HD
HETATM   12  N   UNL     1     -40.127  54.172 -54.807  1.00  0.00    -0.174 NA
HETATM   13  C   UNL     1     -40.458  53.613 -53.633  1.00  0.00     0.089 A 
HETATM   14  C   UNL     1     -41.089  54.573 -52.794  1.00  0.00     0.071 A 
BRANCH  13  15
HETATM   15  C   UNL     1     -40.165  52.209 -53.327  1.00  0.00    -0.006 A 
HETATM   16  C   UNL     1     -40.258  51.227 -54.325  1.00  0.00     0.014 A 
HETATM   17  C   UNL     1     -39.959  49.891 -54.045  1.00  0.00     0.001 A 
HETATM   18  C   UNL     1     -39.569  49.518 -52.762  1.00  0.00     0.000 A 
HETATM   19  C   UNL     1     -39.480  50.478 -51.756  1.00  0.00     0.001 A 
HETATM   20  C   UNL     1     -39.776  51.815 -52.037  1.00  0.00     0.014 A 
ENDBRANCH  13  15
ENDBRANCH   6   9
ENDBRANCH   2   5
BRANCH   1  21
HETATM   21  C   UNL     1     -45.197  59.613 -51.132  1.00  0.00     0.125 C 
HETATM   22  N   UNL     1     -45.368  59.986 -49.900  1.00  0.00    -0.164 NA
HETATM   23  N   UNL     1     -45.924  61.240 -49.651  1.00  0.00    -0.201 N 
HETATM   24  C   UNL     1     -46.528  62.012 -50.662  1.00  0.00     0.245 C 
HETATM   25  C   UNL     1     -46.748  61.271 -51.957  1.00  0.00     0.111 C 
HETATM   26  O   UNL     1     -46.922  63.175 -50.578  1.00  0.00    -0.271 OA
HETATM   27  C   UNL     1     -45.526  60.469 -52.311  1.00  0.00     0.076 C 
BRANCH  23  28
HETATM   28  C   UNL     1     -45.846  61.650 -48.271  1.00  0.00     0.062 A 
HETATM   29  C   UNL     1     -46.775  62.526 -47.686  1.00  0.00     0.038 A 
HETATM   30  C   UNL     1     -46.686  62.914 -46.337  1.00  0.00    -0.060 A 
HETATM   31  C   UNL     1     -47.715  63.829 -45.737  1.00  0.00     0.048 C 
HETATM   32  C   UNL     1     -45.657  62.403 -45.545  1.00  0.00     0.007 A 
HETATM   33  C   UNL     1     -44.728  61.528 -46.096  1.00  0.00     0.003 A 
HETATM   34  C   UNL     1     -44.823  61.155 -47.440  1.00  0.00     0.032 A 
ENDBRANCH  23  28
ENDBRANCH   1  21
TORSDOF 5
ENDMDL
MODEL 4
REMARK VINA RESULT:      -9.0      5.672     11.121
REMARK  5 active torsions:
REMARK  status: ('A' for Active; 'I' for Inactive)
REMARK    1  A    between atoms: C_4  and  N_5 
REMARK    2  A    between atoms: C_7  and  C_8 
REMARK       I    between atoms: C_8  and  N_9 
REMARK    3  A    between atoms: N_9  and  N_10 
REMARK       I    between atoms: N_10  and  C_11 
REMARK    4  A    between atoms: C_11  and  C_12 
REMARK    5  A    between atoms: C_16  and  C_17 
ROOT
HETATM    1  C   UNL     1     -42.998  56.126 -53.348  1.00  0.00     0.286 C 
HETATM    2  N   UNL     1     -42.835  55.697 -54.645  1.00  0.00    -0.262 N 
HETATM    3  O   UNL     1     -43.885  56.884 -52.977  1.00  0.00    -0.264 OA
HETATM    4  H   UNL     1     -42.072  55.083 -54.934  1.00  0.00     0.190 HD
ENDROOT
BRANCH   2   5
HETATM    5  N   UNL     1     -43.726  56.173 -55.608  1.00  0.00    -0.262 N 
HETATM    6  C   UNL     1     -43.385  57.244 -56.406  1.00  0.00     0.288 C 
HETATM    7  O   UNL     1     -42.282  57.782 -56.347  1.00  0.00    -0.264 OA
HETATM    8  H   UNL     1     -44.648  55.745 -55.621  1.00  0.00     0.190 HD
BRANCH   6   9
HETATM    9  C   UNL     1     -44.418  57.672 -57.312  1.00  0.00     0.121 A 
HETATM   10  N   UNL     1     -45.105  58.839 -57.135  1.00  0.00    -0.272 N 
HETATM   11  H   UNL     1     -44.986  59.511 -56.382  1.00  0.00     0.189 HD
HETATM   12  N   UNL     1     -46.016  59.091 -58.088  1.00  0.00    -0.174 NA
HETATM   13  C   UNL     1     -45.947  58.035 -58.914  1.00  0.00     0.089 A 
HETATM   14  C   UNL     1     -44.952  57.125 -58.462  1.00  0.00     0.071 A 
BRANCH  13  15
HETATM   15  C   UNL     1     -46.799  57.915 -60.102  1.00  0.00    -0.006 A 
HETATM   16  C   UNL     1     -47.080  56.656 -60.653  1.00  0.00     0.014 A 
HETATM   17  C   UNL     1     -47.909  56.534 -61.773  1.00  0.00     0.001 A 
HETATM   18  C   UNL     1     -48.463  57.669 -62.357  1.00  0.00     0.000 A 
HETATM   19  C   UNL     1     -48.186  58.928 -61.828  1.00  0.00     0.001 A 
HETATM   20  C   UNL     1     -47.360  59.050 -60.708  1.00  0.00     0.014 A 
ENDBRANCH  13  15
ENDBRANCH   6   9
ENDBRANCH   2   5
BRANCH   1  21
HETATM   21  C   UNL     1     -41.981  55.584 -52.357  1.00  0.00     0.125 C 
HETATM   22  N   UNL     1     -41.711  54.314 -52.357  1.00  0.00    -0.164 NA
HETATM   23  N   UNL     1     -40.758  53.831 -51.462  1.00  0.00    -0.201 N 
HETATM   24  C   UNL     1     -40.256  54.610 -50.401  1.00  0.00     0.245 C 
HETATM   25  C   UNL     1     -41.013  55.893 -50.166  1.00  0.00     0.111 C 
HETATM   26  O   UNL     1     -39.325  54.331 -49.646  1.00  0.00    -0.271 OA
HETATM   27  C   UNL     1     -41.297  56.577 -51.474  1.00  0.00     0.076 C 
BRANCH  23  28
HETATM   28  C   UNL     1     -40.364  52.467 -51.708  1.00  0.00     0.062 A 
HETATM   29  C   UNL     1     -40.155  51.959 -53.001  1.00  0.00     0.038 A 
HETATM   30  C   UNL     1     -39.769  50.624 -53.223  1.00  0.00    -0.060 A 
HETATM   31  C   UNL     1     -39.526  50.124 -54.618  1.00  0.00     0.048 C 
HETATM   32  C   UNL     1     -39.565  49.780 -52.131  1.00  0.00     0.007 A 
HETATM   33  C   UNL     1     -39.756  50.259 -50.840  1.00  0.00     0.003 A 
HETATM   34  C   UNL     1     -40.148  51.585 -50.632  1.00  0.00     0.032 A 
ENDBRANCH  23  28
ENDBRANCH   1  21
TORSDOF 5
ENDMDL
MODEL 5
REMARK VINA RESULT:      -8.9      2.265     11.226
REMARK  5 active torsions:
REMARK  status: ('A' for Active; 'I' for Inactive)
REMARK    1  A    between atoms: C_4  and  N_5 
REMARK    2  A    between atoms: C_7  and  C_8 
REMARK       I    between atoms: C_8  and  N_9 
REMARK    3  A    between atoms: N_9  and  N_10 
REMARK       I    between atoms: N_10  and  C_11 
REMARK    4  A    between atoms: C_11  and  C_12 
REMARK    5  A    between atoms: C_16  and  C_17 
ROOT
HETATM    1  C   UNL     1     -42.856  57.724 -51.584  1.00  0.00     0.286 C 
HETATM    2  N   UNL     1     -44.018  58.456 -51.512  1.00  0.00    -0.262 N 
HETATM    3  O   UNL     1     -41.873  57.915 -50.881  1.00  0.00    -0.264 OA
HETATM    4  H   UNL     1     -44.816  58.292 -52.127  1.00  0.00     0.190 HD
ENDROOT
BRANCH   2   5
HETATM    5  N   UNL     1     -44.075  59.501 -50.588  1.00  0.00    -0.262 N 
HETATM    6  C   UNL     1     -45.236  59.751 -49.889  1.00  0.00     0.288 C 
HETATM    7  O   UNL     1     -46.237  59.047 -50.002  1.00  0.00    -0.264 OA
HETATM    8  H   UNL     1     -43.255  60.099 -50.531  1.00  0.00     0.190 HD
BRANCH   6   9
HETATM    9  C   UNL     1     -45.178  60.894 -49.017  1.00  0.00     0.121 A 
HETATM   10  N   UNL     1     -44.370  61.967 -49.272  1.00  0.00    -0.272 N 
HETATM   11  H   UNL     1     -43.739  62.083 -50.060  1.00  0.00     0.189 HD
HETATM   12  N   UNL     1     -44.462  62.952 -48.366  1.00  0.00    -0.174 NA
HETATM   13  C   UNL     1     -45.346  62.504 -47.461  1.00  0.00     0.089 A 
HETATM   14  C   UNL     1     -45.821  61.217 -47.839  1.00  0.00     0.071 A 
BRANCH  13  15
HETATM   15  C   UNL     1     -45.728  63.292 -46.285  1.00  0.00    -0.006 A 
HETATM   16  C   UNL     1     -47.056  63.298 -45.832  1.00  0.00     0.014 A 
HETATM   17  C   UNL     1     -47.423  64.030 -44.699  1.00  0.00     0.001 A 
HETATM   18  C   UNL     1     -46.467  64.770 -44.008  1.00  0.00     0.000 A 
HETATM   19  C   UNL     1     -45.145  64.782 -44.449  1.00  0.00     0.001 A 
HETATM   20  C   UNL     1     -44.778  64.048 -45.581  1.00  0.00     0.014 A 
ENDBRANCH  13  15
ENDBRANCH   6   9
ENDBRANCH   2   5
BRANCH   1  21
HETATM   21  C   UNL     1     -42.856  56.615 -52.625  1.00  0.00     0.125 C 
HETATM   22  N   UNL     1     -41.985  55.658 -52.530  1.00  0.00    -0.164 NA
HETATM   23  N   UNL     1     -42.009  54.633 -53.474  1.00  0.00    -0.201 N 
HETATM   24  C   UNL     1     -42.771  54.714 -54.656  1.00  0.00     0.245 C 
HETATM   25  C   UNL     1     -43.341  56.083 -54.931  1.00  0.00     0.111 C 
HETATM   26  O   UNL     1     -42.968  53.820 -55.479  1.00  0.00    -0.271 OA
HETATM   27  C   UNL     1     -43.921  56.667 -53.672  1.00  0.00     0.076 C 
BRANCH  23  28
HETATM   28  C   UNL     1     -41.169  53.511 -53.140  1.00  0.00     0.062 A 
HETATM   29  C   UNL     1     -40.926  52.453 -54.032  1.00  0.00     0.038 A 
HETATM   30  C   UNL     1     -40.102  51.365 -53.690  1.00  0.00    -0.060 A 
HETATM   31  C   UNL     1     -39.840  50.266 -54.680  1.00  0.00     0.048 C 
HETATM   32  C   UNL     1     -39.487  51.339 -52.438  1.00  0.00     0.007 A 
HETATM   33  C   UNL     1     -39.704  52.377 -51.538  1.00  0.00     0.003 A 
HETATM   34  C   UNL     1     -40.532  53.449 -51.886  1.00  0.00     0.032 A 
ENDBRANCH  23  28
ENDBRANCH   1  21
TORSDOF 5
ENDMDL
MODEL 6
REMARK VINA RESULT:      -8.9      5.696     11.034
REMARK  5 active torsions:
REMARK  status: ('A' for Active; 'I' for Inactive)
REMARK    1  A    between atoms: C_4  and  N_5 
REMARK    2  A    between atoms: C_7  and  C_8 
REMARK       I    between atoms: C_8  and  N_9 
REMARK    3  A    between atoms: N_9  and  N_10 
REMARK       I    between atoms: N_10  and  C_11 
REMARK    4  A    between atoms: C_11  and  C_12 
REMARK    5  A    between atoms: C_16  and  C_17 
ROOT
HETATM    1  C   UNL     1     -41.831  56.603 -53.016  1.00  0.00     0.286 C 
HETATM    2  N   UNL     1     -42.058  55.910 -54.182  1.00  0.00    -0.262 N 
HETATM    3  O   UNL     1     -42.022  57.804 -52.877  1.00  0.00    -0.264 OA
HETATM    4  H   UNL     1     -41.867  54.912 -54.279  1.00  0.00     0.190 HD
ENDROOT
BRANCH   2   5
HETATM    5  N   UNL     1     -42.517  56.625 -55.289  1.00  0.00    -0.262 N 
HETATM    6  C   UNL     1     -42.923  55.964 -56.428  1.00  0.00     0.288 C 
HETATM    7  O   UNL     1     -42.950  54.738 -56.502  1.00  0.00    -0.264 OA
HETATM    8  H   UNL     1     -42.454  57.638 -55.229  1.00  0.00     0.190 HD
BRANCH   6   9
HETATM    9  C   UNL     1     -43.313  56.823 -57.514  1.00  0.00     0.121 A 
HETATM   10  N   UNL     1     -44.603  56.900 -57.958  1.00  0.00    -0.272 N 
HETATM   11  H   UNL     1     -45.403  56.385 -57.602  1.00  0.00     0.189 HD
HETATM   12  N   UNL     1     -44.788  57.770 -58.963  1.00  0.00    -0.174 NA
HETATM   13  C   UNL     1     -43.568  58.270 -59.212  1.00  0.00     0.089 A 
HETATM   14  C   UNL     1     -42.616  57.703 -58.320  1.00  0.00     0.071 A 
BRANCH  13  15
HETATM   15  C   UNL     1     -43.331  59.266 -60.262  1.00  0.00    -0.006 A 
HETATM   16  C   UNL     1     -42.031  59.716 -60.537  1.00  0.00     0.014 A 
HETATM   17  C   UNL     1     -41.797  60.650 -61.551  1.00  0.00     0.001 A 
HETATM   18  C   UNL     1     -42.860  61.149 -62.299  1.00  0.00     0.000 A 
HETATM   19  C   UNL     1     -44.159  60.720 -62.032  1.00  0.00     0.001 A 
HETATM   20  C   UNL     1     -44.393  59.784 -61.021  1.00  0.00     0.014 A 
ENDBRANCH  13  15
ENDBRANCH   6   9
ENDBRANCH   2   5
BRANCH   1  21
HETATM   21  C   UNL     1     -41.313  55.764 -51.858  1.00  0.00     0.125 C 
HETATM   22  N   UNL     1     -41.161  54.485 -52.021  1.00  0.00    -0.164 NA
HETATM   23  N   UNL     1     -40.660  53.730 -50.962  1.00  0.00    -0.201 N 
HETATM   24  C   UNL     1     -40.543  54.246 -49.656  1.00  0.00     0.245 C 
HETATM   25  C   UNL     1     -41.233  55.571 -49.452  1.00  0.00     0.111 C 
HETATM   26  O   UNL     1     -39.994  53.715 -48.691  1.00  0.00    -0.271 OA
HETATM   27  C   UNL     1     -40.943  56.491 -50.605  1.00  0.00     0.076 C 
BRANCH  23  28
HETATM   28  C   UNL     1     -40.307  52.381 -51.323  1.00  0.00     0.062 A 
HETATM   29  C   UNL     1     -40.035  51.995 -52.646  1.00  0.00     0.038 A 
HETATM   30  C   UNL     1     -39.689  50.673 -52.981  1.00  0.00    -0.060 A 
HETATM   31  C   UNL     1     -39.375  50.305 -54.403  1.00  0.00     0.048 C 
HETATM   32  C   UNL     1     -39.592  49.715 -51.972  1.00  0.00     0.007 A 
HETATM   33  C   UNL     1     -39.848  50.070 -50.652  1.00  0.00     0.003 A 
HETATM   34  C   UNL     1     -40.198  51.386 -50.333  1.00  0.00     0.032 A 
ENDBRANCH  23  28
ENDBRANCH   1  21
TORSDOF 5
ENDMDL
MODEL 7
REMARK VINA RESULT:      -8.8      2.646     10.615
REMARK  5 active torsions:
REMARK  status: ('A' for Active; 'I' for Inactive)
REMARK    1  A    between atoms: C_4  and  N_5 
REMARK    2  A    between atoms: C_7  and  C_8 
REMARK       I    between atoms: C_8  and  N_9 
REMARK    3  A    between atoms: N_9  and  N_10 
REMARK       I    between atoms: N_10  and  C_11 
REMARK    4  A    between atoms: C_11  and  C_12 
REMARK    5  A    between atoms: C_16  and  C_17 
ROOT
HETATM    1  C   UNL     1     -44.456  57.809 -51.350  1.00  0.00     0.286 C 
HETATM    2  N   UNL     1     -43.959  59.081 -51.187  1.00  0.00    -0.262 N 
HETATM    3  O   UNL     1     -45.181  57.241 -50.545  1.00  0.00    -0.264 OA
HETATM    4  H   UNL     1     -43.335  59.523 -51.863  1.00  0.00     0.190 HD
ENDROOT
BRANCH   2   5
HETATM    5  N   UNL     1     -44.286  59.765 -50.015  1.00  0.00    -0.262 N 
HETATM    6  C   UNL     1     -45.308  60.690 -50.009  1.00  0.00     0.288 C 
HETATM    7  O   UNL     1     -46.000  60.911 -51.000  1.00  0.00    -0.264 OA
HETATM    8  H   UNL     1     -43.683  59.601 -49.213  1.00  0.00     0.190 HD
BRANCH   6   9
HETATM    9  C   UNL     1     -45.499  61.366 -48.754  1.00  0.00     0.121 A 
HETATM   10  N   UNL     1     -46.637  62.067 -48.468  1.00  0.00    -0.272 N 
HETATM   11  H   UNL     1     -47.443  62.198 -49.072  1.00  0.00     0.189 HD
HETATM   12  N   UNL     1     -46.653  62.613 -47.242  1.00  0.00    -0.174 NA
HETATM   13  C   UNL     1     -45.467  62.283 -46.705  1.00  0.00     0.089 A 
HETATM   14  C   UNL     1     -44.718  61.496 -47.623  1.00  0.00     0.071 A 
BRANCH  13  15
HETATM   15  C   UNL     1     -45.079  62.699 -45.353  1.00  0.00    -0.006 A 
HETATM   16  C   UNL     1     -45.516  63.926 -44.832  1.00  0.00     0.014 A 
HETATM   17  C   UNL     1     -45.166  64.318 -43.537  1.00  0.00     0.001 A 
HETATM   18  C   UNL     1     -44.373  63.490 -42.748  1.00  0.00     0.000 A 
HETATM   19  C   UNL     1     -43.923  62.272 -43.253  1.00  0.00     0.001 A 
HETATM   20  C   UNL     1     -44.274  61.879 -44.547  1.00  0.00     0.014 A 
ENDBRANCH  13  15
ENDBRANCH   6   9
ENDBRANCH   2   5
BRANCH   1  21
HETATM   21  C   UNL     1     -44.042  57.116 -52.639  1.00  0.00     0.125 C 
HETATM   22  N   UNL     1     -43.069  56.257 -52.612  1.00  0.00    -0.164 NA
HETATM   23  N   UNL     1     -42.715  55.609 -53.794  1.00  0.00    -0.201 N 
HETATM   24  C   UNL     1     -43.198  56.017 -55.053  1.00  0.00     0.245 C 
HETATM   25  C   UNL     1     -43.908  57.347 -55.040  1.00  0.00     0.111 C 
HETATM   26  O   UNL     1     -43.057  55.437 -56.129  1.00  0.00    -0.271 OA
HETATM   27  C   UNL     1     -44.841  57.426 -53.864  1.00  0.00     0.076 C 
BRANCH  23  28
HETATM   28  C   UNL     1     -41.798  54.513 -53.606  1.00  0.00     0.062 A 
HETATM   29  C   UNL     1     -41.435  54.036 -52.336  1.00  0.00     0.038 A 
HETATM   30  C   UNL     1     -40.539  52.964 -52.171  1.00  0.00    -0.060 A 
HETATM   31  C   UNL     1     -40.197  52.461 -50.798  1.00  0.00     0.048 C 
HETATM   32  C   UNL     1     -40.006  52.338 -53.298  1.00  0.00     0.007 A 
HETATM   33  C   UNL     1     -40.354  52.784 -54.568  1.00  0.00     0.003 A 
HETATM   34  C   UNL     1     -41.240  53.855 -54.719  1.00  0.00     0.032 A 
ENDBRANCH  23  28
ENDBRANCH   1  21
TORSDOF 5
ENDMDL
MODEL 8
REMARK VINA RESULT:      -8.7      3.050     10.845
REMARK  5 active torsions:
REMARK  status: ('A' for Active; 'I' for Inactive)
REMARK    1  A    between atoms: C_4  and  N_5 
REMARK    2  A    between atoms: C_7  and  C_8 
REMARK       I    between atoms: C_8  and  N_9 
REMARK    3  A    between atoms: N_9  and  N_10 
REMARK       I    between atoms: N_10  and  C_11 
REMARK    4  A    between atoms: C_11  and  C_12 
REMARK    5  A    between atoms: C_16  and  C_17 
ROOT
HETATM    1  C   UNL     1     -44.041  60.136 -50.512  1.00  0.00     0.286 C 
HETATM    2  N   UNL     1     -44.938  59.981 -49.480  1.00  0.00    -0.262 N 
HETATM    3  O   UNL     1     -43.109  60.928 -50.505  1.00  0.00    -0.264 OA
HETATM    4  H   UNL     1     -45.723  59.329 -49.521  1.00  0.00     0.190 HD
ENDROOT
BRANCH   2   5
HETATM    5  N   UNL     1     -44.788  60.795 -48.357  1.00  0.00    -0.262 N 
HETATM    6  C   UNL     1     -45.687  61.808 -48.103  1.00  0.00     0.288 C 
HETATM    7  O   UNL     1     -46.674  62.002 -48.810  1.00  0.00    -0.264 OA
HETATM    8  H   UNL     1     -43.948  60.649 -47.802  1.00  0.00     0.190 HD
BRANCH   6   9
HETATM    9  C   UNL     1     -45.380  62.609 -46.949  1.00  0.00     0.121 A 
HETATM   10  N   UNL     1     -45.176  63.958 -47.030  1.00  0.00    -0.272 N 
HETATM   11  H   UNL     1     -45.207  64.532 -47.868  1.00  0.00     0.189 HD
HETATM   12  N   UNL     1     -44.924  64.548 -45.851  1.00  0.00    -0.174 NA
HETATM   13  C   UNL     1     -44.935  63.546 -44.958  1.00  0.00     0.089 A 
HETATM   14  C   UNL     1     -45.223  62.315 -45.609  1.00  0.00     0.071 A 
BRANCH  13  15
HETATM   15  C   UNL     1     -44.692  63.771 -43.529  1.00  0.00    -0.006 A 
HETATM   16  C   UNL     1     -43.491  63.351 -42.936  1.00  0.00     0.014 A 
HETATM   17  C   UNL     1     -43.244  63.582 -41.580  1.00  0.00     0.001 A 
HETATM   18  C   UNL     1     -44.197  64.229 -40.798  1.00  0.00     0.000 A 
HETATM   19  C   UNL     1     -45.399  64.644 -41.368  1.00  0.00     0.001 A 
HETATM   20  C   UNL     1     -45.645  64.416 -42.725  1.00  0.00     0.014 A 
ENDBRANCH  13  15
ENDBRANCH   6   9
ENDBRANCH   2   5
BRANCH   1  21
HETATM   21  C   UNL     1     -44.277  59.232 -51.712  1.00  0.00     0.125 C 
HETATM   22  N   UNL     1     -43.497  58.210 -51.897  1.00  0.00    -0.164 NA
HETATM   23  N   UNL     1     -43.737  57.373 -52.985  1.00  0.00    -0.201 N 
HETATM   24  C   UNL     1     -44.626  57.718 -54.022  1.00  0.00     0.245 C 
HETATM   25  C   UNL     1     -45.089  59.153 -53.985  1.00  0.00     0.111 C 
HETATM   26  O   UNL     1     -45.008  57.002 -54.947  1.00  0.00    -0.271 OA
HETATM   27  C   UNL     1     -45.451  59.547 -52.580  1.00  0.00     0.076 C 
BRANCH  23  28
HETATM   28  C   UNL     1     -42.976  56.149 -52.960  1.00  0.00     0.062 A 
HETATM   29  C   UNL     1     -41.996  55.845 -53.920  1.00  0.00     0.038 A 
HETATM   30  C   UNL     1     -41.261  54.646 -53.879  1.00  0.00    -0.060 A 
HETATM   31  C   UNL     1     -40.200  54.368 -54.905  1.00  0.00     0.048 C 
HETATM   32  C   UNL     1     -41.492  53.736 -52.847  1.00  0.00     0.007 A 
HETATM   33  C   UNL     1     -42.450  54.015 -51.878  1.00  0.00     0.003 A 
HETATM   34  C   UNL     1     -43.180  55.207 -51.933  1.00  0.00     0.032 A 
ENDBRANCH  23  28
ENDBRANCH   1  21
TORSDOF 5
ENDMDL
MODEL 9
REMARK VINA RESULT:      -8.6      1.618      2.176
REMARK  5 active torsions:
REMARK  status: ('A' for Active; 'I' for Inactive)
REMARK    1  A    between atoms: C_4  and  N_5 
REMARK    2  A    between atoms: C_7  and  C_8 
REMARK       I    between atoms: C_8  and  N_9 
REMARK    3  A    between atoms: N_9  and  N_10 
REMARK       I    between atoms: N_10  and  C_11 
REMARK    4  A    between atoms: C_11  and  C_12 
REMARK    5  A    between atoms: C_16  and  C_17 
ROOT
HETATM    1  C   UNL     1     -42.634  60.140 -50.561  1.00  0.00     0.286 C 
HETATM    2  N   UNL     1     -43.285  58.973 -50.888  1.00  0.00    -0.262 N 
HETATM    3  O   UNL     1     -41.431  60.224 -50.348  1.00  0.00    -0.264 OA
HETATM    4  H   UNL     1     -44.294  58.925 -51.037  1.00  0.00     0.190 HD
ENDROOT
BRANCH   2   5
HETATM    5  N   UNL     1     -42.530  57.802 -50.962  1.00  0.00    -0.262 N 
HETATM    6  C   UNL     1     -42.768  56.880 -51.958  1.00  0.00     0.288 C 
HETATM    7  O   UNL     1     -43.602  57.066 -52.841  1.00  0.00    -0.264 OA
HETATM    8  H   UNL     1     -41.870  57.641 -50.205  1.00  0.00     0.190 HD
BRANCH   6   9
HETATM    9  C   UNL     1     -41.962  55.690 -51.881  1.00  0.00     0.121 A 
HETATM   10  N   UNL     1     -41.104  55.456 -50.844  1.00  0.00    -0.272 N 
HETATM   11  H   UNL     1     -40.930  56.060 -50.045  1.00  0.00     0.189 HD
HETATM   12  N   UNL     1     -40.451  54.286 -50.924  1.00  0.00    -0.174 NA
HETATM   13  C   UNL     1     -40.875  53.736 -52.073  1.00  0.00     0.089 A 
HETATM   14  C   UNL     1     -41.828  54.586 -52.699  1.00  0.00     0.071 A 
BRANCH  13  15
HETATM   15  C   UNL     1     -40.390  52.433 -52.541  1.00  0.00    -0.006 A 
HETATM   16  C   UNL     1     -39.860  51.502 -51.635  1.00  0.00     0.014 A 
HETATM   17  C   UNL     1     -39.415  50.251 -52.072  1.00  0.00     0.001 A 
HETATM   18  C   UNL     1     -39.491  49.917 -53.422  1.00  0.00     0.000 A 
HETATM   19  C   UNL     1     -40.005  50.833 -54.336  1.00  0.00     0.001 A 
HETATM   20  C   UNL     1     -40.452  52.083 -53.899  1.00  0.00     0.014 A 
ENDBRANCH  13  15
ENDBRANCH   6   9
ENDBRANCH   2   5
BRANCH   1  21
HETATM   21  C   UNL     1     -43.521  61.372 -50.478  1.00  0.00     0.125 C 
HETATM   22  N   UNL     1     -44.188  61.599 -49.388  1.00  0.00    -0.164 NA
HETATM   23  N   UNL     1     -44.979  62.745 -49.313  1.00  0.00    -0.201 N 
HETATM   24  C   UNL     1     -45.274  63.533 -50.443  1.00  0.00     0.245 C 
HETATM   25  C   UNL     1     -44.887  62.901 -51.756  1.00  0.00     0.111 C 
HETATM   26  O   UNL     1     -45.842  64.625 -50.462  1.00  0.00    -0.271 OA
HETATM   27  C   UNL     1     -43.515  62.293 -51.655  1.00  0.00     0.076 C 
BRANCH  23  28
HETATM   28  C   UNL     1     -45.478  63.024 -47.991  1.00  0.00     0.062 A 
HETATM   29  C   UNL     1     -44.735  63.731 -47.032  1.00  0.00     0.038 A 
HETATM   30  C   UNL     1     -45.239  63.996 -45.745  1.00  0.00    -0.060 A 
HETATM   31  C   UNL     1     -44.427  64.782 -44.756  1.00  0.00     0.048 C 
HETATM   32  C   UNL     1     -46.522  63.564 -45.411  1.00  0.00     0.007 A 
HETATM   33  C   UNL     1     -47.284  62.868 -46.343  1.00  0.00     0.003 A 
HETATM   34  C   UNL     1     -46.769  62.604 -47.616  1.00  0.00     0.032 A 
ENDBRANCH  23  28
ENDBRANCH   1  21
TORSDOF 5
ENDMDL
MODEL 10
REMARK VINA RESULT:      -8.4      2.967      4.785
REMARK  5 active torsions:
REMARK  status: ('A' for Active; 'I' for Inactive)
REMARK    1  A    between atoms: C_4  and  N_5 
REMARK    2  A    between atoms: C_7  and  C_8 
REMARK       I    between atoms: C_8  and  N_9 
REMARK    3  A    between atoms: N_9  and  N_10 
REMARK       I    between atoms: N_10  and  C_11 
REMARK    4  A    between atoms: C_11  and  C_12 
REMARK    5  A    between atoms: C_16  and  C_17 
ROOT
HETATM    1  C   UNL     1     -45.455  61.068 -51.357  1.00  0.00     0.286 C 
HETATM    2  N   UNL     1     -45.981  59.931 -51.925  1.00  0.00    -0.262 N 
HETATM    3  O   UNL     1     -44.257  61.306 -51.268  1.00  0.00    -0.264 OA
HETATM    4  H   UNL     1     -46.984  59.745 -51.965  1.00  0.00     0.190 HD
ENDROOT
BRANCH   2   5
HETATM    5  N   UNL     1     -45.091  58.974 -52.414  1.00  0.00    -0.262 N 
HETATM    6  C   UNL     1     -44.848  57.819 -51.702  1.00  0.00     0.288 C 
HETATM    7  O   UNL     1     -45.432  57.558 -50.653  1.00  0.00    -0.264 OA
HETATM    8  H   UNL     1     -44.587  59.218 -53.262  1.00  0.00     0.190 HD
BRANCH   6   9
HETATM    9  C   UNL     1     -43.864  56.948 -52.288  1.00  0.00     0.121 A 
HETATM   10  N   UNL     1     -43.246  57.236 -53.473  1.00  0.00    -0.272 N 
HETATM   11  H   UNL     1     -43.400  58.051 -54.060  1.00  0.00     0.189 HD
HETATM   12  N   UNL     1     -42.340  56.324 -53.856  1.00  0.00    -0.174 NA
HETATM   13  C   UNL     1     -42.377  55.381 -52.901  1.00  0.00     0.089 A 
HETATM   14  C   UNL     1     -43.319  55.740 -51.898  1.00  0.00     0.071 A 
BRANCH  13  15
HETATM   15  C   UNL     1     -41.527  54.187 -52.948  1.00  0.00    -0.006 A 
HETATM   16  C   UNL     1     -41.348  53.487 -54.151  1.00  0.00     0.014 A 
HETATM   17  C   UNL     1     -40.522  52.361 -54.207  1.00  0.00     0.001 A 
HETATM   18  C   UNL     1     -39.869  51.917 -53.060  1.00  0.00     0.000 A 
HETATM   19  C   UNL     1     -40.043  52.596 -51.855  1.00  0.00     0.001 A 
HETATM   20  C   UNL     1     -40.867  53.723 -51.800  1.00  0.00     0.014 A 
ENDBRANCH  13  15
ENDBRANCH   6   9
ENDBRANCH   2   5
BRANCH   1  21
HETATM   21  C   UNL     1     -46.480  62.058 -50.827  1.00  0.00     0.125 C 
HETATM   22  N   UNL     1     -47.377  62.534 -51.635  1.00  0.00    -0.164 NA
HETATM   23  N   UNL     1     -48.328  63.421 -51.134  1.00  0.00    -0.201 N 
HETATM   24  C   UNL     1     -48.214  64.008 -49.858  1.00  0.00     0.245 C 
HETATM   25  C   UNL     1     -46.872  63.801 -49.201  1.00  0.00     0.111 C 
HETATM   26  O   UNL     1     -49.055  64.689 -49.272  1.00  0.00    -0.271 OA
HETATM   27  C   UNL     1     -46.427  62.375 -49.367  1.00  0.00     0.076 C 
BRANCH  23  28
HETATM   28  C   UNL     1     -49.409  63.696 -52.046  1.00  0.00     0.062 A 
HETATM   29  C   UNL     1     -50.714  63.218 -51.843  1.00  0.00     0.038 A 
HETATM   30  C   UNL     1     -51.758  63.497 -52.743  1.00  0.00    -0.060 A 
HETATM   31  C   UNL     1     -53.148  62.994 -52.478  1.00  0.00     0.048 C 
HETATM   32  C   UNL     1     -51.503  64.289 -53.863  1.00  0.00     0.007 A 
HETATM   33  C   UNL     1     -50.222  64.782 -54.086  1.00  0.00     0.003 A 
HETATM   34  C   UNL     1     -49.190  64.492 -53.187  1.00  0.00     0.032 A 
ENDBRANCH  23  28
ENDBRANCH   1  21
TORSDOF 5
ENDMDL
