MODEL 1
REMARK VINA RESULT:      -8.2      0.000      0.000
REMARK  8 active torsions:
REMARK  status: ('A' for Active; 'I' for Inactive)
REMARK    1  A    between atoms: O_2  and  C_3 
REMARK    2  A    between atoms: C_5  and  O_6 
REMARK    3  A    between atoms: C_8  and  N_9 
REMARK       I    between atoms: N_9  and  C_10 
REMARK    4  A    between atoms: C_10  and  C_11 
REMARK    5  A    between atoms: C_11  and  N_12 
REMARK    6  A    between atoms: N_12  and  C_13 
REMARK    7  A    between atoms: C_14  and  N_15 
REMARK    8  A    between atoms: C_23  and  C_24 
ROOT
HETATM    1  N   UNL     1     -41.363  55.322 -55.985  1.00  0.00    -0.282 NA
HETATM    2  H   UNL     1     -40.953  56.258 -55.867  1.00  0.00     0.128 HD
ENDROOT
BRANCH   1   3
HETATM    3  C   UNL     1     -42.769  55.411 -56.392  1.00  0.00     0.195 C 
BRANCH   3   4
HETATM    4  C   UNL     1     -43.079  56.781 -57.007  1.00  0.00     0.235 C 
HETATM    5  N   UNL     1     -41.992  57.340 -57.655  1.00  0.00    -0.324 N 
HETATM    6  H   UNL     1     -41.080  56.926 -57.482  1.00  0.00     0.169 HD
HETATM    7  O   UNL     1     -44.201  57.275 -56.916  1.00  0.00    -0.272 OA
BRANCH   5   8
HETATM    8  C   UNL     1     -41.979  58.446 -58.533  1.00  0.00     0.068 A 
HETATM    9  C   UNL     1     -41.750  59.720 -57.975  1.00  0.00     0.097 A 
HETATM   10  C   UNL     1     -41.658  60.838 -58.813  1.00  0.00     0.075 A 
HETATM   11  C   UNL     1     -41.786  60.705 -60.199  1.00  0.00     0.070 A 
HETATM   12  C   UNL     1     -42.036  59.449 -60.746  1.00  0.00     0.039 A 
HETATM   13  C   UNL     1     -42.130  58.326 -59.917  1.00  0.00     0.035 A 
BRANCH   9  14
HETATM   14  O   UNL     1     -41.610  59.754 -56.606  1.00  0.00    -0.354 OA
HETATM   15  C   UNL     1     -42.553  60.539 -55.884  1.00  0.00     0.210 C 
ENDBRANCH   9  14
BRANCH  11  16
HETATM   16  O   UNL     1     -41.650  61.871 -60.903  1.00  0.00    -0.356 OA
HETATM   17  C   UNL     1     -40.501  62.659 -60.616  1.00  0.00     0.210 C 
ENDBRANCH  11  16
ENDBRANCH   5   8
ENDBRANCH   3   4
ENDBRANCH   1   3
BRANCH   1  18
HETATM   18  C   UNL     1     -41.108  54.650 -54.756  1.00  0.00     0.036 A 
HETATM   19  C   UNL     1     -41.341  55.341 -53.528  1.00  0.00     0.051 A 
HETATM   20  C   UNL     1     -41.137  54.636 -52.332  1.00  0.00     0.032 A 
HETATM   21  C   UNL     1     -40.662  53.321 -52.324  1.00  0.00     0.018 A 
HETATM   22  C   UNL     1     -40.361  52.670 -53.522  1.00  0.00     0.049 A 
HETATM   23  C   UNL     1     -40.574  53.350 -54.730  1.00  0.00     0.042 A 
BRANCH  19  24
HETATM   24  N   UNL     1     -41.810  56.666 -53.546  1.00  0.00    -0.379 N 
HETATM   25  C   UNL     1     -43.142  56.988 -53.015  1.00  0.00     0.123 C 
HETATM   26  C   UNL     1     -43.093  57.488 -51.569  1.00  0.00     0.020 C 
HETATM   27  C   UNL     1     -42.078  58.613 -51.400  1.00  0.00     0.003 C 
HETATM   28  C   UNL     1     -40.711  58.176 -51.915  1.00  0.00     0.020 C 
HETATM   29  C   UNL     1     -40.789  57.715 -53.370  1.00  0.00     0.123 C 
ENDBRANCH  19  24
BRANCH  22  30
HETATM   30  C   UNL     1     -39.858  51.250 -53.537  1.00  0.00     0.417 C 
HETATM   31  F   UNL     1     -38.603  51.120 -54.051  1.00  0.00    -0.166 F 
HETATM   32  F   UNL     1     -39.807  50.707 -52.287  1.00  0.00    -0.166 F 
HETATM   33  F   UNL     1     -40.648  50.418 -54.271  1.00  0.00    -0.166 F 
ENDBRANCH  22  30
ENDBRANCH   1  18
TORSDOF 8
ENDMDL
MODEL 2
REMARK VINA RESULT:      -8.1      0.933      1.844
REMARK  8 active torsions:
REMARK  status: ('A' for Active; 'I' for Inactive)
REMARK    1  A    between atoms: O_2  and  C_3 
REMARK    2  A    between atoms: C_5  and  O_6 
REMARK    3  A    between atoms: C_8  and  N_9 
REMARK       I    between atoms: N_9  and  C_10 
REMARK    4  A    between atoms: C_10  and  C_11 
REMARK    5  A    between atoms: C_11  and  N_12 
REMARK    6  A    between atoms: N_12  and  C_13 
REMARK    7  A    between atoms: C_14  and  N_15 
REMARK    8  A    between atoms: C_23  and  C_24 
ROOT
HETATM    1  N   UNL     1     -41.267  55.128 -55.918  1.00  0.00    -0.282 NA
HETATM    2  H   UNL     1     -40.842  56.052 -55.768  1.00  0.00     0.128 HD
ENDROOT
BRANCH   1   3
HETATM    3  C   UNL     1     -42.656  55.255 -56.371  1.00  0.00     0.195 C 
BRANCH   3   4
HETATM    4  C   UNL     1     -42.936  56.667 -56.899  1.00  0.00     0.235 C 
HETATM    5  N   UNL     1     -41.924  57.151 -57.708  1.00  0.00    -0.324 N 
HETATM    6  H   UNL     1     -41.037  56.653 -57.698  1.00  0.00     0.169 HD
HETATM    7  O   UNL     1     -43.978  57.253 -56.613  1.00  0.00    -0.272 OA
BRANCH   5   8
HETATM    8  C   UNL     1     -41.954  58.281 -58.555  1.00  0.00     0.068 A 
HETATM    9  C   UNL     1     -42.273  58.071 -59.912  1.00  0.00     0.097 A 
HETATM   10  C   UNL     1     -42.383  59.167 -60.776  1.00  0.00     0.075 A 
HETATM   11  C   UNL     1     -42.186  60.470 -60.308  1.00  0.00     0.070 A 
HETATM   12  C   UNL     1     -41.847  60.673 -58.973  1.00  0.00     0.039 A 
HETATM   13  C   UNL     1     -41.734  59.583 -58.102  1.00  0.00     0.035 A 
BRANCH   9  14
HETATM   14  O   UNL     1     -42.477  56.760 -60.280  1.00  0.00    -0.354 OA
HETATM   15  C   UNL     1     -43.826  56.349 -60.472  1.00  0.00     0.210 C 
ENDBRANCH   9  14
BRANCH  11  16
HETATM   16  O   UNL     1     -42.349  61.449 -61.249  1.00  0.00    -0.356 OA
HETATM   17  C   UNL     1     -41.163  62.056 -61.751  1.00  0.00     0.210 C 
ENDBRANCH  11  16
ENDBRANCH   5   8
ENDBRANCH   3   4
ENDBRANCH   1   3
BRANCH   1  18
HETATM   18  C   UNL     1     -41.069  54.427 -54.694  1.00  0.00     0.036 A 
HETATM   19  C   UNL     1     -41.398  55.077 -53.465  1.00  0.00     0.051 A 
HETATM   20  C   UNL     1     -41.247  54.344 -52.278  1.00  0.00     0.032 A 
HETATM   21  C   UNL     1     -40.736  53.042 -52.276  1.00  0.00     0.018 A 
HETATM   22  C   UNL     1     -40.343  52.434 -53.470  1.00  0.00     0.049 A 
HETATM   23  C   UNL     1     -40.500  53.142 -54.670  1.00  0.00     0.042 A 
BRANCH  19  24
HETATM   24  N   UNL     1     -41.902  56.388 -53.476  1.00  0.00    -0.379 N 
HETATM   25  C   UNL     1     -43.265  56.663 -52.998  1.00  0.00     0.123 C 
HETATM   26  C   UNL     1     -43.292  57.133 -51.542  1.00  0.00     0.020 C 
HETATM   27  C   UNL     1     -42.318  58.280 -51.305  1.00  0.00     0.003 C 
HETATM   28  C   UNL     1     -40.918  57.892 -51.769  1.00  0.00     0.020 C 
HETATM   29  C   UNL     1     -40.920  57.461 -53.234  1.00  0.00     0.123 C 
ENDBRANCH  19  24
BRANCH  22  30
HETATM   30  C   UNL     1     -39.800  51.029 -53.491  1.00  0.00     0.417 C 
HETATM   31  F   UNL     1     -39.623  50.493 -52.251  1.00  0.00    -0.166 F 
HETATM   32  F   UNL     1     -40.620  50.167 -54.156  1.00  0.00    -0.166 F 
HETATM   33  F   UNL     1     -38.589  50.941 -54.110  1.00  0.00    -0.166 F 
ENDBRANCH  22  30
ENDBRANCH   1  18
TORSDOF 8
ENDMDL
MODEL 3
REMARK VINA RESULT:      -7.8      3.056      3.771
REMARK  8 active torsions:
REMARK  status: ('A' for Active; 'I' for Inactive)
REMARK    1  A    between atoms: O_2  and  C_3 
REMARK    2  A    between atoms: C_5  and  O_6 
REMARK    3  A    between atoms: C_8  and  N_9 
REMARK       I    between atoms: N_9  and  C_10 
REMARK    4  A    between atoms: C_10  and  C_11 
REMARK    5  A    between atoms: C_11  and  N_12 
REMARK    6  A    between atoms: N_12  and  C_13 
REMARK    7  A    between atoms: C_14  and  N_15 
REMARK    8  A    between atoms: C_23  and  C_24 
ROOT
HETATM    1  N   UNL     1     -40.911  54.727 -53.762  1.00  0.00    -0.282 NA
HETATM    2  H   UNL     1     -41.890  54.807 -53.458  1.00  0.00     0.128 HD
ENDROOT
BRANCH   1   3
HETATM    3  C   UNL     1     -40.796  54.899 -55.214  1.00  0.00     0.195 C 
BRANCH   3   4
HETATM    4  C   UNL     1     -42.177  55.046 -55.862  1.00  0.00     0.235 C 
HETATM    5  N   UNL     1     -42.213  56.023 -56.840  1.00  0.00    -0.324 N 
HETATM    6  H   UNL     1     -41.432  56.673 -56.883  1.00  0.00     0.169 HD
HETATM    7  O   UNL     1     -43.115  54.329 -55.519  1.00  0.00    -0.272 OA
BRANCH   5   8
HETATM    8  C   UNL     1     -43.223  56.254 -57.801  1.00  0.00     0.068 A 
HETATM    9  C   UNL     1     -44.137  57.297 -57.549  1.00  0.00     0.097 A 
HETATM   10  C   UNL     1     -45.113  57.609 -58.505  1.00  0.00     0.075 A 
HETATM   11  C   UNL     1     -45.187  56.902 -59.708  1.00  0.00     0.070 A 
HETATM   12  C   UNL     1     -44.298  55.857 -59.944  1.00  0.00     0.039 A 
HETATM   13  C   UNL     1     -43.320  55.537 -58.996  1.00  0.00     0.035 A 
BRANCH   9  14
HETATM   14  O   UNL     1     -43.974  57.956 -56.352  1.00  0.00    -0.354 OA
HETATM   15  C   UNL     1     -45.060  57.897 -55.434  1.00  0.00     0.210 C 
ENDBRANCH   9  14
BRANCH  11  16
HETATM   16  O   UNL     1     -46.168  57.326 -60.563  1.00  0.00    -0.356 OA
HETATM   17  C   UNL     1     -47.270  56.446 -60.756  1.00  0.00     0.210 C 
ENDBRANCH  11  16
ENDBRANCH   5   8
ENDBRANCH   3   4
ENDBRANCH   1   3
BRANCH   1  18
HETATM   18  C   UNL     1     -40.464  53.478 -53.243  1.00  0.00     0.036 A 
HETATM   19  C   UNL     1     -40.095  53.395 -51.865  1.00  0.00     0.051 A 
HETATM   20  C   UNL     1     -39.713  52.140 -51.366  1.00  0.00     0.032 A 
HETATM   21  C   UNL     1     -39.631  51.013 -52.190  1.00  0.00     0.018 A 
HETATM   22  C   UNL     1     -39.918  51.111 -53.553  1.00  0.00     0.049 A 
HETATM   23  C   UNL     1     -40.318  52.351 -54.070  1.00  0.00     0.042 A 
BRANCH  19  24
HETATM   24  N   UNL     1     -40.172  54.534 -51.047  1.00  0.00    -0.379 N 
HETATM   25  C   UNL     1     -41.457  55.218 -50.847  1.00  0.00     0.123 C 
HETATM   26  C   UNL     1     -42.158  54.784 -49.557  1.00  0.00     0.020 C 
HETATM   27  C   UNL     1     -41.225  54.871 -48.355  1.00  0.00     0.003 C 
HETATM   28  C   UNL     1     -39.945  54.085 -48.619  1.00  0.00     0.020 C 
HETATM   29  C   UNL     1     -39.253  54.565 -49.893  1.00  0.00     0.123 C 
ENDBRANCH  19  24
BRANCH  22  30
HETATM   30  C   UNL     1     -39.845  49.907 -54.456  1.00  0.00     0.417 C 
HETATM   31  F   UNL     1     -39.168  48.857 -53.914  1.00  0.00    -0.166 F 
HETATM   32  F   UNL     1     -41.080  49.428 -54.779  1.00  0.00    -0.166 F 
HETATM   33  F   UNL     1     -39.229  50.174 -55.641  1.00  0.00    -0.166 F 
ENDBRANCH  22  30
ENDBRANCH   1  18
TORSDOF 8
ENDMDL
MODEL 4
REMARK VINA RESULT:      -7.7      2.347      3.034
REMARK  8 active torsions:
REMARK  status: ('A' for Active; 'I' for Inactive)
REMARK    1  A    between atoms: O_2  and  C_3 
REMARK    2  A    between atoms: C_5  and  O_6 
REMARK    3  A    between atoms: C_8  and  N_9 
REMARK       I    between atoms: N_9  and  C_10 
REMARK    4  A    between atoms: C_10  and  C_11 
REMARK    5  A    between atoms: C_11  and  N_12 
REMARK    6  A    between atoms: N_12  and  C_13 
REMARK    7  A    between atoms: C_14  and  N_15 
REMARK    8  A    between atoms: C_23  and  C_24 
ROOT
HETATM    1  N   UNL     1     -41.405  55.277 -55.881  1.00  0.00    -0.282 NA
HETATM    2  H   UNL     1     -41.186  56.258 -55.663  1.00  0.00     0.128 HD
ENDROOT
BRANCH   1   3
HETATM    3  C   UNL     1     -42.754  55.152 -56.442  1.00  0.00     0.195 C 
BRANCH   3   4
HETATM    4  C   UNL     1     -43.228  56.481 -57.041  1.00  0.00     0.235 C 
HETATM    5  N   UNL     1     -44.066  56.315 -58.128  1.00  0.00    -0.324 N 
HETATM    6  H   UNL     1     -44.110  55.390 -58.549  1.00  0.00     0.169 HD
HETATM    7  O   UNL     1     -42.878  57.554 -56.553  1.00  0.00    -0.272 OA
BRANCH   5   8
HETATM    8  C   UNL     1     -44.877  57.286 -58.757  1.00  0.00     0.068 A 
HETATM    9  C   UNL     1     -44.399  57.860 -59.952  1.00  0.00     0.097 A 
HETATM   10  C   UNL     1     -45.197  58.776 -60.649  1.00  0.00     0.075 A 
HETATM   11  C   UNL     1     -46.466  59.124 -60.176  1.00  0.00     0.070 A 
HETATM   12  C   UNL     1     -46.926  58.573 -58.983  1.00  0.00     0.039 A 
HETATM   13  C   UNL     1     -46.135  57.658 -58.279  1.00  0.00     0.035 A 
BRANCH   9  14
HETATM   14  O   UNL     1     -43.152  57.441 -60.358  1.00  0.00    -0.354 OA
HETATM   15  C   UNL     1     -42.110  58.411 -60.337  1.00  0.00     0.210 C 
ENDBRANCH   9  14
BRANCH  11  16
HETATM   16  O   UNL     1     -47.150  60.007 -60.965  1.00  0.00    -0.356 OA
HETATM   17  C   UNL     1     -48.344  60.557 -60.420  1.00  0.00     0.210 C 
ENDBRANCH  11  16
ENDBRANCH   5   8
ENDBRANCH   3   4
ENDBRANCH   1   3
BRANCH   1  18
HETATM   18  C   UNL     1     -41.162  54.567 -54.671  1.00  0.00     0.036 A 
HETATM   19  C   UNL     1     -41.447  55.206 -53.425  1.00  0.00     0.051 A 
HETATM   20  C   UNL     1     -41.252  54.464 -52.251  1.00  0.00     0.032 A 
HETATM   21  C   UNL     1     -40.738  53.164 -52.277  1.00  0.00     0.018 A 
HETATM   22  C   UNL     1     -40.387  52.566 -53.490  1.00  0.00     0.049 A 
HETATM   23  C   UNL     1     -40.589  53.284 -54.678  1.00  0.00     0.042 A 
BRANCH  19  24
HETATM   24  N   UNL     1     -41.955  56.516 -53.407  1.00  0.00    -0.379 N 
HETATM   25  C   UNL     1     -43.321  56.775 -52.930  1.00  0.00     0.123 C 
HETATM   26  C   UNL     1     -43.357  57.210 -51.463  1.00  0.00     0.020 C 
HETATM   27  C   UNL     1     -42.386  58.355 -51.194  1.00  0.00     0.003 C 
HETATM   28  C   UNL     1     -40.983  57.981 -51.659  1.00  0.00     0.020 C 
HETATM   29  C   UNL     1     -40.976  57.585 -53.135  1.00  0.00     0.123 C 
ENDBRANCH  19  24
BRANCH  22  30
HETATM   30  C   UNL     1     -39.841  51.163 -53.542  1.00  0.00     0.417 C 
HETATM   31  F   UNL     1     -39.859  50.525 -52.339  1.00  0.00    -0.166 F 
HETATM   32  F   UNL     1     -40.543  50.367 -54.397  1.00  0.00    -0.166 F 
HETATM   33  F   UNL     1     -38.548  51.116 -53.968  1.00  0.00    -0.166 F 
ENDBRANCH  22  30
ENDBRANCH   1  18
TORSDOF 8
ENDMDL
MODEL 5
REMARK VINA RESULT:      -7.6      3.982      8.393
REMARK  8 active torsions:
REMARK  status: ('A' for Active; 'I' for Inactive)
REMARK    1  A    between atoms: O_2  and  C_3 
REMARK    2  A    between atoms: C_5  and  O_6 
REMARK    3  A    between atoms: C_8  and  N_9 
REMARK       I    between atoms: N_9  and  C_10 
REMARK    4  A    between atoms: C_10  and  C_11 
REMARK    5  A    between atoms: C_11  and  N_12 
REMARK    6  A    between atoms: N_12  and  C_13 
REMARK    7  A    between atoms: C_14  and  N_15 
REMARK    8  A    between atoms: C_23  and  C_24 
ROOT
HETATM    1  N   UNL     1     -42.118  56.893 -56.987  1.00  0.00    -0.282 NA
HETATM    2  H   UNL     1     -41.552  56.106 -57.330  1.00  0.00     0.128 HD
ENDROOT
BRANCH   1   3
HETATM    3  C   UNL     1     -42.690  56.595 -55.670  1.00  0.00     0.195 C 
BRANCH   3   4
HETATM    4  C   UNL     1     -42.364  55.160 -55.240  1.00  0.00     0.235 C 
HETATM    5  N   UNL     1     -41.145  55.055 -54.594  1.00  0.00    -0.324 N 
HETATM    6  H   UNL     1     -40.510  55.846 -54.659  1.00  0.00     0.169 HD
HETATM    7  O   UNL     1     -43.150  54.241 -55.459  1.00  0.00    -0.272 OA
BRANCH   5   8
HETATM    8  C   UNL     1     -40.648  53.961 -53.851  1.00  0.00     0.068 A 
HETATM    9  C   UNL     1     -40.670  54.063 -52.445  1.00  0.00     0.097 A 
HETATM   10  C   UNL     1     -40.252  52.978 -51.665  1.00  0.00     0.075 A 
HETATM   11  C   UNL     1     -39.817  51.792 -52.263  1.00  0.00     0.070 A 
HETATM   12  C   UNL     1     -39.772  51.702 -53.652  1.00  0.00     0.039 A 
HETATM   13  C   UNL     1     -40.188  52.781 -54.440  1.00  0.00     0.035 A 
BRANCH   9  14
HETATM   14  O   UNL     1     -41.138  55.256 -51.942  1.00  0.00    -0.354 OA
HETATM   15  C   UNL     1     -41.441  55.291 -50.551  1.00  0.00     0.210 C 
ENDBRANCH   9  14
BRANCH  11  16
HETATM   16  O   UNL     1     -39.462  50.803 -51.387  1.00  0.00    -0.356 OA
HETATM   17  C   UNL     1     -39.554  49.465 -51.863  1.00  0.00     0.210 C 
ENDBRANCH  11  16
ENDBRANCH   5   8
ENDBRANCH   3   4
ENDBRANCH   1   3
BRANCH   1  18
HETATM   18  C   UNL     1     -43.051  57.158 -58.030  1.00  0.00     0.036 A 
HETATM   19  C   UNL     1     -43.295  58.513 -58.411  1.00  0.00     0.051 A 
HETATM   20  C   UNL     1     -44.176  58.743 -59.479  1.00  0.00     0.032 A 
HETATM   21  C   UNL     1     -44.847  57.696 -60.119  1.00  0.00     0.018 A 
HETATM   22  C   UNL     1     -44.667  56.377 -59.696  1.00  0.00     0.049 A 
HETATM   23  C   UNL     1     -43.778  56.123 -58.641  1.00  0.00     0.042 A 
BRANCH  19  24
HETATM   24  N   UNL     1     -42.623  59.560 -57.756  1.00  0.00    -0.379 N 
HETATM   25  C   UNL     1     -41.592  60.334 -58.461  1.00  0.00     0.123 C 
HETATM   26  C   UNL     1     -42.137  61.638 -59.049  1.00  0.00     0.020 C 
HETATM   27  C   UNL     1     -42.903  62.445 -58.008  1.00  0.00     0.003 C 
HETATM   28  C   UNL     1     -43.993  61.590 -57.370  1.00  0.00     0.020 C 
HETATM   29  C   UNL     1     -43.412  60.314 -56.764  1.00  0.00     0.123 C 
ENDBRANCH  19  24
BRANCH  22  30
HETATM   30  C   UNL     1     -45.372  55.233 -60.378  1.00  0.00     0.417 C 
HETATM   31  F   UNL     1     -45.183  54.032 -59.764  1.00  0.00    -0.166 F 
HETATM   32  F   UNL     1     -46.722  55.417 -60.431  1.00  0.00    -0.166 F 
HETATM   33  F   UNL     1     -44.970  55.059 -61.667  1.00  0.00    -0.166 F 
ENDBRANCH  22  30
ENDBRANCH   1  18
TORSDOF 8
ENDMDL
MODEL 6
REMARK VINA RESULT:      -7.5      3.868      5.757
REMARK  8 active torsions:
REMARK  status: ('A' for Active; 'I' for Inactive)
REMARK    1  A    between atoms: O_2  and  C_3 
REMARK    2  A    between atoms: C_5  and  O_6 
REMARK    3  A    between atoms: C_8  and  N_9 
REMARK       I    between atoms: N_9  and  C_10 
REMARK    4  A    between atoms: C_10  and  C_11 
REMARK    5  A    between atoms: C_11  and  N_12 
REMARK    6  A    between atoms: N_12  and  C_13 
REMARK    7  A    between atoms: C_14  and  N_15 
REMARK    8  A    between atoms: C_23  and  C_24 
ROOT
HETATM    1  N   UNL     1     -40.611  54.415 -50.902  1.00  0.00    -0.282 NA
HETATM    2  H   UNL     1     -39.681  54.511 -50.472  1.00  0.00     0.128 HD
ENDROOT
BRANCH   1   3
HETATM    3  C   UNL     1     -41.658  54.335 -49.879  1.00  0.00     0.195 C 
BRANCH   3   4
HETATM    4  C   UNL     1     -42.863  55.204 -50.255  1.00  0.00     0.235 C 
HETATM    5  N   UNL     1     -42.520  56.519 -50.515  1.00  0.00    -0.324 N 
HETATM    6  H   UNL     1     -41.594  56.827 -50.232  1.00  0.00     0.169 HD
HETATM    7  O   UNL     1     -43.993  54.724 -50.317  1.00  0.00    -0.272 OA
BRANCH   5   8
HETATM    8  C   UNL     1     -43.311  57.519 -51.124  1.00  0.00     0.068 A 
HETATM    9  C   UNL     1     -42.658  58.451 -51.956  1.00  0.00     0.097 A 
HETATM   10  C   UNL     1     -43.408  59.418 -52.636  1.00  0.00     0.075 A 
HETATM   11  C   UNL     1     -44.799  59.468 -52.505  1.00  0.00     0.070 A 
HETATM   12  C   UNL     1     -45.439  58.561 -51.664  1.00  0.00     0.039 A 
HETATM   13  C   UNL     1     -44.698  57.591 -50.980  1.00  0.00     0.035 A 
BRANCH   9  14
HETATM   14  O   UNL     1     -41.291  58.312 -52.047  1.00  0.00    -0.354 OA
HETATM   15  C   UNL     1     -40.674  58.803 -53.232  1.00  0.00     0.210 C 
ENDBRANCH   9  14
BRANCH  11  16
HETATM   16  O   UNL     1     -45.411  60.443 -53.243  1.00  0.00    -0.356 OA
HETATM   17  C   UNL     1     -46.505  61.115 -52.630  1.00  0.00     0.210 C 
ENDBRANCH  11  16
ENDBRANCH   5   8
ENDBRANCH   3   4
ENDBRANCH   1   3
BRANCH   1  18
HETATM   18  C   UNL     1     -40.500  53.294 -51.774  1.00  0.00     0.036 A 
HETATM   19  C   UNL     1     -40.885  53.441 -53.141  1.00  0.00     0.051 A 
HETATM   20  C   UNL     1     -40.712  52.337 -53.991  1.00  0.00     0.032 A 
HETATM   21  C   UNL     1     -40.238  51.110 -53.517  1.00  0.00     0.018 A 
HETATM   22  C   UNL     1     -39.935  50.943 -52.164  1.00  0.00     0.049 A 
HETATM   23  C   UNL     1     -40.084  52.038 -51.300  1.00  0.00     0.042 A 
BRANCH  19  24
HETATM   24  N   UNL     1     -41.368  54.675 -53.607  1.00  0.00    -0.379 N 
HETATM   25  C   UNL     1     -40.664  55.389 -54.683  1.00  0.00     0.123 C 
HETATM   26  C   UNL     1     -41.278  55.127 -56.060  1.00  0.00     0.020 C 
HETATM   27  C   UNL     1     -42.785  55.358 -56.055  1.00  0.00     0.003 C 
HETATM   28  C   UNL     1     -43.445  54.535 -54.954  1.00  0.00     0.020 C 
HETATM   29  C   UNL     1     -42.833  54.845 -53.589  1.00  0.00     0.123 C 
ENDBRANCH  19  24
BRANCH  22  30
HETATM   30  C   UNL     1     -39.414  49.632 -51.634  1.00  0.00     0.417 C 
HETATM   31  F   UNL     1     -38.354  49.767 -50.789  1.00  0.00    -0.166 F 
HETATM   32  F   UNL     1     -40.362  48.943 -50.938  1.00  0.00    -0.166 F 
HETATM   33  F   UNL     1     -38.997  48.793 -52.622  1.00  0.00    -0.166 F 
ENDBRANCH  22  30
ENDBRANCH   1  18
TORSDOF 8
ENDMDL
MODEL 7
REMARK VINA RESULT:      -7.4      4.676      8.717
REMARK  8 active torsions:
REMARK  status: ('A' for Active; 'I' for Inactive)
REMARK    1  A    between atoms: O_2  and  C_3 
REMARK    2  A    between atoms: C_5  and  O_6 
REMARK    3  A    between atoms: C_8  and  N_9 
REMARK       I    between atoms: N_9  and  C_10 
REMARK    4  A    between atoms: C_10  and  C_11 
REMARK    5  A    between atoms: C_11  and  N_12 
REMARK    6  A    between atoms: N_12  and  C_13 
REMARK    7  A    between atoms: C_14  and  N_15 
REMARK    8  A    between atoms: C_23  and  C_24 
ROOT
HETATM    1  N   UNL     1     -43.753  58.796 -56.294  1.00  0.00    -0.282 NA
HETATM    2  H   UNL     1     -44.318  59.610 -56.019  1.00  0.00     0.128 HD
ENDROOT
BRANCH   1   3
HETATM    3  C   UNL     1     -42.768  58.466 -55.259  1.00  0.00     0.195 C 
BRANCH   3   4
HETATM    4  C   UNL     1     -42.663  56.949 -55.062  1.00  0.00     0.235 C 
HETATM    5  N   UNL     1     -41.377  56.530 -54.773  1.00  0.00    -0.324 N 
HETATM    6  H   UNL     1     -40.622  57.192 -54.931  1.00  0.00     0.169 HD
HETATM    7  O   UNL     1     -43.658  56.231 -55.148  1.00  0.00    -0.272 OA
BRANCH   5   8
HETATM    8  C   UNL     1     -40.962  55.269 -54.290  1.00  0.00     0.068 A 
HETATM    9  C   UNL     1     -40.986  55.064 -52.896  1.00  0.00     0.097 A 
HETATM   10  C   UNL     1     -40.650  53.808 -52.374  1.00  0.00     0.075 A 
HETATM   11  C   UNL     1     -40.295  52.754 -53.220  1.00  0.00     0.070 A 
HETATM   12  C   UNL     1     -40.248  52.966 -54.595  1.00  0.00     0.039 A 
HETATM   13  C   UNL     1     -40.582  54.217 -55.126  1.00  0.00     0.035 A 
BRANCH   9  14
HETATM   14  O   UNL     1     -41.373  56.148 -52.141  1.00  0.00    -0.354 OA
HETATM   15  C   UNL     1     -42.499  55.968 -51.289  1.00  0.00     0.210 C 
ENDBRANCH   9  14
BRANCH  11  16
HETATM   16  O   UNL     1     -40.016  51.575 -52.583  1.00  0.00    -0.356 OA
HETATM   17  C   UNL     1     -39.646  50.476 -53.408  1.00  0.00     0.210 C 
ENDBRANCH  11  16
ENDBRANCH   5   8
ENDBRANCH   3   4
ENDBRANCH   1   3
BRANCH   1  18
HETATM   18  C   UNL     1     -43.226  59.129 -57.575  1.00  0.00     0.036 A 
HETATM   19  C   UNL     1     -43.519  58.278 -58.685  1.00  0.00     0.051 A 
HETATM   20  C   UNL     1     -43.035  58.660 -59.946  1.00  0.00     0.032 A 
HETATM   21  C   UNL     1     -42.241  59.798 -60.117  1.00  0.00     0.018 A 
HETATM   22  C   UNL     1     -41.891  60.588 -59.020  1.00  0.00     0.049 A 
HETATM   23  C   UNL     1     -42.377  60.234 -57.752  1.00  0.00     0.042 A 
BRANCH  19  24
HETATM   24  N   UNL     1     -44.311  57.132 -58.502  1.00  0.00    -0.379 N 
HETATM   25  C   UNL     1     -45.713  57.121 -58.944  1.00  0.00     0.123 C 
HETATM   26  C   UNL     1     -45.887  56.486 -60.325  1.00  0.00     0.020 C 
HETATM   27  C   UNL     1     -45.209  55.123 -60.406  1.00  0.00     0.003 C 
HETATM   28  C   UNL     1     -43.745  55.233 -59.993  1.00  0.00     0.020 C 
HETATM   29  C   UNL     1     -43.608  55.839 -58.597  1.00  0.00     0.123 C 
ENDBRANCH  19  24
BRANCH  22  30
HETATM   30  C   UNL     1     -41.044  61.823 -59.183  1.00  0.00     0.417 C 
HETATM   31  F   UNL     1     -40.665  62.059 -60.470  1.00  0.00    -0.166 F 
HETATM   32  F   UNL     1     -41.690  62.951 -58.772  1.00  0.00    -0.166 F 
HETATM   33  F   UNL     1     -39.891  61.771 -58.460  1.00  0.00    -0.166 F 
ENDBRANCH  22  30
ENDBRANCH   1  18
TORSDOF 8
ENDMDL
MODEL 8
REMARK VINA RESULT:      -7.4      4.993      7.905
REMARK  8 active torsions:
REMARK  status: ('A' for Active; 'I' for Inactive)
REMARK    1  A    between atoms: O_2  and  C_3 
REMARK    2  A    between atoms: C_5  and  O_6 
REMARK    3  A    between atoms: C_8  and  N_9 
REMARK       I    between atoms: N_9  and  C_10 
REMARK    4  A    between atoms: C_10  and  C_11 
REMARK    5  A    between atoms: C_11  and  N_12 
REMARK    6  A    between atoms: N_12  and  C_13 
REMARK    7  A    between atoms: C_14  and  N_15 
REMARK    8  A    between atoms: C_23  and  C_24 
ROOT
HETATM    1  N   UNL     1     -43.813  57.532 -51.940  1.00  0.00    -0.282 NA
HETATM    2  H   UNL     1     -44.596  57.992 -52.423  1.00  0.00     0.128 HD
ENDROOT
BRANCH   1   3
HETATM    3  C   UNL     1     -44.300  56.608 -50.911  1.00  0.00     0.195 C 
BRANCH   3   4
HETATM    4  C   UNL     1     -43.710  55.206 -51.105  1.00  0.00     0.235 C 
HETATM    5  N   UNL     1     -42.833  55.133 -52.171  1.00  0.00    -0.324 N 
HETATM    6  H   UNL     1     -42.830  55.908 -52.830  1.00  0.00     0.169 HD
HETATM    7  O   UNL     1     -44.011  54.284 -50.349  1.00  0.00    -0.272 OA
BRANCH   5   8
HETATM    8  C   UNL     1     -41.929  54.093 -52.483  1.00  0.00     0.068 A 
HETATM    9  C   UNL     1     -41.938  53.594 -53.801  1.00  0.00     0.097 A 
HETATM   10  C   UNL     1     -41.014  52.611 -54.177  1.00  0.00     0.075 A 
HETATM   11  C   UNL     1     -40.077  52.123 -53.262  1.00  0.00     0.070 A 
HETATM   12  C   UNL     1     -40.086  52.600 -51.953  1.00  0.00     0.039 A 
HETATM   13  C   UNL     1     -41.005  53.581 -51.568  1.00  0.00     0.035 A 
BRANCH   9  14
HETATM   14  O   UNL     1     -42.876  54.150 -54.642  1.00  0.00    -0.354 OA
HETATM   15  C   UNL     1     -42.383  54.839 -55.786  1.00  0.00     0.210 C 
ENDBRANCH   9  14
BRANCH  11  16
HETATM   16  O   UNL     1     -39.216  51.186 -53.765  1.00  0.00    -0.356 OA
HETATM   17  C   UNL     1     -39.801  49.999 -54.289  1.00  0.00     0.210 C 
ENDBRANCH  11  16
ENDBRANCH   5   8
ENDBRANCH   3   4
ENDBRANCH   1   3
BRANCH   1  18
HETATM   18  C   UNL     1     -42.983  58.596 -51.485  1.00  0.00     0.036 A 
HETATM   19  C   UNL     1     -43.589  59.836 -51.116  1.00  0.00     0.051 A 
HETATM   20  C   UNL     1     -42.754  60.847 -50.617  1.00  0.00     0.032 A 
HETATM   21  C   UNL     1     -41.368  60.685 -50.534  1.00  0.00     0.018 A 
HETATM   22  C   UNL     1     -40.767  59.501 -50.966  1.00  0.00     0.049 A 
HETATM   23  C   UNL     1     -41.583  58.470 -51.454  1.00  0.00     0.042 A 
BRANCH  19  24
HETATM   24  N   UNL     1     -44.982  59.993 -51.210  1.00  0.00    -0.379 N 
HETATM   25  C   UNL     1     -45.781  60.260 -50.006  1.00  0.00     0.123 C 
HETATM   26  C   UNL     1     -46.067  61.751 -49.810  1.00  0.00     0.020 C 
HETATM   27  C   UNL     1     -46.636  62.383 -51.075  1.00  0.00     0.003 C 
HETATM   28  C   UNL     1     -45.717  62.114 -52.262  1.00  0.00     0.020 C 
HETATM   29  C   UNL     1     -45.480  60.617 -52.450  1.00  0.00     0.123 C 
ENDBRANCH  19  24
BRANCH  22  30
HETATM   30  C   UNL     1     -39.276  59.302 -50.878  1.00  0.00     0.417 C 
HETATM   31  F   UNL     1     -38.644  60.239 -50.117  1.00  0.00    -0.166 F 
HETATM   32  F   UNL     1     -38.948  58.096 -50.334  1.00  0.00    -0.166 F 
HETATM   33  F   UNL     1     -38.666  59.338 -52.095  1.00  0.00    -0.166 F 
ENDBRANCH  22  30
ENDBRANCH   1  18
TORSDOF 8
ENDMDL
MODEL 9
REMARK VINA RESULT:      -7.2     16.318     19.713
REMARK  8 active torsions:
REMARK  status: ('A' for Active; 'I' for Inactive)
REMARK    1  A    between atoms: O_2  and  C_3 
REMARK    2  A    between atoms: C_5  and  O_6 
REMARK    3  A    between atoms: C_8  and  N_9 
REMARK       I    between atoms: N_9  and  C_10 
REMARK    4  A    between atoms: C_10  and  C_11 
REMARK    5  A    between atoms: C_11  and  N_12 
REMARK    6  A    between atoms: N_12  and  C_13 
REMARK    7  A    between atoms: C_14  and  N_15 
REMARK    8  A    between atoms: C_23  and  C_24 
ROOT
HETATM    1  N   UNL     1     -34.825  42.188 -55.231  1.00  0.00    -0.282 NA
HETATM    2  H   UNL     1     -33.914  41.875 -54.872  1.00  0.00     0.128 HD
ENDROOT
BRANCH   1   3
HETATM    3  C   UNL     1     -35.824  42.239 -54.160  1.00  0.00     0.195 C 
BRANCH   3   4
HETATM    4  C   UNL     1     -35.168  42.064 -52.785  1.00  0.00     0.235 C 
HETATM    5  N   UNL     1     -34.711  40.777 -52.566  1.00  0.00    -0.324 N 
HETATM    6  H   UNL     1     -35.034  40.050 -53.200  1.00  0.00     0.169 HD
HETATM    7  O   UNL     1     -35.070  43.010 -52.007  1.00  0.00    -0.272 OA
BRANCH   5   8
HETATM    8  C   UNL     1     -33.849  40.324 -51.543  1.00  0.00     0.068 A 
HETATM    9  C   UNL     1     -34.432  39.666 -50.441  1.00  0.00     0.097 A 
HETATM   10  C   UNL     1     -33.613  39.137 -49.436  1.00  0.00     0.075 A 
HETATM   11  C   UNL     1     -32.221  39.250 -49.514  1.00  0.00     0.070 A 
HETATM   12  C   UNL     1     -31.649  39.922 -50.591  1.00  0.00     0.039 A 
HETATM   13  C   UNL     1     -32.459  40.453 -51.600  1.00  0.00     0.035 A 
BRANCH   9  14
HETATM   14  O   UNL     1     -35.806  39.577 -50.459  1.00  0.00    -0.354 OA
HETATM   15  C   UNL     1     -36.365  38.269 -50.414  1.00  0.00     0.210 C 
ENDBRANCH   9  14
BRANCH  11  16
HETATM   16  O   UNL     1     -31.539  38.668 -48.480  1.00  0.00    -0.356 OA
HETATM   17  C   UNL     1     -31.060  39.538 -47.462  1.00  0.00     0.210 C 
ENDBRANCH  11  16
ENDBRANCH   5   8
ENDBRANCH   3   4
ENDBRANCH   1   3
BRANCH   1  18
HETATM   18  C   UNL     1     -35.115  41.311 -56.316  1.00  0.00     0.036 A 
HETATM   19  C   UNL     1     -34.428  40.061 -56.397  1.00  0.00     0.051 A 
HETATM   20  C   UNL     1     -34.773  39.192 -57.443  1.00  0.00     0.032 A 
HETATM   21  C   UNL     1     -35.711  39.548 -58.417  1.00  0.00     0.018 A 
HETATM   22  C   UNL     1     -36.327  40.800 -58.382  1.00  0.00     0.049 A 
HETATM   23  C   UNL     1     -36.010  41.679 -57.336  1.00  0.00     0.042 A 
BRANCH  19  24
HETATM   24  N   UNL     1     -33.480  39.716 -55.418  1.00  0.00    -0.379 N 
HETATM   25  C   UNL     1     -33.488  38.373 -54.820  1.00  0.00     0.123 C 
HETATM   26  C   UNL     1     -32.491  37.426 -55.492  1.00  0.00     0.020 C 
HETATM   27  C   UNL     1     -31.102  38.047 -55.585  1.00  0.00     0.003 C 
HETATM   28  C   UNL     1     -31.173  39.406 -56.273  1.00  0.00     0.020 C 
HETATM   29  C   UNL     1     -32.150  40.338 -55.558  1.00  0.00     0.123 C 
ENDBRANCH  19  24
BRANCH  22  30
HETATM   30  C   UNL     1     -37.348  41.200 -59.415  1.00  0.00     0.417 C 
HETATM   31  F   UNL     1     -37.150  40.620 -60.632  1.00  0.00    -0.166 F 
HETATM   32  F   UNL     1     -38.617  40.866 -59.045  1.00  0.00    -0.166 F 
HETATM   33  F   UNL     1     -37.369  42.543 -59.644  1.00  0.00    -0.166 F 
ENDBRANCH  22  30
ENDBRANCH   1  18
TORSDOF 8
ENDMDL
MODEL 10
REMARK VINA RESULT:      -7.2      1.996      3.105
REMARK  8 active torsions:
REMARK  status: ('A' for Active; 'I' for Inactive)
REMARK    1  A    between atoms: O_2  and  C_3 
REMARK    2  A    between atoms: C_5  and  O_6 
REMARK    3  A    between atoms: C_8  and  N_9 
REMARK       I    between atoms: N_9  and  C_10 
REMARK    4  A    between atoms: C_10  and  C_11 
REMARK    5  A    between atoms: C_11  and  N_12 
REMARK    6  A    between atoms: N_12  and  C_13 
REMARK    7  A    between atoms: C_14  and  N_15 
REMARK    8  A    between atoms: C_23  and  C_24 
ROOT
HETATM    1  N   UNL     1     -42.562  54.356 -53.673  1.00  0.00    -0.282 NA
HETATM    2  H   UNL     1     -43.350  54.242 -53.021  1.00  0.00     0.128 HD
ENDROOT
BRANCH   1   3
HETATM    3  C   UNL     1     -42.992  54.146 -55.059  1.00  0.00     0.195 C 
BRANCH   3   4
HETATM    4  C   UNL     1     -42.411  55.223 -55.984  1.00  0.00     0.235 C 
HETATM    5  N   UNL     1     -43.166  55.416 -57.126  1.00  0.00    -0.324 N 
HETATM    6  H   UNL     1     -43.869  54.715 -57.349  1.00  0.00     0.169 HD
HETATM    7  O   UNL     1     -41.386  55.829 -55.681  1.00  0.00    -0.272 OA
BRANCH   5   8
HETATM    8  C   UNL     1     -43.079  56.476 -58.056  1.00  0.00     0.068 A 
HETATM    9  C   UNL     1     -43.459  56.209 -59.388  1.00  0.00     0.097 A 
HETATM   10  C   UNL     1     -43.456  57.244 -60.330  1.00  0.00     0.075 A 
HETATM   11  C   UNL     1     -43.085  58.542 -59.966  1.00  0.00     0.070 A 
HETATM   12  C   UNL     1     -42.687  58.798 -58.657  1.00  0.00     0.039 A 
HETATM   13  C   UNL     1     -42.686  57.770 -57.708  1.00  0.00     0.035 A 
BRANCH   9  14
HETATM   14  O   UNL     1     -43.834  54.911 -59.651  1.00  0.00    -0.354 OA
HETATM   15  C   UNL     1     -44.950  54.728 -60.516  1.00  0.00     0.210 C 
ENDBRANCH   9  14
BRANCH  11  16
HETATM   16  O   UNL     1     -43.151  59.463 -60.976  1.00  0.00    -0.356 OA
HETATM   17  C   UNL     1     -42.013  60.299 -61.153  1.00  0.00     0.210 C 
ENDBRANCH  11  16
ENDBRANCH   5   8
ENDBRANCH   3   4
ENDBRANCH   1   3
BRANCH   1  18
HETATM   18  C   UNL     1     -41.553  53.473 -53.190  1.00  0.00     0.036 A 
HETATM   19  C   UNL     1     -40.896  53.781 -51.960  1.00  0.00     0.051 A 
HETATM   20  C   UNL     1     -39.948  52.866 -51.479  1.00  0.00     0.032 A 
HETATM   21  C   UNL     1     -39.602  51.717 -52.197  1.00  0.00     0.018 A 
HETATM   22  C   UNL     1     -40.188  51.454 -53.437  1.00  0.00     0.049 A 
HETATM   23  C   UNL     1     -41.152  52.347 -53.930  1.00  0.00     0.042 A 
BRANCH  19  24
HETATM   24  N   UNL     1     -41.244  54.942 -51.248  1.00  0.00    -0.379 N 
HETATM   25  C   UNL     1     -41.320  56.238 -51.937  1.00  0.00     0.123 C 
HETATM   26  C   UNL     1     -42.748  56.597 -52.356  1.00  0.00     0.020 C 
HETATM   27  C   UNL     1     -43.724  56.463 -51.193  1.00  0.00     0.003 C 
HETATM   28  C   UNL     1     -43.627  55.071 -50.576  1.00  0.00     0.020 C 
HETATM   29  C   UNL     1     -42.197  54.759 -50.138  1.00  0.00     0.123 C 
ENDBRANCH  19  24
BRANCH  22  30
HETATM   30  C   UNL     1     -39.837  50.218 -54.223  1.00  0.00     0.417 C 
HETATM   31  F   UNL     1     -39.108  50.473 -55.345  1.00  0.00    -0.166 F 
HETATM   32  F   UNL     1     -39.101  49.333 -53.493  1.00  0.00    -0.166 F 
HETATM   33  F   UNL     1     -40.936  49.530 -54.642  1.00  0.00    -0.166 F 
ENDBRANCH  22  30
ENDBRANCH   1  18
TORSDOF 8
ENDMDL
