MODEL 1
REMARK VINA RESULT:      -8.4      0.000      0.000
REMARK  9 active torsions:
REMARK  status: ('A' for Active; 'I' for Inactive)
REMARK    1  A    between atoms: C_7  and  O_8 
REMARK    2  A    between atoms: O_8  and  C_9 
REMARK    3  A    between atoms: C_9  and  C_10 
REMARK    4  A    between atoms: C_10  and  O_11 
REMARK    5  A    between atoms: C_10  and  C_12 
REMARK    6  A    between atoms: C_12  and  N_13 
REMARK    7  A    between atoms: N_18  and  C_19 
REMARK    8  A    between atoms: C_19  and  C_20 
REMARK    9  A    between atoms: C_20  and  N_21 
ROOT
HETATM    1  N   UNL     1     -43.156  56.773 -52.040  1.00  0.00    -0.179 N 
HETATM    2  C   UNL     1     -43.595  56.896 -53.344  1.00  0.00     0.681 A 
HETATM    3  N   UNL     1     -44.698  56.313 -53.813  1.00  0.00    -0.234 N 
HETATM    4  H   UNL     1     -45.095  56.456 -54.725  1.00  0.00     0.174 HD
HETATM    5  H   UNL     1     -45.142  55.600 -53.219  1.00  0.00     0.174 HD
HETATM    6  N   UNL     1     -42.769  57.699 -54.127  1.00  0.00    -0.180 N 
HETATM    7  C   UNL     1     -41.749  58.142 -53.228  1.00  0.00     0.079 A 
HETATM    8  C   UNL     1     -41.979  57.570 -51.965  1.00  0.00     0.079 A 
HETATM    9  C   UNL     1     -40.684  58.987 -53.461  1.00  0.00     0.032 A 
HETATM   10  C   UNL     1     -39.831  59.249 -52.385  1.00  0.00     0.002 A 
HETATM   11  C   UNL     1     -40.057  58.672 -51.119  1.00  0.00     0.002 A 
HETATM   12  C   UNL     1     -41.146  57.821 -50.896  1.00  0.00     0.032 A 
ENDROOT
BRANCH   1  13
HETATM   13  C   UNL     1     -43.815  56.077 -50.917  1.00  0.00     0.181 C 
BRANCH  13  14
HETATM   14  C   UNL     1     -43.497  54.579 -50.862  1.00  0.00     0.161 C 
BRANCH  14  15
HETATM   15  C   UNL     1     -42.297  54.290 -49.948  1.00  0.00     0.209 C 
BRANCH  15  16
HETATM   16  O   UNL     1     -41.129  54.472 -50.752  1.00  0.00    -0.349 OA
BRANCH  16  17
HETATM   17  C   UNL     1     -40.672  53.386 -51.447  1.00  0.00     0.069 A 
HETATM   18  C   UNL     1     -40.664  53.546 -52.833  1.00  0.00     0.038 A 
HETATM   19  C   UNL     1     -40.234  52.509 -53.662  1.00  0.00     0.027 A 
HETATM   20  C   UNL     1     -39.805  51.302 -53.108  1.00  0.00     0.040 A 
HETATM   21  C   UNL     1     -39.794  51.125 -51.716  1.00  0.00    -0.038 A 
HETATM   22 CL   UNL     1     -39.300  50.052 -54.186  1.00  0.00    -0.084 Cl
HETATM   23  C   UNL     1     -39.346  49.834 -51.089  1.00  0.00     0.050 C 
HETATM   24  C   UNL     1     -40.237  52.179 -50.894  1.00  0.00     0.045 A 
ENDBRANCH  16  17
ENDBRANCH  15  16
ENDBRANCH  14  15
BRANCH  14  25
HETATM   25  O   UNL     1     -44.652  53.873 -50.357  1.00  0.00    -0.392 OA
HETATM   26  H   UNL     1     -44.869  53.218 -51.062  1.00  0.00     0.210 HD
ENDBRANCH  14  25
ENDBRANCH  13  14
ENDBRANCH   1  13
BRANCH   6  27
HETATM   27  C   UNL     1     -42.937  58.114 -55.524  1.00  0.00     0.175 C 
BRANCH  27  28
HETATM   28  C   UNL     1     -42.290  57.132 -56.524  1.00  0.00     0.256 C 
BRANCH  28  29
HETATM   29  N   UNL     1     -42.999  57.098 -57.865  1.00  0.00    -0.066 N 
HETATM   30  H   UNL     1     -43.905  57.582 -57.789  1.00  0.00     0.280 HD
HETATM   31  C   UNL     1     -42.197  57.881 -58.927  1.00  0.00     0.261 C 
HETATM   32  C   UNL     1     -42.929  57.835 -60.272  1.00  0.00     0.195 C 
HETATM   33  O   UNL     1     -43.129  56.483 -60.688  1.00  0.00    -0.388 OA
HETATM   34  C   UNL     1     -43.945  55.756 -59.768  1.00  0.00     0.195 C 
HETATM   35  C   UNL     1     -43.274  55.683 -58.391  1.00  0.00     0.261 C 
ENDBRANCH  28  29
ENDBRANCH  27  28
ENDBRANCH   6  27
TORSDOF 9
ENDMDL
MODEL 2
REMARK VINA RESULT:      -8.2      1.824      2.384
REMARK  9 active torsions:
REMARK  status: ('A' for Active; 'I' for Inactive)
REMARK    1  A    between atoms: C_7  and  O_8 
REMARK    2  A    between atoms: O_8  and  C_9 
REMARK    3  A    between atoms: C_9  and  C_10 
REMARK    4  A    between atoms: C_10  and  O_11 
REMARK    5  A    between atoms: C_10  and  C_12 
REMARK    6  A    between atoms: C_12  and  N_13 
REMARK    7  A    between atoms: N_18  and  C_19 
REMARK    8  A    between atoms: C_19  and  C_20 
REMARK    9  A    between atoms: C_20  and  N_21 
ROOT
HETATM    1  N   UNL     1     -43.868  56.998 -52.182  1.00  0.00    -0.179 N 
HETATM    2  C   UNL     1     -43.819  56.685 -53.526  1.00  0.00     0.681 A 
HETATM    3  N   UNL     1     -43.322  55.544 -54.004  1.00  0.00    -0.234 N 
HETATM    4  H   UNL     1     -43.356  55.246 -54.963  1.00  0.00     0.174 HD
HETATM    5  H   UNL     1     -42.795  54.951 -53.350  1.00  0.00     0.174 HD
HETATM    6  N   UNL     1     -44.346  57.684 -54.342  1.00  0.00    -0.180 N 
HETATM    7  C   UNL     1     -44.794  58.688 -53.428  1.00  0.00     0.079 A 
HETATM    8  C   UNL     1     -44.493  58.275 -52.118  1.00  0.00     0.079 A 
HETATM    9  C   UNL     1     -45.427  59.886 -53.686  1.00  0.00     0.032 A 
HETATM   10  C   UNL     1     -45.753  60.685 -52.585  1.00  0.00     0.002 A 
HETATM   11  C   UNL     1     -45.447  60.274 -51.272  1.00  0.00     0.002 A 
HETATM   12  C   UNL     1     -44.811  59.052 -51.025  1.00  0.00     0.032 A 
ENDROOT
BRANCH   1  13
HETATM   13  C   UNL     1     -43.482  56.154 -51.034  1.00  0.00     0.181 C 
BRANCH  13  14
HETATM   14  C   UNL     1     -42.040  56.385 -50.569  1.00  0.00     0.161 C 
BRANCH  14  15
HETATM   15  C   UNL     1     -41.196  55.109 -50.692  1.00  0.00     0.209 C 
BRANCH  15  16
HETATM   16  O   UNL     1     -40.987  54.900 -52.091  1.00  0.00    -0.349 OA
BRANCH  16  17
HETATM   17  C   UNL     1     -40.566  53.658 -52.482  1.00  0.00     0.069 A 
HETATM   18  C   UNL     1     -40.507  53.474 -53.864  1.00  0.00     0.038 A 
HETATM   19  C   UNL     1     -40.105  52.249 -54.397  1.00  0.00     0.027 A 
HETATM   20  C   UNL     1     -39.756  51.197 -53.549  1.00  0.00     0.040 A 
HETATM   21  C   UNL     1     -39.796  51.365 -52.157  1.00  0.00    -0.038 A 
HETATM   22 CL   UNL     1     -39.283  49.702 -54.269  1.00  0.00    -0.084 Cl
HETATM   23  C   UNL     1     -39.433  50.249 -51.216  1.00  0.00     0.050 C 
HETATM   24  C   UNL     1     -40.209  52.606 -51.634  1.00  0.00     0.045 A 
ENDBRANCH  16  17
ENDBRANCH  15  16
ENDBRANCH  14  15
BRANCH  14  25
HETATM   25  O   UNL     1     -41.446  57.421 -51.383  1.00  0.00    -0.392 OA
HETATM   26  H   UNL     1     -40.521  57.497 -51.048  1.00  0.00     0.210 HD
ENDBRANCH  14  25
ENDBRANCH  13  14
ENDBRANCH   1  13
BRANCH   6  27
HETATM   27  C   UNL     1     -44.526  57.690 -55.798  1.00  0.00     0.175 C 
BRANCH  27  28
HETATM   28  C   UNL     1     -43.257  58.130 -56.557  1.00  0.00     0.256 C 
BRANCH  28  29
HETATM   29  N   UNL     1     -43.234  57.655 -57.998  1.00  0.00    -0.066 N 
HETATM   30  H   UNL     1     -44.051  58.033 -58.499  1.00  0.00     0.280 HD
HETATM   31  C   UNL     1     -41.999  58.214 -58.737  1.00  0.00     0.261 C 
HETATM   32  C   UNL     1     -41.995  57.726 -60.190  1.00  0.00     0.195 C 
HETATM   33  O   UNL     1     -42.006  56.297 -60.238  1.00  0.00    -0.388 OA
HETATM   34  C   UNL     1     -43.184  55.753 -59.639  1.00  0.00     0.195 C 
HETATM   35  C   UNL     1     -43.261  56.130 -58.156  1.00  0.00     0.261 C 
ENDBRANCH  28  29
ENDBRANCH  27  28
ENDBRANCH   6  27
TORSDOF 9
ENDMDL
MODEL 3
REMARK VINA RESULT:      -8.2      2.431      5.439
REMARK  9 active torsions:
REMARK  status: ('A' for Active; 'I' for Inactive)
REMARK    1  A    between atoms: C_7  and  O_8 
REMARK    2  A    between atoms: O_8  and  C_9 
REMARK    3  A    between atoms: C_9  and  C_10 
REMARK    4  A    between atoms: C_10  and  O_11 
REMARK    5  A    between atoms: C_10  and  C_12 
REMARK    6  A    between atoms: C_12  and  N_13 
REMARK    7  A    between atoms: N_18  and  C_19 
REMARK    8  A    between atoms: C_19  and  C_20 
REMARK    9  A    between atoms: C_20  and  N_21 
ROOT
HETATM    1  N   UNL     1     -43.973  56.666 -54.459  1.00  0.00    -0.179 N 
HETATM    2  C   UNL     1     -43.902  56.862 -53.093  1.00  0.00     0.681 A 
HETATM    3  N   UNL     1     -43.423  55.959 -52.238  1.00  0.00    -0.234 N 
HETATM    4  H   UNL     1     -43.271  56.104 -51.256  1.00  0.00     0.174 HD
HETATM    5  H   UNL     1     -43.263  55.009 -52.599  1.00  0.00     0.174 HD
HETATM    6  N   UNL     1     -44.381  58.108 -52.693  1.00  0.00    -0.180 N 
HETATM    7  C   UNL     1     -44.748  58.756 -53.913  1.00  0.00     0.079 A 
HETATM    8  C   UNL     1     -44.510  57.875 -54.983  1.00  0.00     0.079 A 
HETATM    9  C   UNL     1     -45.251  60.025 -54.113  1.00  0.00     0.032 A 
HETATM   10  C   UNL     1     -45.527  60.401 -55.431  1.00  0.00     0.002 A 
HETATM   11  C   UNL     1     -45.294  59.517 -56.504  1.00  0.00     0.002 A 
HETATM   12  C   UNL     1     -44.776  58.235 -56.286  1.00  0.00     0.032 A 
ENDROOT
BRANCH   1  13
HETATM   13  C   UNL     1     -43.486  55.513 -55.241  1.00  0.00     0.181 C 
BRANCH  13  14
HETATM   14  C   UNL     1     -42.073  55.715 -55.801  1.00  0.00     0.161 C 
BRANCH  14  15
HETATM   15  C   UNL     1     -41.140  54.559 -55.409  1.00  0.00     0.209 C 
BRANCH  15  16
HETATM   16  O   UNL     1     -41.198  54.465 -53.983  1.00  0.00    -0.349 OA
BRANCH  16  17
HETATM   17  C   UNL     1     -40.716  53.318 -53.413  1.00  0.00     0.069 A 
HETATM   18  C   UNL     1     -40.579  53.374 -52.025  1.00  0.00     0.038 A 
HETATM   19  C   UNL     1     -40.085  52.277 -51.319  1.00  0.00     0.027 A 
HETATM   20  C   UNL     1     -39.726  51.111 -51.997  1.00  0.00     0.040 A 
HETATM   21  C   UNL     1     -39.868  51.030 -53.391  1.00  0.00    -0.038 A 
HETATM   22 CL   UNL     1     -39.107  49.794 -51.070  1.00  0.00    -0.084 Cl
HETATM   23  C   UNL     1     -39.482  49.792 -54.152  1.00  0.00     0.050 C 
HETATM   24  C   UNL     1     -40.362  52.149 -54.090  1.00  0.00     0.045 A 
ENDBRANCH  16  17
ENDBRANCH  15  16
ENDBRANCH  14  15
BRANCH  14  25
HETATM   25  O   UNL     1     -42.146  55.790 -57.242  1.00  0.00    -0.392 OA
HETATM   26  H   UNL     1     -41.419  55.202 -57.556  1.00  0.00     0.210 HD
ENDBRANCH  14  25
ENDBRANCH  13  14
ENDBRANCH   1  13
BRANCH   6  27
HETATM   27  C   UNL     1     -44.409  58.700 -51.350  1.00  0.00     0.175 C 
BRANCH  27  28
HETATM   28  C   UNL     1     -43.318  59.771 -51.145  1.00  0.00     0.256 C 
BRANCH  28  29
HETATM   29  N   UNL     1     -41.911  59.221 -51.287  1.00  0.00    -0.066 N 
HETATM   30  H   UNL     1     -41.926  58.198 -51.167  1.00  0.00     0.280 HD
HETATM   31  C   UNL     1     -41.372  59.463 -52.713  1.00  0.00     0.261 C 
HETATM   32  C   UNL     1     -39.952  58.899 -52.837  1.00  0.00     0.195 C 
HETATM   33  O   UNL     1     -39.090  59.495 -51.865  1.00  0.00    -0.388 OA
HETATM   34  C   UNL     1     -39.515  59.212 -50.530  1.00  0.00     0.195 C 
HETATM   35  C   UNL     1     -40.910  59.790 -50.273  1.00  0.00     0.261 C 
ENDBRANCH  28  29
ENDBRANCH  27  28
ENDBRANCH   6  27
TORSDOF 9
ENDMDL
MODEL 4
REMARK VINA RESULT:      -8.0      1.824      2.895
REMARK  9 active torsions:
REMARK  status: ('A' for Active; 'I' for Inactive)
REMARK    1  A    between atoms: C_7  and  O_8 
REMARK    2  A    between atoms: O_8  and  C_9 
REMARK    3  A    between atoms: C_9  and  C_10 
REMARK    4  A    between atoms: C_10  and  O_11 
REMARK    5  A    between atoms: C_10  and  C_12 
REMARK    6  A    between atoms: C_12  and  N_13 
REMARK    7  A    between atoms: N_18  and  C_19 
REMARK    8  A    between atoms: C_19  and  C_20 
REMARK    9  A    between atoms: C_20  and  N_21 
ROOT
HETATM    1  N   UNL     1     -43.347  56.919 -52.997  1.00  0.00    -0.179 N 
HETATM    2  C   UNL     1     -42.976  58.177 -53.431  1.00  0.00     0.681 A 
HETATM    3  N   UNL     1     -42.902  59.244 -52.634  1.00  0.00    -0.234 N 
HETATM    4  H   UNL     1     -42.548  60.147 -52.895  1.00  0.00     0.174 HD
HETATM    5  H   UNL     1     -43.310  59.157 -51.693  1.00  0.00     0.174 HD
HETATM    6  N   UNL     1     -42.680  58.224 -54.791  1.00  0.00    -0.180 N 
HETATM    7  C   UNL     1     -42.845  56.876 -55.236  1.00  0.00     0.079 A 
HETATM    8  C   UNL     1     -43.261  56.087 -54.149  1.00  0.00     0.079 A 
HETATM    9  C   UNL     1     -42.651  56.339 -56.492  1.00  0.00     0.032 A 
HETATM   10  C   UNL     1     -42.894  54.971 -56.646  1.00  0.00     0.002 A 
HETATM   11  C   UNL     1     -43.316  54.181 -55.558  1.00  0.00     0.002 A 
HETATM   12  C   UNL     1     -43.503  54.738 -54.287  1.00  0.00     0.032 A 
ENDROOT
BRANCH   1  13
HETATM   13  C   UNL     1     -43.646  56.480 -51.621  1.00  0.00     0.181 C 
BRANCH  13  14
HETATM   14  C   UNL     1     -42.393  56.285 -50.760  1.00  0.00     0.161 C 
BRANCH  14  15
HETATM   15  C   UNL     1     -41.228  55.713 -51.581  1.00  0.00     0.209 C 
BRANCH  15  16
HETATM   16  O   UNL     1     -40.723  54.600 -50.838  1.00  0.00    -0.349 OA
BRANCH  16  17
HETATM   17  C   UNL     1     -40.404  53.471 -51.542  1.00  0.00     0.069 A 
HETATM   18  C   UNL     1     -40.469  53.614 -52.928  1.00  0.00     0.038 A 
HETATM   19  C   UNL     1     -40.181  52.536 -53.765  1.00  0.00     0.027 A 
HETATM   20  C   UNL     1     -39.821  51.303 -53.218  1.00  0.00     0.040 A 
HETATM   21  C   UNL     1     -39.738  51.141 -51.827  1.00  0.00    -0.038 A 
HETATM   22 CL   UNL     1     -39.492  50.003 -54.304  1.00  0.00    -0.084 Cl
HETATM   23  C   UNL     1     -39.362  49.823 -51.207  1.00  0.00     0.050 C 
HETATM   24  C   UNL     1     -40.038  52.238 -50.996  1.00  0.00     0.045 A 
ENDBRANCH  16  17
ENDBRANCH  15  16
ENDBRANCH  14  15
BRANCH  14  25
HETATM   25  O   UNL     1     -41.998  57.562 -50.212  1.00  0.00    -0.392 OA
HETATM   26  H   UNL     1     -42.700  57.773 -49.551  1.00  0.00     0.210 HD
ENDBRANCH  14  25
ENDBRANCH  13  14
ENDBRANCH   1  13
BRANCH   6  27
HETATM   27  C   UNL     1     -42.192  59.352 -55.593  1.00  0.00     0.175 C 
BRANCH  27  28
HETATM   28  C   UNL     1     -43.332  60.153 -56.257  1.00  0.00     0.256 C 
BRANCH  28  29
HETATM   29  N   UNL     1     -43.393  59.963 -57.761  1.00  0.00    -0.066 N 
HETATM   30  H   UNL     1     -43.586  60.867 -58.215  1.00  0.00     0.280 HD
HETATM   31  C   UNL     1     -42.024  59.506 -58.310  1.00  0.00     0.261 C 
HETATM   32  C   UNL     1     -42.107  59.322 -59.829  1.00  0.00     0.195 C 
HETATM   33  O   UNL     1     -43.124  58.376 -60.164  1.00  0.00    -0.388 OA
HETATM   34  C   UNL     1     -44.418  58.814 -59.746  1.00  0.00     0.195 C 
HETATM   35  C   UNL     1     -44.471  58.974 -58.223  1.00  0.00     0.261 C 
ENDBRANCH  28  29
ENDBRANCH  27  28
ENDBRANCH   6  27
TORSDOF 9
ENDMDL
MODEL 5
REMARK VINA RESULT:      -7.8      3.545      6.012
REMARK  9 active torsions:
REMARK  status: ('A' for Active; 'I' for Inactive)
REMARK    1  A    between atoms: C_7  and  O_8 
REMARK    2  A    between atoms: O_8  and  C_9 
REMARK    3  A    between atoms: C_9  and  C_10 
REMARK    4  A    between atoms: C_10  and  O_11 
REMARK    5  A    between atoms: C_10  and  C_12 
REMARK    6  A    between atoms: C_12  and  N_13 
REMARK    7  A    between atoms: N_18  and  C_19 
REMARK    8  A    between atoms: C_19  and  C_20 
REMARK    9  A    between atoms: C_20  and  N_21 
ROOT
HETATM    1  N   UNL     1     -43.430  57.580 -53.314  1.00  0.00    -0.179 N 
HETATM    2  C   UNL     1     -44.334  58.598 -53.544  1.00  0.00     0.681 A 
HETATM    3  N   UNL     1     -45.343  58.512 -54.412  1.00  0.00    -0.234 N 
HETATM    4  H   UNL     1     -46.070  59.194 -54.536  1.00  0.00     0.174 HD
HETATM    5  H   UNL     1     -45.336  57.715 -55.063  1.00  0.00     0.174 HD
HETATM    6  N   UNL     1     -44.092  59.732 -52.773  1.00  0.00    -0.180 N 
HETATM    7  C   UNL     1     -42.964  59.380 -51.969  1.00  0.00     0.079 A 
HETATM    8  C   UNL     1     -42.556  58.077 -52.307  1.00  0.00     0.079 A 
HETATM    9  C   UNL     1     -42.316  60.116 -50.998  1.00  0.00     0.032 A 
HETATM   10  C   UNL     1     -41.224  59.515 -50.364  1.00  0.00     0.002 A 
HETATM   11  C   UNL     1     -40.811  58.211 -50.706  1.00  0.00     0.002 A 
HETATM   12  C   UNL     1     -41.482  57.474 -51.689  1.00  0.00     0.032 A 
ENDROOT
BRANCH   1  13
HETATM   13  C   UNL     1     -43.425  56.218 -53.882  1.00  0.00     0.181 C 
BRANCH  13  14
HETATM   14  C   UNL     1     -42.779  56.141 -55.270  1.00  0.00     0.161 C 
BRANCH  14  15
HETATM   15  C   UNL     1     -42.089  54.789 -55.498  1.00  0.00     0.209 C 
BRANCH  15  16
HETATM   16  O   UNL     1     -40.870  54.831 -54.752  1.00  0.00    -0.349 OA
BRANCH  16  17
HETATM   17  C   UNL     1     -40.547  53.722 -54.019  1.00  0.00     0.069 A 
HETATM   18  C   UNL     1     -40.536  53.922 -52.638  1.00  0.00     0.038 A 
HETATM   19  C   UNL     1     -40.210  52.876 -51.774  1.00  0.00     0.027 A 
HETATM   20  C   UNL     1     -39.894  51.617 -52.287  1.00  0.00     0.040 A 
HETATM   21  C   UNL     1     -39.911  51.391 -53.672  1.00  0.00    -0.038 A 
HETATM   22 CL   UNL     1     -39.484  50.369 -51.169  1.00  0.00    -0.084 Cl
HETATM   23  C   UNL     1     -39.567  50.048 -54.256  1.00  0.00     0.050 C 
HETATM   24  C   UNL     1     -40.237  52.459 -54.531  1.00  0.00     0.045 A 
ENDBRANCH  16  17
ENDBRANCH  15  16
ENDBRANCH  14  15
BRANCH  14  25
HETATM   25  O   UNL     1     -43.802  56.321 -56.274  1.00  0.00    -0.392 OA
HETATM   26  H   UNL     1     -43.390  55.992 -57.108  1.00  0.00     0.210 HD
ENDBRANCH  14  25
ENDBRANCH  13  14
ENDBRANCH   1  13
BRANCH   6  27
HETATM   27  C   UNL     1     -44.864  60.977 -52.690  1.00  0.00     0.175 C 
BRANCH  27  28
HETATM   28  C   UNL     1     -46.141  60.835 -51.836  1.00  0.00     0.256 C 
BRANCH  28  29
HETATM   29  N   UNL     1     -46.013  61.472 -50.465  1.00  0.00    -0.066 N 
HETATM   30  H   UNL     1     -46.935  61.809 -50.153  1.00  0.00     0.280 HD
HETATM   31  C   UNL     1     -45.576  60.428 -49.416  1.00  0.00     0.261 C 
HETATM   32  C   UNL     1     -45.454  61.090 -48.039  1.00  0.00     0.195 C 
HETATM   33  O   UNL     1     -44.525  62.175 -48.087  1.00  0.00    -0.388 OA
HETATM   34  C   UNL     1     -44.949  63.202 -48.985  1.00  0.00     0.195 C 
HETATM   35  C   UNL     1     -45.046  62.662 -50.416  1.00  0.00     0.261 C 
ENDBRANCH  28  29
ENDBRANCH  27  28
ENDBRANCH   6  27
TORSDOF 9
ENDMDL
MODEL 6
REMARK VINA RESULT:      -7.8      3.205      7.104
REMARK  9 active torsions:
REMARK  status: ('A' for Active; 'I' for Inactive)
REMARK    1  A    between atoms: C_7  and  O_8 
REMARK    2  A    between atoms: O_8  and  C_9 
REMARK    3  A    between atoms: C_9  and  C_10 
REMARK    4  A    between atoms: C_10  and  O_11 
REMARK    5  A    between atoms: C_10  and  C_12 
REMARK    6  A    between atoms: C_12  and  N_13 
REMARK    7  A    between atoms: N_18  and  C_19 
REMARK    8  A    between atoms: C_19  and  C_20 
REMARK    9  A    between atoms: C_20  and  N_21 
ROOT
HETATM    1  N   UNL     1     -43.398  56.647 -54.859  1.00  0.00    -0.179 N 
HETATM    2  C   UNL     1     -42.303  55.918 -55.281  1.00  0.00     0.681 A 
HETATM    3  N   UNL     1     -41.965  55.764 -56.561  1.00  0.00    -0.234 N 
HETATM    4  H   UNL     1     -41.128  55.321 -56.897  1.00  0.00     0.174 HD
HETATM    5  H   UNL     1     -42.652  56.057 -57.268  1.00  0.00     0.174 HD
HETATM    6  N   UNL     1     -41.579  55.357 -54.231  1.00  0.00    -0.180 N 
HETATM    7  C   UNL     1     -42.258  55.804 -53.055  1.00  0.00     0.079 A 
HETATM    8  C   UNL     1     -43.368  56.577 -53.437  1.00  0.00     0.079 A 
HETATM    9  C   UNL     1     -41.954  55.574 -51.729  1.00  0.00     0.032 A 
HETATM   10  C   UNL     1     -42.804  56.138 -50.773  1.00  0.00     0.002 A 
HETATM   11  C   UNL     1     -43.920  56.909 -51.156  1.00  0.00     0.002 A 
HETATM   12  C   UNL     1     -44.212  57.139 -52.505  1.00  0.00     0.032 A 
ENDROOT
BRANCH   1  13
HETATM   13  C   UNL     1     -44.335  57.442 -55.676  1.00  0.00     0.181 C 
BRANCH  13  14
HETATM   14  C   UNL     1     -44.076  58.951 -55.600  1.00  0.00     0.161 C 
BRANCH  14  15
HETATM   15  C   UNL     1     -42.635  59.298 -56.001  1.00  0.00     0.209 C 
BRANCH  15  16
HETATM   16  O   UNL     1     -42.250  60.410 -55.189  1.00  0.00    -0.349 OA
BRANCH  16  17
HETATM   17  C   UNL     1     -41.983  60.158 -53.870  1.00  0.00     0.069 A 
HETATM   18  C   UNL     1     -40.928  59.272 -53.651  1.00  0.00     0.038 A 
HETATM   19  C   UNL     1     -40.560  58.919 -52.352  1.00  0.00     0.027 A 
HETATM   20  C   UNL     1     -41.244  59.454 -51.260  1.00  0.00     0.040 A 
HETATM   21  C   UNL     1     -42.301  60.357 -51.459  1.00  0.00    -0.038 A 
HETATM   22 CL   UNL     1     -40.752  58.967 -49.680  1.00  0.00    -0.084 Cl
HETATM   23  C   UNL     1     -43.064  60.943 -50.303  1.00  0.00     0.050 C 
HETATM   24  C   UNL     1     -42.664  60.698 -52.776  1.00  0.00     0.045 A 
ENDBRANCH  16  17
ENDBRANCH  15  16
ENDBRANCH  14  15
BRANCH  14  25
HETATM   25  O   UNL     1     -44.988  59.628 -56.493  1.00  0.00    -0.392 OA
HETATM   26  H   UNL     1     -44.408  60.010 -57.194  1.00  0.00     0.210 HD
ENDBRANCH  14  25
ENDBRANCH  13  14
ENDBRANCH   1  13
BRANCH   6  27
HETATM   27  C   UNL     1     -40.335  54.582 -54.276  1.00  0.00     0.175 C 
BRANCH  27  28
HETATM   28  C   UNL     1     -40.542  53.145 -54.799  1.00  0.00     0.256 C 
BRANCH  28  29
HETATM   29  N   UNL     1     -39.845  52.098 -53.949  1.00  0.00    -0.066 N 
HETATM   30  H   UNL     1     -38.826  52.166 -54.085  1.00  0.00     0.280 HD
HETATM   31  C   UNL     1     -40.084  52.366 -52.448  1.00  0.00     0.261 C 
HETATM   32  C   UNL     1     -39.371  51.301 -51.608  1.00  0.00     0.195 C 
HETATM   33  O   UNL     1     -39.827  49.994 -51.965  1.00  0.00    -0.388 OA
HETATM   34  C   UNL     1     -39.539  49.682 -53.329  1.00  0.00     0.195 C 
HETATM   35  C   UNL     1     -40.258  50.656 -54.270  1.00  0.00     0.261 C 
ENDBRANCH  28  29
ENDBRANCH  27  28
ENDBRANCH   6  27
TORSDOF 9
ENDMDL
MODEL 7
REMARK VINA RESULT:      -7.8      3.484      7.926
REMARK  9 active torsions:
REMARK  status: ('A' for Active; 'I' for Inactive)
REMARK    1  A    between atoms: C_7  and  O_8 
REMARK    2  A    between atoms: O_8  and  C_9 
REMARK    3  A    between atoms: C_9  and  C_10 
REMARK    4  A    between atoms: C_10  and  O_11 
REMARK    5  A    between atoms: C_10  and  C_12 
REMARK    6  A    between atoms: C_12  and  N_13 
REMARK    7  A    between atoms: N_18  and  C_19 
REMARK    8  A    between atoms: C_19  and  C_20 
REMARK    9  A    between atoms: C_20  and  N_21 
ROOT
HETATM    1  N   UNL     1     -43.072  56.710 -54.230  1.00  0.00    -0.179 N 
HETATM    2  C   UNL     1     -42.502  55.677 -54.949  1.00  0.00     0.681 A 
HETATM    3  N   UNL     1     -42.071  55.797 -56.205  1.00  0.00    -0.234 N 
HETATM    4  H   UNL     1     -41.571  55.096 -56.723  1.00  0.00     0.174 HD
HETATM    5  H   UNL     1     -42.338  56.651 -56.713  1.00  0.00     0.174 HD
HETATM    6  N   UNL     1     -42.418  54.488 -54.228  1.00  0.00    -0.180 N 
HETATM    7  C   UNL     1     -42.945  54.816 -52.940  1.00  0.00     0.079 A 
HETATM    8  C   UNL     1     -43.352  56.162 -52.947  1.00  0.00     0.079 A 
HETATM    9  C   UNL     1     -43.072  54.023 -51.819  1.00  0.00     0.032 A 
HETATM   10  C   UNL     1     -43.633  54.612 -50.681  1.00  0.00     0.002 A 
HETATM   11  C   UNL     1     -44.046  55.959 -50.689  1.00  0.00     0.002 A 
HETATM   12  C   UNL     1     -43.905  56.754 -51.833  1.00  0.00     0.032 A 
ENDROOT
BRANCH   1  13
HETATM   13  C   UNL     1     -43.244  58.118 -54.637  1.00  0.00     0.181 C 
BRANCH  13  14
HETATM   14  C   UNL     1     -44.664  58.440 -55.118  1.00  0.00     0.161 C 
BRANCH  14  15
HETATM   15  C   UNL     1     -44.655  59.086 -56.511  1.00  0.00     0.209 C 
BRANCH  15  16
HETATM   16  O   UNL     1     -44.047  58.135 -57.389  1.00  0.00    -0.349 OA
BRANCH  16  17
HETATM   17  C   UNL     1     -44.814  57.651 -58.414  1.00  0.00     0.069 A 
HETATM   18  C   UNL     1     -46.008  58.341 -58.621  1.00  0.00     0.038 A 
HETATM   19  C   UNL     1     -46.890  57.943 -59.626  1.00  0.00     0.027 A 
HETATM   20  C   UNL     1     -46.580  56.850 -60.437  1.00  0.00     0.040 A 
HETATM   21  C   UNL     1     -45.378  56.149 -60.253  1.00  0.00    -0.038 A 
HETATM   22 CL   UNL     1     -47.718  56.396 -61.652  1.00  0.00    -0.084 Cl
HETATM   23  C   UNL     1     -45.019  54.962 -61.104  1.00  0.00     0.050 C 
HETATM   24  C   UNL     1     -44.502  56.560 -59.230  1.00  0.00     0.045 A 
ENDBRANCH  16  17
ENDBRANCH  15  16
ENDBRANCH  14  15
BRANCH  14  25
HETATM   25  O   UNL     1     -45.429  57.216 -55.173  1.00  0.00    -0.392 OA
HETATM   26  H   UNL     1     -45.859  57.155 -54.287  1.00  0.00     0.210 HD
ENDBRANCH  14  25
ENDBRANCH  13  14
ENDBRANCH   1  13
BRANCH   6  27
HETATM   27  C   UNL     1     -41.823  53.207 -54.624  1.00  0.00     0.175 C 
BRANCH  27  28
HETATM   28  C   UNL     1     -40.280  53.228 -54.600  1.00  0.00     0.256 C 
BRANCH  28  29
HETATM   29  N   UNL     1     -39.681  52.058 -53.842  1.00  0.00    -0.066 N 
HETATM   30  H   UNL     1     -38.656  52.075 -53.934  1.00  0.00     0.280 HD
HETATM   31  C   UNL     1     -39.965  52.184 -52.330  1.00  0.00     0.261 C 
HETATM   32  C   UNL     1     -39.352  50.995 -51.583  1.00  0.00     0.195 C 
HETATM   33  O   UNL     1     -39.870  49.763 -52.092  1.00  0.00    -0.388 OA
HETATM   34  C   UNL     1     -39.545  49.576 -53.470  1.00  0.00     0.195 C 
HETATM   35  C   UNL     1     -40.165  50.685 -54.327  1.00  0.00     0.261 C 
ENDBRANCH  28  29
ENDBRANCH  27  28
ENDBRANCH   6  27
TORSDOF 9
ENDMDL
MODEL 8
REMARK VINA RESULT:      -7.6      1.999      2.713
REMARK  9 active torsions:
REMARK  status: ('A' for Active; 'I' for Inactive)
REMARK    1  A    between atoms: C_7  and  O_8 
REMARK    2  A    between atoms: O_8  and  C_9 
REMARK    3  A    between atoms: C_9  and  C_10 
REMARK    4  A    between atoms: C_10  and  O_11 
REMARK    5  A    between atoms: C_10  and  C_12 
REMARK    6  A    between atoms: C_12  and  N_13 
REMARK    7  A    between atoms: N_18  and  C_19 
REMARK    8  A    between atoms: C_19  and  C_20 
REMARK    9  A    between atoms: C_20  and  N_21 
ROOT
HETATM    1  N   UNL     1     -41.999  58.318 -53.929  1.00  0.00    -0.179 N 
HETATM    2  C   UNL     1     -42.136  57.825 -55.212  1.00  0.00     0.681 A 
HETATM    3  N   UNL     1     -41.874  56.564 -55.554  1.00  0.00    -0.234 N 
HETATM    4  H   UNL     1     -42.051  56.151 -56.452  1.00  0.00     0.174 HD
HETATM    5  H   UNL     1     -41.380  55.983 -54.863  1.00  0.00     0.174 HD
HETATM    6  N   UNL     1     -42.582  58.781 -56.122  1.00  0.00    -0.180 N 
HETATM    7  C   UNL     1     -42.773  59.959 -55.335  1.00  0.00     0.079 A 
HETATM    8  C   UNL     1     -42.408  59.679 -54.006  1.00  0.00     0.079 A 
HETATM    9  C   UNL     1     -43.236  61.201 -55.716  1.00  0.00     0.032 A 
HETATM   10  C   UNL     1     -43.320  62.183 -54.723  1.00  0.00     0.002 A 
HETATM   11  C   UNL     1     -42.949  61.905 -53.392  1.00  0.00     0.002 A 
HETATM   12  C   UNL     1     -42.488  60.637 -53.019  1.00  0.00     0.032 A 
ENDROOT
BRANCH   1  13
HETATM   13  C   UNL     1     -41.633  57.582 -52.703  1.00  0.00     0.181 C 
BRANCH  13  14
HETATM   14  C   UNL     1     -42.788  56.756 -52.125  1.00  0.00     0.161 C 
BRANCH  14  15
HETATM   15  C   UNL     1     -42.335  55.338 -51.749  1.00  0.00     0.209 C 
BRANCH  15  16
HETATM   16  O   UNL     1     -41.013  55.188 -52.274  1.00  0.00    -0.349 OA
BRANCH  16  17
HETATM   17  C   UNL     1     -40.618  53.925 -52.621  1.00  0.00     0.069 A 
HETATM   18  C   UNL     1     -40.600  53.680 -53.995  1.00  0.00     0.038 A 
HETATM   19  C   UNL     1     -40.228  52.427 -54.484  1.00  0.00     0.027 A 
HETATM   20  C   UNL     1     -39.869  51.408 -53.601  1.00  0.00     0.040 A 
HETATM   21  C   UNL     1     -39.869  51.638 -52.216  1.00  0.00    -0.038 A 
HETATM   22 CL   UNL     1     -39.435  49.877 -54.267  1.00  0.00    -0.084 Cl
HETATM   23  C   UNL     1     -39.495  50.558 -51.238  1.00  0.00     0.050 C 
HETATM   24  C   UNL     1     -40.252  52.906 -51.738  1.00  0.00     0.045 A 
ENDBRANCH  16  17
ENDBRANCH  15  16
ENDBRANCH  14  15
BRANCH  14  25
HETATM   25  O   UNL     1     -43.290  57.417 -50.942  1.00  0.00    -0.392 OA
HETATM   26  H   UNL     1     -43.668  58.265 -51.276  1.00  0.00     0.210 HD
ENDBRANCH  14  25
ENDBRANCH  13  14
ENDBRANCH   1  13
BRANCH   6  27
HETATM   27  C   UNL     1     -42.906  58.624 -57.544  1.00  0.00     0.175 C 
BRANCH  27  28
HETATM   28  C   UNL     1     -44.390  58.278 -57.787  1.00  0.00     0.256 C 
BRANCH  28  29
HETATM   29  N   UNL     1     -44.595  57.327 -58.952  1.00  0.00    -0.066 N 
HETATM   30  H   UNL     1     -44.216  57.748 -59.812  1.00  0.00     0.280 HD
HETATM   31  C   UNL     1     -43.797  56.023 -58.740  1.00  0.00     0.261 C 
HETATM   32  C   UNL     1     -44.016  55.079 -59.927  1.00  0.00     0.195 C 
HETATM   33  O   UNL     1     -45.407  54.796 -60.091  1.00  0.00    -0.388 OA
HETATM   34  C   UNL     1     -46.161  55.975 -60.378  1.00  0.00     0.195 C 
HETATM   35  C   UNL     1     -46.064  56.975 -59.221  1.00  0.00     0.261 C 
ENDBRANCH  28  29
ENDBRANCH  27  28
ENDBRANCH   6  27
TORSDOF 9
ENDMDL
MODEL 9
REMARK VINA RESULT:      -7.6      3.088      5.137
REMARK  9 active torsions:
REMARK  status: ('A' for Active; 'I' for Inactive)
REMARK    1  A    between atoms: C_7  and  O_8 
REMARK    2  A    between atoms: O_8  and  C_9 
REMARK    3  A    between atoms: C_9  and  C_10 
REMARK    4  A    between atoms: C_10  and  O_11 
REMARK    5  A    between atoms: C_10  and  C_12 
REMARK    6  A    between atoms: C_12  and  N_13 
REMARK    7  A    between atoms: N_18  and  C_19 
REMARK    8  A    between atoms: C_19  and  C_20 
REMARK    9  A    between atoms: C_20  and  N_21 
ROOT
HETATM    1  N   UNL     1     -42.370  57.556 -56.280  1.00  0.00    -0.179 N 
HETATM    2  C   UNL     1     -42.334  58.937 -56.282  1.00  0.00     0.681 A 
HETATM    3  N   UNL     1     -42.014  59.671 -55.217  1.00  0.00    -0.234 N 
HETATM    4  H   UNL     1     -41.888  60.668 -55.208  1.00  0.00     0.174 HD
HETATM    5  H   UNL     1     -41.963  59.187 -54.310  1.00  0.00     0.174 HD
HETATM    6  N   UNL     1     -42.664  59.492 -57.516  1.00  0.00    -0.180 N 
HETATM    7  C   UNL     1     -42.890  58.364 -58.364  1.00  0.00     0.079 A 
HETATM    8  C   UNL     1     -42.722  57.189 -57.610  1.00  0.00     0.079 A 
HETATM    9  C   UNL     1     -43.215  58.327 -59.704  1.00  0.00     0.032 A 
HETATM   10  C   UNL     1     -43.382  57.067 -60.286  1.00  0.00     0.002 A 
HETATM   11  C   UNL     1     -43.219  55.889 -59.529  1.00  0.00     0.002 A 
HETATM   12  C   UNL     1     -42.882  55.941 -58.172  1.00  0.00     0.032 A 
ENDROOT
BRANCH   1  13
HETATM   13  C   UNL     1     -42.003  56.635 -55.187  1.00  0.00     0.181 C 
BRANCH  13  14
HETATM   14  C   UNL     1     -43.212  55.961 -54.529  1.00  0.00     0.161 C 
BRANCH  14  15
HETATM   15  C   UNL     1     -42.858  54.567 -53.991  1.00  0.00     0.209 C 
BRANCH  15  16
HETATM   16  O   UNL     1     -41.445  54.569 -53.776  1.00  0.00    -0.349 OA
BRANCH  16  17
HETATM   17  C   UNL     1     -40.886  53.420 -53.286  1.00  0.00     0.069 A 
HETATM   18  C   UNL     1     -40.680  53.417 -51.906  1.00  0.00     0.038 A 
HETATM   19  C   UNL     1     -40.105  52.311 -51.279  1.00  0.00     0.027 A 
HETATM   20  C   UNL     1     -39.732  51.196 -52.030  1.00  0.00     0.040 A 
HETATM   21  C   UNL     1     -39.941  51.173 -53.417  1.00  0.00    -0.038 A 
HETATM   22 CL   UNL     1     -39.011  49.866 -51.199  1.00  0.00    -0.084 Cl
HETATM   23  C   UNL     1     -39.542  49.990 -54.256  1.00  0.00     0.050 C 
HETATM   24  C   UNL     1     -40.518  52.300 -54.036  1.00  0.00     0.045 A 
ENDBRANCH  16  17
ENDBRANCH  15  16
ENDBRANCH  14  15
BRANCH  14  25
HETATM   25  O   UNL     1     -43.669  56.785 -53.434  1.00  0.00    -0.392 OA
HETATM   26  H   UNL     1     -42.940  57.435 -53.294  1.00  0.00     0.210 HD
ENDBRANCH  14  25
ENDBRANCH  13  14
ENDBRANCH   1  13
BRANCH   6  27
HETATM   27  C   UNL     1     -42.673  60.902 -57.923  1.00  0.00     0.175 C 
BRANCH  27  28
HETATM   28  C   UNL     1     -41.255  61.479 -58.117  1.00  0.00     0.256 C 
BRANCH  28  29
HETATM   29  N   UNL     1     -41.097  62.238 -59.421  1.00  0.00    -0.066 N 
HETATM   30  H   UNL     1     -41.692  63.078 -59.407  1.00  0.00     0.280 HD
HETATM   31  C   UNL     1     -39.651  62.756 -59.580  1.00  0.00     0.261 C 
HETATM   32  C   UNL     1     -39.513  63.520 -60.901  1.00  0.00     0.195 C 
HETATM   33  O   UNL     1     -39.871  62.683 -62.003  1.00  0.00    -0.388 OA
HETATM   34  C   UNL     1     -41.233  62.260 -61.930  1.00  0.00     0.195 C 
HETATM   35  C   UNL     1     -41.475  61.426 -60.667  1.00  0.00     0.261 C 
ENDBRANCH  28  29
ENDBRANCH  27  28
ENDBRANCH   6  27
TORSDOF 9
ENDMDL
MODEL 10
REMARK VINA RESULT:      -7.5      2.075      3.141
REMARK  9 active torsions:
REMARK  status: ('A' for Active; 'I' for Inactive)
REMARK    1  A    between atoms: C_7  and  O_8 
REMARK    2  A    between atoms: O_8  and  C_9 
REMARK    3  A    between atoms: C_9  and  C_10 
REMARK    4  A    between atoms: C_10  and  O_11 
REMARK    5  A    between atoms: C_10  and  C_12 
REMARK    6  A    between atoms: C_12  and  N_13 
REMARK    7  A    between atoms: N_18  and  C_19 
REMARK    8  A    between atoms: C_19  and  C_20 
REMARK    9  A    between atoms: C_20  and  N_21 
ROOT
HETATM    1  N   UNL     1     -43.566  56.271 -54.979  1.00  0.00    -0.179 N 
HETATM    2  C   UNL     1     -42.821  56.340 -56.141  1.00  0.00     0.681 A 
HETATM    3  N   UNL     1     -42.202  55.293 -56.687  1.00  0.00    -0.234 N 
HETATM    4  H   UNL     1     -41.733  55.288 -57.575  1.00  0.00     0.174 HD
HETATM    5  H   UNL     1     -42.135  54.438 -56.119  1.00  0.00     0.174 HD
HETATM    6  N   UNL     1     -42.783  57.618 -56.693  1.00  0.00    -0.180 N 
HETATM    7  C   UNL     1     -43.601  58.405 -55.824  1.00  0.00     0.079 A 
HETATM    8  C   UNL     1     -44.066  57.589 -54.778  1.00  0.00     0.079 A 
HETATM    9  C   UNL     1     -43.939  59.739 -55.911  1.00  0.00     0.032 A 
HETATM   10  C   UNL     1     -44.764  60.255 -54.906  1.00  0.00     0.002 A 
HETATM   11  C   UNL     1     -45.226  59.439 -53.854  1.00  0.00     0.002 A 
HETATM   12  C   UNL     1     -44.880  58.085 -53.782  1.00  0.00     0.032 A 
ENDROOT
BRANCH   1  13
HETATM   13  C   UNL     1     -43.894  55.078 -54.175  1.00  0.00     0.181 C 
BRANCH  13  14
HETATM   14  C   UNL     1     -43.110  55.000 -52.859  1.00  0.00     0.161 C 
BRANCH  14  15
HETATM   15  C   UNL     1     -41.788  55.776 -52.943  1.00  0.00     0.209 C 
BRANCH  15  16
HETATM   16  O   UNL     1     -41.019  55.381 -51.804  1.00  0.00    -0.349 OA
BRANCH  16  17
HETATM   17  C   UNL     1     -40.662  54.063 -51.717  1.00  0.00     0.069 A 
HETATM   18  C   UNL     1     -40.694  53.537 -50.425  1.00  0.00     0.038 A 
HETATM   19  C   UNL     1     -40.340  52.208 -50.194  1.00  0.00     0.027 A 
HETATM   20  C   UNL     1     -39.953  51.391 -51.257  1.00  0.00     0.040 A 
HETATM   21  C   UNL     1     -39.926  51.897 -52.566  1.00  0.00    -0.038 A 
HETATM   22 CL   UNL     1     -39.511  49.761 -50.905  1.00  0.00    -0.084 Cl
HETATM   23  C   UNL     1     -39.504  51.045 -53.732  1.00  0.00     0.050 C 
HETATM   24  C   UNL     1     -40.280  53.243 -52.782  1.00  0.00     0.045 A 
ENDBRANCH  16  17
ENDBRANCH  15  16
ENDBRANCH  14  15
BRANCH  14  25
HETATM   25  O   UNL     1     -43.917  55.559 -51.799  1.00  0.00    -0.392 OA
HETATM   26  H   UNL     1     -44.551  56.156 -52.262  1.00  0.00     0.210 HD
ENDBRANCH  14  25
ENDBRANCH  13  14
ENDBRANCH   1  13
BRANCH   6  27
HETATM   27  C   UNL     1     -42.157  58.067 -57.941  1.00  0.00     0.175 C 
BRANCH  27  28
HETATM   28  C   UNL     1     -43.173  58.261 -59.086  1.00  0.00     0.256 C 
BRANCH  28  29
HETATM   29  N   UNL     1     -44.123  57.088 -59.241  1.00  0.00    -0.066 N 
HETATM   30  H   UNL     1     -44.476  56.805 -58.315  1.00  0.00     0.280 HD
HETATM   31  C   UNL     1     -45.370  57.499 -60.053  1.00  0.00     0.261 C 
HETATM   32  C   UNL     1     -46.318  56.303 -60.195  1.00  0.00     0.195 C 
HETATM   33  O   UNL     1     -45.648  55.207 -60.822  1.00  0.00    -0.388 OA
HETATM   34  C   UNL     1     -44.540  54.745 -60.047  1.00  0.00     0.195 C 
HETATM   35  C   UNL     1     -43.491  55.851 -59.891  1.00  0.00     0.261 C 
ENDBRANCH  28  29
ENDBRANCH  27  28
ENDBRANCH   6  27
TORSDOF 9
ENDMDL
