MODEL 1
REMARK VINA RESULT:      -8.2      0.000      0.000
REMARK  6 active torsions:
REMARK  status: ('A' for Active; 'I' for Inactive)
REMARK    1  A    between atoms: C_2  and  N_3 
REMARK    2  A    between atoms: C_10  and  N_11 
REMARK       I    between atoms: N_11  and  C_12 
REMARK       I    between atoms: C_12  and  N_13 
REMARK    3  A    between atoms: N_13  and  C_14 
REMARK    4  A    between atoms: C_14  and  C_15 
REMARK    5  A    between atoms: C_15  and  C_16 
REMARK    6  A    between atoms: C_19  and  O_20 
ROOT
HETATM    1  N   UNL     1     -42.103  55.452 -53.993  1.00  0.00    -0.307 N 
HETATM    2  C   UNL     1     -43.332  55.249 -54.551  1.00  0.00     0.320 C 
HETATM    3  N   UNL     1     -43.730  56.188 -55.460  1.00  0.00    -0.343 N 
HETATM    4  O   UNL     1     -44.085  54.301 -54.364  1.00  0.00    -0.247 OA
HETATM    5  H   UNL     1     -41.538  56.176 -54.397  1.00  0.00     0.170 HD
HETATM    6  H   UNL     1     -44.606  55.931 -55.899  1.00  0.00     0.164 HD
ENDROOT
BRANCH   1   7
HETATM    7  C   UNL     1     -41.424  54.597 -53.141  1.00  0.00     0.064 A 
HETATM    8  C   UNL     1     -40.846  53.297 -53.312  1.00  0.00     0.019 A 
HETATM    9  C   UNL     1     -40.232  52.954 -52.096  1.00  0.00     0.046 A 
HETATM   10  C   UNL     1     -40.796  52.347 -54.357  1.00  0.00     0.016 A 
HETATM   11  N   UNL     1     -40.441  54.004 -51.229  1.00  0.00    -0.354 N 
HETATM   12  C   UNL     1     -39.558  51.734 -51.911  1.00  0.00     0.030 A 
HETATM   13  C   UNL     1     -41.206  54.966 -51.830  1.00  0.00     0.121 A 
HETATM   14  C   UNL     1     -39.515  50.829 -52.973  1.00  0.00     0.002 A 
HETATM   15  C   UNL     1     -40.129  51.128 -54.181  1.00  0.00     0.001 A 
BRANCH  11  16
HETATM   16  C   UNL     1     -39.910  54.113 -49.881  1.00  0.00     0.124 C 
HETATM   17  C   UNL     1     -40.896  54.747 -48.918  1.00  0.00     0.027 C 
ENDBRANCH  11  16
ENDBRANCH   1   7
BRANCH   3  18
HETATM   18  C   UNL     1     -43.052  57.369 -55.968  1.00  0.00     0.129 C 
BRANCH  18  19
HETATM   19  C   UNL     1     -42.543  57.247 -57.410  1.00  0.00     0.058 C 
BRANCH  19  20
HETATM   20  C   UNL     1     -43.574  56.775 -58.404  1.00  0.00    -0.057 A 
HETATM   21  C   UNL     1     -44.729  57.524 -58.648  1.00  0.00     0.010 A 
HETATM   22  C   UNL     1     -45.655  57.098 -59.606  1.00  0.00     0.037 A 
HETATM   23  C   UNL     1     -45.443  55.923 -60.332  1.00  0.00     0.068 A 
HETATM   24  C   UNL     1     -44.307  55.159 -60.072  1.00  0.00     0.037 A 
HETATM   25  C   UNL     1     -43.379  55.584 -59.116  1.00  0.00     0.010 A 
BRANCH  23  26
HETATM   26  O   UNL     1     -46.412  55.633 -61.252  1.00  0.00    -0.356 OA
HETATM   27  C   UNL     1     -47.531  56.511 -61.294  1.00  0.00     0.210 C 
ENDBRANCH  23  26
ENDBRANCH  19  20
ENDBRANCH  18  19
ENDBRANCH   3  18
TORSDOF 6
ENDMDL
MODEL 2
REMARK VINA RESULT:      -7.9      0.912      2.614
REMARK  6 active torsions:
REMARK  status: ('A' for Active; 'I' for Inactive)
REMARK    1  A    between atoms: C_2  and  N_3 
REMARK    2  A    between atoms: C_10  and  N_11 
REMARK       I    between atoms: N_11  and  C_12 
REMARK       I    between atoms: C_12  and  N_13 
REMARK    3  A    between atoms: N_13  and  C_14 
REMARK    4  A    between atoms: C_14  and  C_15 
REMARK    5  A    between atoms: C_15  and  C_16 
REMARK    6  A    between atoms: C_19  and  O_20 
ROOT
HETATM    1  N   UNL     1     -41.959  55.278 -54.677  1.00  0.00    -0.307 N 
HETATM    2  C   UNL     1     -43.279  55.190 -55.012  1.00  0.00     0.320 C 
HETATM    3  N   UNL     1     -43.701  56.056 -55.980  1.00  0.00    -0.343 N 
HETATM    4  O   UNL     1     -44.104  54.393 -54.580  1.00  0.00    -0.247 OA
HETATM    5  H   UNL     1     -41.383  55.855 -55.261  1.00  0.00     0.170 HD
HETATM    6  H   UNL     1     -44.663  55.878 -56.243  1.00  0.00     0.164 HD
ENDROOT
BRANCH   1   7
HETATM    7  C   UNL     1     -41.260  54.445 -53.818  1.00  0.00     0.064 A 
HETATM    8  C   UNL     1     -40.989  54.491 -52.412  1.00  0.00     0.019 A 
HETATM    9  C   UNL     1     -40.273  53.326 -52.091  1.00  0.00     0.046 A 
HETATM   10  C   UNL     1     -41.244  55.407 -51.367  1.00  0.00     0.016 A 
HETATM   11  N   UNL     1     -40.114  52.615 -53.260  1.00  0.00    -0.354 N 
HETATM   12  C   UNL     1     -39.844  53.043 -50.782  1.00  0.00     0.030 A 
HETATM   13  C   UNL     1     -40.652  53.309 -54.310  1.00  0.00     0.121 A 
HETATM   14  C   UNL     1     -40.131  53.964 -49.774  1.00  0.00     0.002 A 
HETATM   15  C   UNL     1     -40.819  55.135 -50.061  1.00  0.00     0.001 A 
BRANCH  11  16
HETATM   16  C   UNL     1     -39.500  51.303 -53.383  1.00  0.00     0.124 C 
HETATM   17  C   UNL     1     -40.229  50.412 -54.371  1.00  0.00     0.027 C 
ENDBRANCH  11  16
ENDBRANCH   1   7
BRANCH   3  18
HETATM   18  C   UNL     1     -42.974  57.053 -56.750  1.00  0.00     0.129 C 
BRANCH  18  19
HETATM   19  C   UNL     1     -42.622  56.627 -58.181  1.00  0.00     0.058 C 
BRANCH  19  20
HETATM   20  C   UNL     1     -43.811  56.375 -59.073  1.00  0.00    -0.057 A 
HETATM   21  C   UNL     1     -44.720  57.398 -59.363  1.00  0.00     0.010 A 
HETATM   22  C   UNL     1     -45.792  57.162 -60.228  1.00  0.00     0.037 A 
HETATM   23  C   UNL     1     -45.974  55.908 -60.816  1.00  0.00     0.068 A 
HETATM   24  C   UNL     1     -45.087  54.878 -60.508  1.00  0.00     0.037 A 
HETATM   25  C   UNL     1     -44.013  55.111 -59.645  1.00  0.00     0.010 A 
BRANCH  23  26
HETATM   26  O   UNL     1     -47.047  55.818 -61.660  1.00  0.00    -0.356 OA
HETATM   27  C   UNL     1     -47.977  56.895 -61.621  1.00  0.00     0.210 C 
ENDBRANCH  23  26
ENDBRANCH  19  20
ENDBRANCH  18  19
ENDBRANCH   3  18
TORSDOF 6
ENDMDL
MODEL 3
REMARK VINA RESULT:      -7.7      2.455      3.070
REMARK  6 active torsions:
REMARK  status: ('A' for Active; 'I' for Inactive)
REMARK    1  A    between atoms: C_2  and  N_3 
REMARK    2  A    between atoms: C_10  and  N_11 
REMARK       I    between atoms: N_11  and  C_12 
REMARK       I    between atoms: C_12  and  N_13 
REMARK    3  A    between atoms: N_13  and  C_14 
REMARK    4  A    between atoms: C_14  and  C_15 
REMARK    5  A    between atoms: C_15  and  C_16 
REMARK    6  A    between atoms: C_19  and  O_20 
ROOT
HETATM    1  N   UNL     1     -41.902  57.922 -54.304  1.00  0.00    -0.307 N 
HETATM    2  C   UNL     1     -41.331  59.127 -54.013  1.00  0.00     0.320 C 
HETATM    3  N   UNL     1     -41.680  60.159 -54.836  1.00  0.00    -0.343 N 
HETATM    4  O   UNL     1     -40.589  59.389 -53.074  1.00  0.00    -0.247 OA
HETATM    5  H   UNL     1     -42.633  57.923 -54.992  1.00  0.00     0.170 HD
HETATM    6  H   UNL     1     -41.294  61.038 -54.512  1.00  0.00     0.164 HD
ENDROOT
BRANCH   1   7
HETATM    7  C   UNL     1     -41.807  56.754 -53.564  1.00  0.00     0.064 A 
HETATM    8  C   UNL     1     -41.228  55.470 -53.828  1.00  0.00     0.019 A 
HETATM    9  C   UNL     1     -41.391  54.697 -52.667  1.00  0.00     0.046 A 
HETATM   10  C   UNL     1     -40.604  54.856 -54.937  1.00  0.00     0.016 A 
HETATM   11  N   UNL     1     -42.049  55.484 -51.747  1.00  0.00    -0.354 N 
HETATM   12  C   UNL     1     -40.929  53.372 -52.574  1.00  0.00     0.030 A 
HETATM   13  C   UNL     1     -42.355  56.699 -52.299  1.00  0.00     0.121 A 
HETATM   14  C   UNL     1     -40.302  52.806 -53.685  1.00  0.00     0.002 A 
HETATM   15  C   UNL     1     -40.144  53.536 -54.854  1.00  0.00     0.001 A 
BRANCH  11  16
HETATM   16  C   UNL     1     -42.356  55.116 -50.375  1.00  0.00     0.124 C 
HETATM   17  C   UNL     1     -41.195  55.371 -49.433  1.00  0.00     0.027 C 
ENDBRANCH  11  16
ENDBRANCH   1   7
BRANCH   3  18
HETATM   18  C   UNL     1     -42.590  60.209 -55.969  1.00  0.00     0.129 C 
BRANCH  18  19
HETATM   19  C   UNL     1     -41.909  60.127 -57.342  1.00  0.00     0.058 C 
BRANCH  19  20
HETATM   20  C   UNL     1     -42.206  58.868 -58.116  1.00  0.00    -0.057 A 
HETATM   21  C   UNL     1     -42.645  57.711 -57.464  1.00  0.00     0.010 A 
HETATM   22  C   UNL     1     -42.961  56.565 -58.199  1.00  0.00     0.037 A 
HETATM   23  C   UNL     1     -42.843  56.555 -59.592  1.00  0.00     0.068 A 
HETATM   24  C   UNL     1     -42.379  57.695 -60.243  1.00  0.00     0.037 A 
HETATM   25  C   UNL     1     -42.065  58.844 -59.510  1.00  0.00     0.010 A 
BRANCH  23  26
HETATM   26  O   UNL     1     -43.205  55.379 -60.191  1.00  0.00    -0.356 OA
HETATM   27  C   UNL     1     -44.487  54.863 -59.852  1.00  0.00     0.210 C 
ENDBRANCH  23  26
ENDBRANCH  19  20
ENDBRANCH  18  19
ENDBRANCH   3  18
TORSDOF 6
ENDMDL
MODEL 4
REMARK VINA RESULT:      -7.7      2.963      5.615
REMARK  6 active torsions:
REMARK  status: ('A' for Active; 'I' for Inactive)
REMARK    1  A    between atoms: C_2  and  N_3 
REMARK    2  A    between atoms: C_10  and  N_11 
REMARK       I    between atoms: N_11  and  C_12 
REMARK       I    between atoms: C_12  and  N_13 
REMARK    3  A    between atoms: N_13  and  C_14 
REMARK    4  A    between atoms: C_14  and  C_15 
REMARK    5  A    between atoms: C_15  and  C_16 
REMARK    6  A    between atoms: C_19  and  O_20 
ROOT
HETATM    1  N   UNL     1     -41.969  55.420 -53.915  1.00  0.00    -0.307 N 
HETATM    2  C   UNL     1     -43.208  55.252 -54.463  1.00  0.00     0.320 C 
HETATM    3  N   UNL     1     -43.589  56.207 -55.362  1.00  0.00    -0.343 N 
HETATM    4  O   UNL     1     -43.983  54.321 -54.277  1.00  0.00    -0.247 OA
HETATM    5  H   UNL     1     -41.390  56.133 -54.318  1.00  0.00     0.170 HD
HETATM    6  H   UNL     1     -44.475  55.976 -55.795  1.00  0.00     0.164 HD
ENDROOT
BRANCH   1   7
HETATM    7  C   UNL     1     -41.304  54.540 -53.075  1.00  0.00     0.064 A 
HETATM    8  C   UNL     1     -40.781  53.218 -53.255  1.00  0.00     0.019 A 
HETATM    9  C   UNL     1     -40.154  52.855 -52.052  1.00  0.00     0.046 A 
HETATM   10  C   UNL     1     -40.791  52.265 -54.298  1.00  0.00     0.016 A 
HETATM   11  N   UNL     1     -40.303  53.914 -51.184  1.00  0.00    -0.354 N 
HETATM   12  C   UNL     1     -39.523  51.610 -51.878  1.00  0.00     0.030 A 
HETATM   13  C   UNL     1     -41.043  54.904 -51.770  1.00  0.00     0.121 A 
HETATM   14  C   UNL     1     -39.539  50.702 -52.938  1.00  0.00     0.002 A 
HETATM   15  C   UNL     1     -40.169  51.022 -54.133  1.00  0.00     0.001 A 
BRANCH  11  16
HETATM   16  C   UNL     1     -39.737  54.006 -49.848  1.00  0.00     0.124 C 
HETATM   17  C   UNL     1     -40.752  53.692 -48.765  1.00  0.00     0.027 C 
ENDBRANCH  11  16
ENDBRANCH   1   7
BRANCH   3  18
HETATM   18  C   UNL     1     -42.886  57.376 -55.866  1.00  0.00     0.129 C 
BRANCH  18  19
HETATM   19  C   UNL     1     -43.201  58.683 -55.127  1.00  0.00     0.058 C 
BRANCH  19  20
HETATM   20  C   UNL     1     -42.477  58.855 -53.816  1.00  0.00    -0.057 A 
HETATM   21  C   UNL     1     -41.093  58.678 -53.733  1.00  0.00     0.010 A 
HETATM   22  C   UNL     1     -40.428  58.885 -52.521  1.00  0.00     0.037 A 
HETATM   23  C   UNL     1     -41.131  59.271 -51.377  1.00  0.00     0.068 A 
HETATM   24  C   UNL     1     -42.514  59.421 -51.448  1.00  0.00     0.037 A 
HETATM   25  C   UNL     1     -43.182  59.217 -52.660  1.00  0.00     0.010 A 
BRANCH  23  26
HETATM   26  O   UNL     1     -40.359  59.463 -50.264  1.00  0.00    -0.356 OA
HETATM   27  C   UNL     1     -38.970  59.682 -50.486  1.00  0.00     0.210 C 
ENDBRANCH  23  26
ENDBRANCH  19  20
ENDBRANCH  18  19
ENDBRANCH   3  18
TORSDOF 6
ENDMDL
MODEL 5
REMARK VINA RESULT:      -7.6      2.843      5.975
REMARK  6 active torsions:
REMARK  status: ('A' for Active; 'I' for Inactive)
REMARK    1  A    between atoms: C_2  and  N_3 
REMARK    2  A    between atoms: C_10  and  N_11 
REMARK       I    between atoms: N_11  and  C_12 
REMARK       I    between atoms: C_12  and  N_13 
REMARK    3  A    between atoms: N_13  and  C_14 
REMARK    4  A    between atoms: C_14  and  C_15 
REMARK    5  A    between atoms: C_15  and  C_16 
REMARK    6  A    between atoms: C_19  and  O_20 
ROOT
HETATM    1  N   UNL     1     -42.089  55.414 -54.260  1.00  0.00    -0.307 N 
HETATM    2  C   UNL     1     -43.368  55.233 -54.699  1.00  0.00     0.320 C 
HETATM    3  N   UNL     1     -43.827  56.168 -55.583  1.00  0.00    -0.343 N 
HETATM    4  O   UNL     1     -44.122  54.305 -54.428  1.00  0.00    -0.247 OA
HETATM    5  H   UNL     1     -41.547  56.119 -54.726  1.00  0.00     0.170 HD
HETATM    6  H   UNL     1     -44.745  55.927 -55.935  1.00  0.00     0.164 HD
ENDROOT
BRANCH   1   7
HETATM    7  C   UNL     1     -41.353  54.554 -53.461  1.00  0.00     0.064 A 
HETATM    8  C   UNL     1     -41.049  54.536 -52.060  1.00  0.00     0.019 A 
HETATM    9  C   UNL     1     -40.302  53.372 -51.815  1.00  0.00     0.046 A 
HETATM   10  C   UNL     1     -41.298  55.392 -50.965  1.00  0.00     0.016 A 
HETATM   11  N   UNL     1     -40.156  52.724 -53.022  1.00  0.00    -0.354 N 
HETATM   12  C   UNL     1     -39.837  53.033 -50.532  1.00  0.00     0.030 A 
HETATM   13  C   UNL     1     -40.733  53.457 -54.023  1.00  0.00     0.121 A 
HETATM   14  C   UNL     1     -40.118  53.896 -49.472  1.00  0.00     0.002 A 
HETATM   15  C   UNL     1     -40.836  55.065 -49.685  1.00  0.00     0.001 A 
BRANCH  11  16
HETATM   16  C   UNL     1     -39.519  51.434 -53.225  1.00  0.00     0.124 C 
HETATM   17  C   UNL     1     -40.226  50.596 -54.273  1.00  0.00     0.027 C 
ENDBRANCH  11  16
ENDBRANCH   1   7
BRANCH   3  18
HETATM   18  C   UNL     1     -43.172  57.326 -56.170  1.00  0.00     0.129 C 
BRANCH  18  19
HETATM   19  C   UNL     1     -43.407  58.644 -55.420  1.00  0.00     0.058 C 
BRANCH  19  20
HETATM   20  C   UNL     1     -42.711  58.743 -54.086  1.00  0.00    -0.057 A 
HETATM   21  C   UNL     1     -41.333  58.966 -54.011  1.00  0.00     0.010 A 
HETATM   22  C   UNL     1     -40.708  59.101 -52.768  1.00  0.00     0.037 A 
HETATM   23  C   UNL     1     -41.446  59.016 -51.585  1.00  0.00     0.068 A 
HETATM   24  C   UNL     1     -42.814  58.765 -51.654  1.00  0.00     0.037 A 
HETATM   25  C   UNL     1     -43.442  58.632 -52.896  1.00  0.00     0.010 A 
BRANCH  23  26
HETATM   26  O   UNL     1     -40.718  59.188 -50.439  1.00  0.00    -0.356 OA
HETATM   27  C   UNL     1     -39.337  59.490 -50.604  1.00  0.00     0.210 C 
ENDBRANCH  23  26
ENDBRANCH  19  20
ENDBRANCH  18  19
ENDBRANCH   3  18
TORSDOF 6
ENDMDL
MODEL 6
REMARK VINA RESULT:      -7.4      2.129      8.327
REMARK  6 active torsions:
REMARK  status: ('A' for Active; 'I' for Inactive)
REMARK    1  A    between atoms: C_2  and  N_3 
REMARK    2  A    between atoms: C_10  and  N_11 
REMARK       I    between atoms: N_11  and  C_12 
REMARK       I    between atoms: C_12  and  N_13 
REMARK    3  A    between atoms: N_13  and  C_14 
REMARK    4  A    between atoms: C_14  and  C_15 
REMARK    5  A    between atoms: C_15  and  C_16 
REMARK    6  A    between atoms: C_19  and  O_20 
ROOT
HETATM    1  N   UNL     1     -42.455  56.795 -55.750  1.00  0.00    -0.307 N 
HETATM    2  C   UNL     1     -43.321  56.668 -54.703  1.00  0.00     0.320 C 
HETATM    3  N   UNL     1     -42.745  56.428 -53.488  1.00  0.00    -0.343 N 
HETATM    4  O   UNL     1     -44.540  56.794 -54.727  1.00  0.00    -0.247 OA
HETATM    5  H   UNL     1     -41.479  56.852 -55.525  1.00  0.00     0.170 HD
HETATM    6  H   UNL     1     -43.434  56.434 -52.744  1.00  0.00     0.164 HD
ENDROOT
BRANCH   1   7
HETATM    7  C   UNL     1     -42.770  57.152 -57.052  1.00  0.00     0.064 A 
HETATM    8  C   UNL     1     -43.334  56.434 -58.157  1.00  0.00     0.019 A 
HETATM    9  C   UNL     1     -43.474  57.348 -59.215  1.00  0.00     0.046 A 
HETATM   10  C   UNL     1     -43.719  55.096 -58.397  1.00  0.00     0.016 A 
HETATM   11  N   UNL     1     -43.005  58.562 -58.764  1.00  0.00    -0.354 N 
HETATM   12  C   UNL     1     -44.006  56.978 -60.463  1.00  0.00     0.030 A 
HETATM   13  C   UNL     1     -42.526  58.438 -57.488  1.00  0.00     0.121 A 
HETATM   14  C   UNL     1     -44.392  55.651 -60.655  1.00  0.00     0.002 A 
HETATM   15  C   UNL     1     -44.247  54.719 -59.637  1.00  0.00     0.001 A 
BRANCH  11  16
HETATM   16  C   UNL     1     -43.034  59.814 -59.502  1.00  0.00     0.124 C 
HETATM   17  C   UNL     1     -41.954  59.886 -60.565  1.00  0.00     0.027 C 
ENDBRANCH  11  16
ENDBRANCH   1   7
BRANCH   3  18
HETATM   18  C   UNL     1     -41.349  56.312 -53.101  1.00  0.00     0.129 C 
BRANCH  18  19
HETATM   19  C   UNL     1     -41.091  55.401 -51.894  1.00  0.00     0.058 C 
BRANCH  19  20
HETATM   20  C   UNL     1     -40.671  53.996 -52.243  1.00  0.00    -0.057 A 
HETATM   21  C   UNL     1     -40.804  53.511 -53.548  1.00  0.00     0.010 A 
HETATM   22  C   UNL     1     -40.368  52.222 -53.868  1.00  0.00     0.037 A 
HETATM   23  C   UNL     1     -39.795  51.399 -52.895  1.00  0.00     0.068 A 
HETATM   24  C   UNL     1     -39.687  51.867 -51.587  1.00  0.00     0.037 A 
HETATM   25  C   UNL     1     -40.120  53.157 -51.264  1.00  0.00     0.010 A 
BRANCH  23  26
HETATM   26  O   UNL     1     -39.391  50.172 -53.344  1.00  0.00    -0.356 OA
HETATM   27  C   UNL     1     -39.725  49.847 -54.689  1.00  0.00     0.210 C 
ENDBRANCH  23  26
ENDBRANCH  19  20
ENDBRANCH  18  19
ENDBRANCH   3  18
TORSDOF 6
ENDMDL
MODEL 7
REMARK VINA RESULT:      -7.3      2.559      3.987
REMARK  6 active torsions:
REMARK  status: ('A' for Active; 'I' for Inactive)
REMARK    1  A    between atoms: C_2  and  N_3 
REMARK    2  A    between atoms: C_10  and  N_11 
REMARK       I    between atoms: N_11  and  C_12 
REMARK       I    between atoms: C_12  and  N_13 
REMARK    3  A    between atoms: N_13  and  C_14 
REMARK    4  A    between atoms: C_14  and  C_15 
REMARK    5  A    between atoms: C_15  and  C_16 
REMARK    6  A    between atoms: C_19  and  O_20 
ROOT
HETATM    1  N   UNL     1     -41.838  54.522 -55.160  1.00  0.00    -0.307 N 
HETATM    2  C   UNL     1     -43.150  54.896 -55.187  1.00  0.00     0.320 C 
HETATM    3  N   UNL     1     -43.573  55.479 -56.348  1.00  0.00    -0.343 N 
HETATM    4  O   UNL     1     -43.991  54.722 -54.313  1.00  0.00    -0.247 OA
HETATM    5  H   UNL     1     -41.338  54.566 -56.028  1.00  0.00     0.170 HD
HETATM    6  H   UNL     1     -44.572  55.650 -56.334  1.00  0.00     0.164 HD
ENDROOT
BRANCH   1   7
HETATM    7  C   UNL     1     -41.195  53.813 -54.157  1.00  0.00     0.064 A 
HETATM    8  C   UNL     1     -40.968  54.069 -52.766  1.00  0.00     0.019 A 
HETATM    9  C   UNL     1     -40.301  52.948 -52.243  1.00  0.00     0.046 A 
HETATM   10  C   UNL     1     -41.226  55.142 -51.884  1.00  0.00     0.016 A 
HETATM   11  N   UNL     1     -40.128  52.061 -53.283  1.00  0.00    -0.354 N 
HETATM   12  C   UNL     1     -39.924  52.859 -50.891  1.00  0.00     0.030 A 
HETATM   13  C   UNL     1     -40.608  52.598 -54.446  1.00  0.00     0.121 A 
HETATM   14  C   UNL     1     -40.213  53.933 -50.048  1.00  0.00     0.002 A 
HETATM   15  C   UNL     1     -40.852  55.063 -50.538  1.00  0.00     0.001 A 
BRANCH  11  16
HETATM   16  C   UNL     1     -39.553  50.730 -53.180  1.00  0.00     0.124 C 
HETATM   17  C   UNL     1     -39.818  49.887 -54.413  1.00  0.00     0.027 C 
ENDBRANCH  11  16
ENDBRANCH   1   7
BRANCH   3  18
HETATM   18  C   UNL     1     -42.868  55.750 -57.590  1.00  0.00     0.129 C 
BRANCH  18  19
HETATM   19  C   UNL     1     -43.706  56.460 -58.661  1.00  0.00     0.058 C 
BRANCH  19  20
HETATM   20  C   UNL     1     -43.196  57.821 -59.060  1.00  0.00    -0.057 A 
HETATM   21  C   UNL     1     -42.354  58.548 -58.212  1.00  0.00     0.010 A 
HETATM   22  C   UNL     1     -41.851  59.788 -58.613  1.00  0.00     0.037 A 
HETATM   23  C   UNL     1     -42.179  60.323 -59.862  1.00  0.00     0.068 A 
HETATM   24  C   UNL     1     -43.041  59.616 -60.698  1.00  0.00     0.037 A 
HETATM   25  C   UNL     1     -43.543  58.373 -60.300  1.00  0.00     0.010 A 
BRANCH  23  26
HETATM   26  O   UNL     1     -41.603  61.531 -60.140  1.00  0.00    -0.356 OA
HETATM   27  C   UNL     1     -41.255  61.770 -61.499  1.00  0.00     0.210 C 
ENDBRANCH  23  26
ENDBRANCH  19  20
ENDBRANCH  18  19
ENDBRANCH   3  18
TORSDOF 6
ENDMDL
MODEL 8
REMARK VINA RESULT:      -7.2      2.511      3.139
REMARK  6 active torsions:
REMARK  status: ('A' for Active; 'I' for Inactive)
REMARK    1  A    between atoms: C_2  and  N_3 
REMARK    2  A    between atoms: C_10  and  N_11 
REMARK       I    between atoms: N_11  and  C_12 
REMARK       I    between atoms: C_12  and  N_13 
REMARK    3  A    between atoms: N_13  and  C_14 
REMARK    4  A    between atoms: C_14  and  C_15 
REMARK    5  A    between atoms: C_15  and  C_16 
REMARK    6  A    between atoms: C_19  and  O_20 
ROOT
HETATM    1  N   UNL     1     -41.843  55.093 -54.509  1.00  0.00    -0.307 N 
HETATM    2  C   UNL     1     -43.160  55.090 -54.868  1.00  0.00     0.320 C 
HETATM    3  N   UNL     1     -43.476  55.855 -55.955  1.00  0.00    -0.343 N 
HETATM    4  O   UNL     1     -44.068  54.443 -54.359  1.00  0.00    -0.247 OA
HETATM    5  H   UNL     1     -41.202  55.527 -55.147  1.00  0.00     0.170 HD
HETATM    6  H   UNL     1     -44.447  55.738 -56.220  1.00  0.00     0.164 HD
ENDROOT
BRANCH   1   7
HETATM    7  C   UNL     1     -41.246  54.319 -53.527  1.00  0.00     0.064 A 
HETATM    8  C   UNL     1     -40.713  52.988 -53.516  1.00  0.00     0.019 A 
HETATM    9  C   UNL     1     -40.180  52.767 -52.235  1.00  0.00     0.046 A 
HETATM   10  C   UNL     1     -40.645  51.924 -54.443  1.00  0.00     0.016 A 
HETATM   11  N   UNL     1     -40.394  53.916 -51.506  1.00  0.00    -0.354 N 
HETATM   12  C   UNL     1     -39.567  51.554 -51.875  1.00  0.00     0.030 A 
HETATM   13  C   UNL     1     -41.085  54.829 -52.255  1.00  0.00     0.121 A 
HETATM   14  C   UNL     1     -39.503  50.533 -52.823  1.00  0.00     0.002 A 
HETATM   15  C   UNL     1     -40.039  50.712 -54.091  1.00  0.00     0.001 A 
BRANCH  11  16
HETATM   16  C   UNL     1     -39.933  54.162 -50.150  1.00  0.00     0.124 C 
HETATM   17  C   UNL     1     -41.040  54.012 -49.124  1.00  0.00     0.027 C 
ENDBRANCH  11  16
ENDBRANCH   1   7
BRANCH   3  18
HETATM   18  C   UNL     1     -42.640  56.663 -56.827  1.00  0.00     0.129 C 
BRANCH  18  19
HETATM   19  C   UNL     1     -42.756  58.177 -56.606  1.00  0.00     0.058 C 
BRANCH  19  20
HETATM   20  C   UNL     1     -42.389  59.018 -57.802  1.00  0.00    -0.057 A 
HETATM   21  C   UNL     1     -42.711  58.602 -59.097  1.00  0.00     0.010 A 
HETATM   22  C   UNL     1     -42.406  59.413 -60.194  1.00  0.00     0.037 A 
HETATM   23  C   UNL     1     -41.777  60.648 -60.016  1.00  0.00     0.068 A 
HETATM   24  C   UNL     1     -41.429  61.054 -58.729  1.00  0.00     0.037 A 
HETATM   25  C   UNL     1     -41.735  60.246 -57.631  1.00  0.00     0.010 A 
BRANCH  23  26
HETATM   26  O   UNL     1     -41.557  61.353 -61.167  1.00  0.00    -0.356 OA
HETATM   27  C   UNL     1     -42.276  60.928 -62.319  1.00  0.00     0.210 C 
ENDBRANCH  23  26
ENDBRANCH  19  20
ENDBRANCH  18  19
ENDBRANCH   3  18
TORSDOF 6
ENDMDL
MODEL 9
REMARK VINA RESULT:      -7.2      1.525      3.151
REMARK  6 active torsions:
REMARK  status: ('A' for Active; 'I' for Inactive)
REMARK    1  A    between atoms: C_2  and  N_3 
REMARK    2  A    between atoms: C_10  and  N_11 
REMARK       I    between atoms: N_11  and  C_12 
REMARK       I    between atoms: C_12  and  N_13 
REMARK    3  A    between atoms: N_13  and  C_14 
REMARK    4  A    between atoms: C_14  and  C_15 
REMARK    5  A    between atoms: C_15  and  C_16 
REMARK    6  A    between atoms: C_19  and  O_20 
ROOT
HETATM    1  N   UNL     1     -41.518  56.412 -53.398  1.00  0.00    -0.307 N 
HETATM    2  C   UNL     1     -42.787  56.912 -53.423  1.00  0.00     0.320 C 
HETATM    3  N   UNL     1     -42.993  57.954 -54.283  1.00  0.00    -0.343 N 
HETATM    4  O   UNL     1     -43.761  56.500 -52.805  1.00  0.00    -0.247 OA
HETATM    5  H   UNL     1     -40.888  56.742 -54.105  1.00  0.00     0.170 HD
HETATM    6  H   UNL     1     -43.970  58.217 -54.318  1.00  0.00     0.164 HD
ENDROOT
BRANCH   1   7
HETATM    7  C   UNL     1     -41.077  55.293 -52.708  1.00  0.00     0.064 A 
HETATM    8  C   UNL     1     -40.995  54.970 -51.314  1.00  0.00     0.019 A 
HETATM    9  C   UNL     1     -40.515  53.653 -51.223  1.00  0.00     0.046 A 
HETATM   10  C   UNL     1     -41.245  55.656 -50.105  1.00  0.00     0.016 A 
HETATM   11  N   UNL     1     -40.311  53.208 -52.511  1.00  0.00    -0.354 N 
HETATM   12  C   UNL     1     -40.316  53.008 -49.990  1.00  0.00     0.030 A 
HETATM   13  C   UNL     1     -40.589  54.207 -53.405  1.00  0.00     0.121 A 
HETATM   14  C   UNL     1     -40.592  53.713 -48.818  1.00  0.00     0.002 A 
HETATM   15  C   UNL     1     -41.047  55.023 -48.872  1.00  0.00     0.001 A 
BRANCH  11  16
HETATM   16  C   UNL     1     -39.894  51.870 -52.894  1.00  0.00     0.124 C 
HETATM   17  C   UNL     1     -40.445  51.455 -54.245  1.00  0.00     0.027 C 
ENDBRANCH  11  16
ENDBRANCH   1   7
BRANCH   3  18
HETATM   18  C   UNL     1     -42.091  58.616 -55.211  1.00  0.00     0.129 C 
BRANCH  18  19
HETATM   19  C   UNL     1     -42.781  59.304 -56.396  1.00  0.00     0.058 C 
BRANCH  19  20
HETATM   20  C   UNL     1     -43.024  58.412 -57.587  1.00  0.00    -0.057 A 
HETATM   21  C   UNL     1     -44.254  57.771 -57.764  1.00  0.00     0.010 A 
HETATM   22  C   UNL     1     -44.482  56.984 -58.896  1.00  0.00     0.037 A 
HETATM   23  C   UNL     1     -43.489  56.823 -59.866  1.00  0.00     0.068 A 
HETATM   24  C   UNL     1     -42.252  57.436 -59.680  1.00  0.00     0.037 A 
HETATM   25  C   UNL     1     -42.022  58.226 -58.550  1.00  0.00     0.010 A 
BRANCH  23  26
HETATM   26  O   UNL     1     -43.848  56.047 -60.934  1.00  0.00    -0.356 OA
HETATM   27  C   UNL     1     -44.788  55.011 -60.677  1.00  0.00     0.210 C 
ENDBRANCH  23  26
ENDBRANCH  19  20
ENDBRANCH  18  19
ENDBRANCH   3  18
TORSDOF 6
ENDMDL
MODEL 10
REMARK VINA RESULT:      -7.0     14.541     16.621
REMARK  6 active torsions:
REMARK  status: ('A' for Active; 'I' for Inactive)
REMARK    1  A    between atoms: C_2  and  N_3 
REMARK    2  A    between atoms: C_10  and  N_11 
REMARK       I    between atoms: N_11  and  C_12 
REMARK       I    between atoms: C_12  and  N_13 
REMARK    3  A    between atoms: N_13  and  C_14 
REMARK    4  A    between atoms: C_14  and  C_15 
REMARK    5  A    between atoms: C_15  and  C_16 
REMARK    6  A    between atoms: C_19  and  O_20 
ROOT
HETATM    1  N   UNL     1     -35.300  41.058 -54.791  1.00  0.00    -0.307 N 
HETATM    2  C   UNL     1     -36.011  42.153 -54.392  1.00  0.00     0.320 C 
HETATM    3  N   UNL     1     -37.179  42.374 -55.066  1.00  0.00    -0.343 N 
HETATM    4  O   UNL     1     -35.744  42.919 -53.474  1.00  0.00    -0.247 OA
HETATM    5  H   UNL     1     -35.754  40.433 -55.430  1.00  0.00     0.170 HD
HETATM    6  H   UNL     1     -37.698  43.145 -54.663  1.00  0.00     0.164 HD
ENDROOT
BRANCH   1   7
HETATM    7  C   UNL     1     -34.154  40.550 -54.201  1.00  0.00     0.064 A 
HETATM    8  C   UNL     1     -33.721  40.432 -52.839  1.00  0.00     0.019 A 
HETATM    9  C   UNL     1     -32.481  39.772 -52.855  1.00  0.00     0.046 A 
HETATM   10  C   UNL     1     -34.226  40.838 -51.584  1.00  0.00     0.016 A 
HETATM   11  N   UNL     1     -32.180  39.512 -54.175  1.00  0.00    -0.354 N 
HETATM   12  C   UNL     1     -31.767  39.484 -51.679  1.00  0.00     0.030 A 
HETATM   13  C   UNL     1     -33.150  40.029 -54.990  1.00  0.00     0.121 A 
HETATM   14  C   UNL     1     -32.308  39.885 -50.457  1.00  0.00     0.002 A 
HETATM   15  C   UNL     1     -33.521  40.558 -50.408  1.00  0.00     0.001 A 
BRANCH  11  16
HETATM   16  C   UNL     1     -31.026  38.771 -54.654  1.00  0.00     0.124 C 
HETATM   17  C   UNL     1     -30.543  39.260 -56.006  1.00  0.00     0.027 C 
ENDBRANCH  11  16
ENDBRANCH   1   7
BRANCH   3  18
HETATM   18  C   UNL     1     -37.822  41.622 -56.130  1.00  0.00     0.129 C 
BRANCH  18  19
HETATM   19  C   UNL     1     -37.311  41.941 -57.541  1.00  0.00     0.058 C 
BRANCH  19  20
HETATM   20  C   UNL     1     -37.617  40.888 -58.576  1.00  0.00    -0.057 A 
HETATM   21  C   UNL     1     -37.249  41.067 -59.913  1.00  0.00     0.010 A 
HETATM   22  C   UNL     1     -37.497  40.063 -60.852  1.00  0.00     0.037 A 
HETATM   23  C   UNL     1     -38.115  38.867 -60.474  1.00  0.00     0.068 A 
HETATM   24  C   UNL     1     -38.509  38.696 -59.149  1.00  0.00     0.037 A 
HETATM   25  C   UNL     1     -38.260  39.698 -58.206  1.00  0.00     0.010 A 
BRANCH  23  26
HETATM   26  O   UNL     1     -38.279  37.960 -61.484  1.00  0.00    -0.356 OA
HETATM   27  C   UNL     1     -39.569  37.901 -62.081  1.00  0.00     0.210 C 
ENDBRANCH  23  26
ENDBRANCH  19  20
ENDBRANCH  18  19
ENDBRANCH   3  18
TORSDOF 6
ENDMDL
