MODEL 1
REMARK VINA RESULT:      -7.7      0.000      0.000
REMARK  8 active torsions:
REMARK  status: ('A' for Active; 'I' for Inactive)
REMARK    1  A    between atoms: C_2  and  O_3 
REMARK    2  A    between atoms: O_3  and  C_4 
REMARK    3  A    between atoms: C_5  and  C_6 
REMARK    4  A    between atoms: C_6  and  N_7 
REMARK    5  A    between atoms: C_23  and  C_24 
REMARK    6  A    between atoms: N_25  and  N_26 
REMARK       I    between atoms: N_26  and  C_27 
REMARK    7  A    between atoms: C_27  and  C_28 
REMARK    8  A    between atoms: C_32  and  C_33 
ROOT
HETATM    1  C   UNL     1     -44.051  57.789 -56.720  1.00  0.00     0.076 A 
HETATM    2  C   UNL     1     -44.145  57.305 -55.400  1.00  0.00     0.002 A 
HETATM    3  C   UNL     1     -44.299  58.236 -54.365  1.00  0.00     0.024 A 
HETATM    4  C   UNL     1     -44.429  59.607 -54.629  1.00  0.00    -0.016 A 
HETATM    5  C   UNL     1     -44.340  60.077 -55.933  1.00  0.00     0.016 A 
HETATM    6  C   UNL     1     -44.142  59.166 -56.976  1.00  0.00     0.038 A 
ENDROOT
BRANCH   2   7
HETATM    7  C   UNL     1     -44.021  55.820 -55.138  1.00  0.00     0.276 C 
BRANCH   7   8
HETATM    8  N   UNL     1     -42.718  55.143 -55.571  1.00  0.00    -0.066 N 
HETATM    9  H   UNL     1     -42.837  55.055 -56.587  1.00  0.00     0.280 HD
HETATM   10  C   UNL     1     -41.455  55.976 -55.398  1.00  0.00     0.246 C 
HETATM   11  C   UNL     1     -40.710  55.713 -54.076  1.00  0.00     0.062 C 
HETATM   12  C   UNL     1     -40.436  54.224 -53.923  1.00  0.00     0.020 C 
HETATM   13  C   UNL     1     -41.478  56.246 -52.884  1.00  0.00     0.020 A 
HETATM   14  C   UNL     1     -41.781  53.522 -53.826  1.00  0.00     0.031 C 
HETATM   15  C   UNL     1     -42.514  53.991 -52.566  1.00  0.00     0.138 C 
HETATM   16  C   UNL     1     -42.588  53.712 -55.113  1.00  0.00     0.241 C 
HETATM   17  N   UNL     1     -42.392  55.410 -52.237  1.00  0.00    -0.317 N 
HETATM   18  C   UNL     1     -43.163  55.847 -51.149  1.00  0.00     0.247 A 
HETATM   19  O   UNL     1     -43.992  55.148 -50.574  1.00  0.00    -0.268 OA
HETATM   20  C   UNL     1     -42.950  57.247 -50.709  1.00  0.00     0.074 A 
HETATM   21  C   UNL     1     -42.057  58.018 -51.338  1.00  0.00     0.007 A 
HETATM   22  C   UNL     1     -41.305  57.508 -52.454  1.00  0.00     0.026 A 
ENDBRANCH   7   8
ENDBRANCH   2   7
BRANCH   1  23
HETATM   23  O   UNL     1     -43.863  56.825 -57.674  1.00  0.00    -0.351 OA
BRANCH  23  24
HETATM   24  C   UNL     1     -42.869  57.059 -58.675  1.00  0.00     0.171 C 
HETATM   25  C   UNL     1     -42.870  55.866 -59.614  1.00  0.00     0.034 C 
ENDBRANCH  23  24
ENDBRANCH   1  23
BRANCH   4  26
HETATM   26  C   UNL     1     -44.710  60.517 -53.499  1.00  0.00     0.150 C 
HETATM   27  N   UNL     1     -44.919  59.998 -52.335  1.00  0.00    -0.184 NA
BRANCH  27  28
HETATM   28  N   UNL     1     -45.195  60.840 -51.312  1.00  0.00    -0.242 N 
HETATM   29  C   UNL     1     -45.690  60.332 -50.119  1.00  0.00     0.292 C 
HETATM   30  O   UNL     1     -45.910  59.140 -49.907  1.00  0.00    -0.264 OA
HETATM   31  H   UNL     1     -45.061  61.848 -51.376  1.00  0.00     0.192 HD
BRANCH  29  32
HETATM   32  C   UNL     1     -45.932  61.379 -49.117  1.00  0.00     0.148 A 
HETATM   33  N   UNL     1     -46.825  62.370 -49.315  1.00  0.00    -0.169 NA
HETATM   34  N   UNL     1     -46.755  63.100 -48.185  1.00  0.00    -0.281 N 
HETATM   35  H   UNL     1     -47.361  63.910 -48.100  1.00  0.00     0.189 HD
HETATM   36  C   UNL     1     -45.842  62.635 -47.272  1.00  0.00     0.038 A 
HETATM   37  C   UNL     1     -45.305  61.505 -47.854  1.00  0.00     0.066 A 
BRANCH  36  38
HETATM   38  C   UNL     1     -45.602  63.294 -45.929  1.00  0.00    -0.007 C 
HETATM   39  C   UNL     1     -46.955  63.653 -45.291  1.00  0.00     0.021 C 
HETATM   40  C   UNL     1     -44.846  62.340 -44.982  1.00  0.00     0.021 C 
HETATM   41  C   UNL     1     -44.756  64.574 -46.082  1.00  0.00     0.021 C 
ENDBRANCH  36  38
ENDBRANCH  29  32
ENDBRANCH  27  28
ENDBRANCH   4  26
TORSDOF 8
ENDMDL
MODEL 2
REMARK VINA RESULT:      -7.1      4.164      9.031
REMARK  8 active torsions:
REMARK  status: ('A' for Active; 'I' for Inactive)
REMARK    1  A    between atoms: C_2  and  O_3 
REMARK    2  A    between atoms: O_3  and  C_4 
REMARK    3  A    between atoms: C_5  and  C_6 
REMARK    4  A    between atoms: C_6  and  N_7 
REMARK    5  A    between atoms: C_23  and  C_24 
REMARK    6  A    between atoms: N_25  and  N_26 
REMARK       I    between atoms: N_26  and  C_27 
REMARK    7  A    between atoms: C_27  and  C_28 
REMARK    8  A    between atoms: C_32  and  C_33 
ROOT
HETATM    1  C   UNL     1     -41.697  54.593 -54.135  1.00  0.00     0.076 A 
HETATM    2  C   UNL     1     -41.487  55.928 -54.534  1.00  0.00     0.002 A 
HETATM    3  C   UNL     1     -42.062  56.355 -55.738  1.00  0.00     0.024 A 
HETATM    4  C   UNL     1     -42.885  55.510 -56.494  1.00  0.00    -0.016 A 
HETATM    5  C   UNL     1     -43.092  54.196 -56.093  1.00  0.00     0.016 A 
HETATM    6  C   UNL     1     -42.489  53.738 -54.916  1.00  0.00     0.038 A 
ENDROOT
BRANCH   2   7
HETATM    7  C   UNL     1     -40.610  56.830 -53.693  1.00  0.00     0.276 C 
BRANCH   7   8
HETATM    8  N   UNL     1     -41.074  58.277 -53.506  1.00  0.00    -0.066 N 
HETATM    9  H   UNL     1     -40.855  58.702 -54.414  1.00  0.00     0.280 HD
HETATM   10  C   UNL     1     -42.575  58.468 -53.337  1.00  0.00     0.246 C 
HETATM   11  C   UNL     1     -43.035  58.529 -51.868  1.00  0.00     0.062 C 
HETATM   12  C   UNL     1     -42.237  59.586 -51.118  1.00  0.00     0.020 C 
HETATM   13  C   UNL     1     -42.918  57.181 -51.188  1.00  0.00     0.020 A 
HETATM   14  C   UNL     1     -40.784  59.140 -51.114  1.00  0.00     0.031 C 
HETATM   15  C   UNL     1     -40.654  57.825 -50.340  1.00  0.00     0.138 C 
HETATM   16  C   UNL     1     -40.231  59.071 -52.540  1.00  0.00     0.241 C 
HETATM   17  N   UNL     1     -41.729  56.853 -50.532  1.00  0.00    -0.317 N 
HETATM   18  C   UNL     1     -41.537  55.609 -49.912  1.00  0.00     0.247 A 
HETATM   19  O   UNL     1     -40.497  55.279 -49.350  1.00  0.00    -0.268 OA
HETATM   20  C   UNL     1     -42.673  54.658 -49.974  1.00  0.00     0.074 A 
HETATM   21  C   UNL     1     -43.804  55.007 -50.595  1.00  0.00     0.007 A 
HETATM   22  C   UNL     1     -43.931  56.297 -51.219  1.00  0.00     0.026 A 
ENDBRANCH   7   8
ENDBRANCH   2   7
BRANCH   1  23
HETATM   23  O   UNL     1     -41.072  54.235 -52.970  1.00  0.00    -0.351 OA
BRANCH  23  24
HETATM   24  C   UNL     1     -40.609  52.889 -52.844  1.00  0.00     0.171 C 
HETATM   25  C   UNL     1     -39.859  52.779 -51.529  1.00  0.00     0.034 C 
ENDBRANCH  23  24
ENDBRANCH   1  23
BRANCH   4  26
HETATM   26  C   UNL     1     -43.555  56.065 -57.689  1.00  0.00     0.150 C 
HETATM   27  N   UNL     1     -43.826  57.329 -57.704  1.00  0.00    -0.184 NA
BRANCH  27  28
HETATM   28  N   UNL     1     -44.458  57.822 -58.794  1.00  0.00    -0.242 N 
HETATM   29  C   UNL     1     -45.804  58.155 -58.715  1.00  0.00     0.292 C 
HETATM   30  O   UNL     1     -46.494  58.032 -57.704  1.00  0.00    -0.264 OA
HETATM   31  H   UNL     1     -43.990  57.957 -59.689  1.00  0.00     0.192 HD
BRANCH  29  32
HETATM   32  C   UNL     1     -46.331  58.676 -59.984  1.00  0.00     0.148 A 
HETATM   33  N   UNL     1     -45.669  59.594 -60.715  1.00  0.00    -0.169 NA
HETATM   34  N   UNL     1     -46.465  59.795 -61.783  1.00  0.00    -0.281 N 
HETATM   35  H   UNL     1     -46.158  60.454 -62.492  1.00  0.00     0.189 HD
HETATM   36  C   UNL     1     -47.623  59.060 -61.765  1.00  0.00     0.038 A 
HETATM   37  C   UNL     1     -47.548  58.313 -60.608  1.00  0.00     0.066 A 
BRANCH  36  38
HETATM   38  C   UNL     1     -48.661  59.121 -62.867  1.00  0.00    -0.007 C 
HETATM   39  C   UNL     1     -48.189  60.100 -63.956  1.00  0.00     0.021 C 
HETATM   40  C   UNL     1     -48.860  57.731 -63.505  1.00  0.00     0.021 C 
HETATM   41  C   UNL     1     -50.025  59.587 -62.320  1.00  0.00     0.021 C 
ENDBRANCH  36  38
ENDBRANCH  29  32
ENDBRANCH  27  28
ENDBRANCH   4  26
TORSDOF 8
ENDMDL
MODEL 3
REMARK VINA RESULT:      -7.0     18.794     22.376
REMARK  8 active torsions:
REMARK  status: ('A' for Active; 'I' for Inactive)
REMARK    1  A    between atoms: C_2  and  O_3 
REMARK    2  A    between atoms: O_3  and  C_4 
REMARK    3  A    between atoms: C_5  and  C_6 
REMARK    4  A    between atoms: C_6  and  N_7 
REMARK    5  A    between atoms: C_23  and  C_24 
REMARK    6  A    between atoms: N_25  and  N_26 
REMARK       I    between atoms: N_26  and  C_27 
REMARK    7  A    between atoms: C_27  and  C_28 
REMARK    8  A    between atoms: C_32  and  C_33 
ROOT
HETATM    1  C   UNL     1     -32.298  38.493 -56.390  1.00  0.00     0.076 A 
HETATM    2  C   UNL     1     -32.801  39.504 -55.545  1.00  0.00     0.002 A 
HETATM    3  C   UNL     1     -32.624  39.358 -54.164  1.00  0.00     0.024 A 
HETATM    4  C   UNL     1     -31.904  38.280 -53.630  1.00  0.00    -0.016 A 
HETATM    5  C   UNL     1     -31.407  37.290 -54.467  1.00  0.00     0.016 A 
HETATM    6  C   UNL     1     -31.613  37.396 -55.848  1.00  0.00     0.038 A 
ENDROOT
BRANCH   2   7
HETATM    7  C   UNL     1     -33.559  40.669 -56.144  1.00  0.00     0.276 C 
BRANCH   7   8
HETATM    8  N   UNL     1     -34.786  40.338 -56.997  1.00  0.00    -0.066 N 
HETATM    9  H   UNL     1     -34.369  40.044 -57.887  1.00  0.00     0.280 HD
HETATM   10  C   UNL     1     -35.604  39.140 -56.534  1.00  0.00     0.246 C 
HETATM   11  C   UNL     1     -36.798  39.508 -55.634  1.00  0.00     0.062 C 
HETATM   12  C   UNL     1     -37.661  40.556 -56.321  1.00  0.00     0.020 C 
HETATM   13  C   UNL     1     -36.344  39.991 -54.272  1.00  0.00     0.020 A 
HETATM   14  C   UNL     1     -36.815  41.810 -56.478  1.00  0.00     0.031 C 
HETATM   15  C   UNL     1     -36.440  42.351 -55.096  1.00  0.00     0.138 C 
HETATM   16  C   UNL     1     -35.608  41.543 -57.382  1.00  0.00     0.241 C 
HETATM   17  N   UNL     1     -36.109  41.355 -54.079  1.00  0.00    -0.317 N 
HETATM   18  C   UNL     1     -35.654  41.867 -52.855  1.00  0.00     0.247 A 
HETATM   19  O   UNL     1     -35.413  43.055 -52.659  1.00  0.00    -0.268 OA
HETATM   20  C   UNL     1     -35.446  40.885 -51.763  1.00  0.00     0.074 A 
HETATM   21  C   UNL     1     -35.695  39.589 -51.974  1.00  0.00     0.007 A 
HETATM   22  C   UNL     1     -36.153  39.129 -53.258  1.00  0.00     0.026 A 
ENDBRANCH   7   8
ENDBRANCH   2   7
BRANCH   1  23
HETATM   23  O   UNL     1     -32.543  38.684 -57.724  1.00  0.00    -0.351 OA
BRANCH  23  24
HETATM   24  C   UNL     1     -32.499  37.541 -58.582  1.00  0.00     0.171 C 
HETATM   25  C   UNL     1     -33.861  37.405 -59.239  1.00  0.00     0.034 C 
ENDBRANCH  23  24
ENDBRANCH   1  23
BRANCH   4  26
HETATM   26  C   UNL     1     -31.653  38.255 -52.173  1.00  0.00     0.150 C 
HETATM   27  N   UNL     1     -31.925  39.316 -51.489  1.00  0.00    -0.184 NA
BRANCH  27  28
HETATM   28  N   UNL     1     -31.672  39.288 -50.160  1.00  0.00    -0.242 N 
HETATM   29  C   UNL     1     -32.571  38.668 -49.303  1.00  0.00     0.292 C 
HETATM   30  O   UNL     1     -33.616  38.126 -49.662  1.00  0.00    -0.264 OA
HETATM   31  H   UNL     1     -30.843  39.714 -49.747  1.00  0.00     0.192 HD
BRANCH  29  32
HETATM   32  C   UNL     1     -32.144  38.728 -47.899  1.00  0.00     0.148 A 
HETATM   33  N   UNL     1     -32.853  38.154 -46.906  1.00  0.00    -0.169 NA
HETATM   34  N   UNL     1     -32.136  38.422 -45.798  1.00  0.00    -0.281 N 
HETATM   35  H   UNL     1     -32.480  38.071 -44.909  1.00  0.00     0.189 HD
HETATM   36  C   UNL     1     -31.003  39.161 -46.027  1.00  0.00     0.038 A 
HETATM   37  C   UNL     1     -30.982  39.358 -47.392  1.00  0.00     0.066 A 
BRANCH  36  38
HETATM   38  C   UNL     1     -30.044  39.571 -44.928  1.00  0.00    -0.007 C 
HETATM   39  C   UNL     1     -28.602  39.284 -45.380  1.00  0.00     0.021 C 
HETATM   40  C   UNL     1     -30.176  41.078 -44.625  1.00  0.00     0.021 C 
HETATM   41  C   UNL     1     -30.331  38.802 -43.624  1.00  0.00     0.021 C 
ENDBRANCH  36  38
ENDBRANCH  29  32
ENDBRANCH  27  28
ENDBRANCH   4  26
TORSDOF 8
ENDMDL
MODEL 4
REMARK VINA RESULT:      -6.7      4.419      9.246
REMARK  8 active torsions:
REMARK  status: ('A' for Active; 'I' for Inactive)
REMARK    1  A    between atoms: C_2  and  O_3 
REMARK    2  A    between atoms: O_3  and  C_4 
REMARK    3  A    between atoms: C_5  and  C_6 
REMARK    4  A    between atoms: C_6  and  N_7 
REMARK    5  A    between atoms: C_23  and  C_24 
REMARK    6  A    between atoms: N_25  and  N_26 
REMARK       I    between atoms: N_26  and  C_27 
REMARK    7  A    between atoms: C_27  and  C_28 
REMARK    8  A    between atoms: C_32  and  C_33 
ROOT
HETATM    1  C   UNL     1     -45.698  61.010 -54.859  1.00  0.00     0.076 A 
HETATM    2  C   UNL     1     -44.957  60.229 -55.770  1.00  0.00     0.002 A 
HETATM    3  C   UNL     1     -44.278  59.107 -55.278  1.00  0.00     0.024 A 
HETATM    4  C   UNL     1     -44.384  58.721 -53.935  1.00  0.00    -0.016 A 
HETATM    5  C   UNL     1     -45.119  59.491 -53.043  1.00  0.00     0.016 A 
HETATM    6  C   UNL     1     -45.768  60.641 -53.508  1.00  0.00     0.038 A 
ENDROOT
BRANCH   2   7
HETATM    7  C   UNL     1     -44.871  60.654 -57.220  1.00  0.00     0.276 C 
BRANCH   7   8
HETATM    8  N   UNL     1     -46.144  60.528 -58.060  1.00  0.00    -0.066 N 
HETATM    9  H   UNL     1     -46.727  61.293 -57.702  1.00  0.00     0.280 HD
HETATM   10  C   UNL     1     -45.984  60.822 -59.546  1.00  0.00     0.246 C 
HETATM   11  C   UNL     1     -45.743  59.569 -60.408  1.00  0.00     0.062 C 
HETATM   12  C   UNL     1     -46.834  58.541 -60.145  1.00  0.00     0.020 C 
HETATM   13  C   UNL     1     -44.371  58.975 -60.162  1.00  0.00     0.020 A 
HETATM   14  C   UNL     1     -46.715  58.114 -58.691  1.00  0.00     0.031 C 
HETATM   15  C   UNL     1     -45.365  57.425 -58.469  1.00  0.00     0.138 C 
HETATM   16  C   UNL     1     -46.962  59.298 -57.753  1.00  0.00     0.241 C 
HETATM   17  N   UNL     1     -44.220  58.004 -59.168  1.00  0.00    -0.317 N 
HETATM   18  C   UNL     1     -42.974  57.437 -58.863  1.00  0.00     0.247 A 
HETATM   19  O   UNL     1     -42.801  56.602 -57.980  1.00  0.00    -0.268 OA
HETATM   20  C   UNL     1     -41.818  57.912 -59.661  1.00  0.00     0.074 A 
HETATM   21  C   UNL     1     -41.997  58.830 -60.616  1.00  0.00     0.007 A 
HETATM   22  C   UNL     1     -43.303  59.377 -60.873  1.00  0.00     0.026 A 
ENDBRANCH   7   8
ENDBRANCH   2   7
BRANCH   1  23
HETATM   23  O   UNL     1     -46.301  62.111 -55.404  1.00  0.00    -0.351 OA
BRANCH  23  24
HETATM   24  C   UNL     1     -47.609  62.455 -54.940  1.00  0.00     0.171 C 
HETATM   25  C   UNL     1     -48.453  62.800 -56.154  1.00  0.00     0.034 C 
ENDBRANCH  23  24
ENDBRANCH   1  23
BRANCH   4  26
HETATM   26  C   UNL     1     -43.739  57.459 -53.514  1.00  0.00     0.150 C 
HETATM   27  N   UNL     1     -43.252  56.688 -54.429  1.00  0.00    -0.184 NA
BRANCH  27  28
HETATM   28  N   UNL     1     -42.682  55.526 -54.033  1.00  0.00    -0.242 N 
HETATM   29  C   UNL     1     -41.308  55.465 -53.844  1.00  0.00     0.292 C 
HETATM   30  O   UNL     1     -40.538  56.409 -54.016  1.00  0.00    -0.264 OA
HETATM   31  H   UNL     1     -43.219  54.675 -53.869  1.00  0.00     0.192 HD
BRANCH  29  32
HETATM   32  C   UNL     1     -40.857  54.135 -53.414  1.00  0.00     0.148 A 
HETATM   33  N   UNL     1     -40.583  53.850 -52.125  1.00  0.00    -0.169 NA
HETATM   34  N   UNL     1     -40.217  52.554 -52.149  1.00  0.00    -0.281 N 
HETATM   35  H   UNL     1     -39.971  52.110 -51.270  1.00  0.00     0.189 HD
HETATM   36  C   UNL     1     -40.224  51.992 -53.401  1.00  0.00     0.038 A 
HETATM   37  C   UNL     1     -40.652  53.002 -54.238  1.00  0.00     0.066 A 
BRANCH  36  38
HETATM   38  C   UNL     1     -39.856  50.546 -53.663  1.00  0.00    -0.007 C 
HETATM   39  C   UNL     1     -38.542  50.493 -54.461  1.00  0.00     0.021 C 
HETATM   40  C   UNL     1     -39.659  49.786 -52.336  1.00  0.00     0.021 C 
HETATM   41  C   UNL     1     -40.963  49.827 -54.458  1.00  0.00     0.021 C 
ENDBRANCH  36  38
ENDBRANCH  29  32
ENDBRANCH  27  28
ENDBRANCH   4  26
TORSDOF 8
ENDMDL
MODEL 5
REMARK VINA RESULT:      -6.7      3.770      9.153
REMARK  8 active torsions:
REMARK  status: ('A' for Active; 'I' for Inactive)
REMARK    1  A    between atoms: C_2  and  O_3 
REMARK    2  A    between atoms: O_3  and  C_4 
REMARK    3  A    between atoms: C_5  and  C_6 
REMARK    4  A    between atoms: C_6  and  N_7 
REMARK    5  A    between atoms: C_23  and  C_24 
REMARK    6  A    between atoms: N_25  and  N_26 
REMARK       I    between atoms: N_26  and  C_27 
REMARK    7  A    between atoms: C_27  and  C_28 
REMARK    8  A    between atoms: C_32  and  C_33 
ROOT
HETATM    1  C   UNL     1     -45.723  60.825 -53.117  1.00  0.00     0.076 A 
HETATM    2  C   UNL     1     -45.354  60.097 -54.267  1.00  0.00     0.002 A 
HETATM    3  C   UNL     1     -44.696  58.873 -54.091  1.00  0.00     0.024 A 
HETATM    4  C   UNL     1     -44.472  58.342 -52.814  1.00  0.00    -0.016 A 
HETATM    5  C   UNL     1     -44.842  59.061 -51.684  1.00  0.00     0.016 A 
HETATM    6  C   UNL     1     -45.460  60.307 -51.840  1.00  0.00     0.038 A 
ENDROOT
BRANCH   2   7
HETATM    7  C   UNL     1     -45.622  60.681 -55.638  1.00  0.00     0.276 C 
BRANCH   7   8
HETATM    8  N   UNL     1     -44.707  61.816 -56.103  1.00  0.00    -0.066 N 
HETATM    9  H   UNL     1     -44.997  62.599 -55.505  1.00  0.00     0.280 HD
HETATM   10  C   UNL     1     -43.225  61.629 -55.807  1.00  0.00     0.246 C 
HETATM   11  C   UNL     1     -42.428  61.016 -56.974  1.00  0.00     0.062 C 
HETATM   12  C   UNL     1     -42.659  61.826 -58.242  1.00  0.00     0.020 C 
HETATM   13  C   UNL     1     -42.784  59.560 -57.192  1.00  0.00     0.020 A 
HETATM   14  C   UNL     1     -44.133  61.707 -58.595  1.00  0.00     0.031 C 
HETATM   15  C   UNL     1     -44.468  60.247 -58.910  1.00  0.00     0.138 C 
HETATM   16  C   UNL     1     -45.007  62.314 -57.495  1.00  0.00     0.241 C 
HETATM   17  N   UNL     1     -43.822  59.239 -58.071  1.00  0.00    -0.317 N 
HETATM   18  C   UNL     1     -44.229  57.915 -58.294  1.00  0.00     0.247 A 
HETATM   19  O   UNL     1     -45.152  57.600 -59.039  1.00  0.00    -0.268 OA
HETATM   20  C   UNL     1     -43.489  56.863 -57.555  1.00  0.00     0.074 A 
HETATM   21  C   UNL     1     -42.490  57.200 -56.733  1.00  0.00     0.007 A 
HETATM   22  C   UNL     1     -42.130  58.580 -56.544  1.00  0.00     0.026 A 
ENDBRANCH   7   8
ENDBRANCH   2   7
BRANCH   1  23
HETATM   23  O   UNL     1     -46.325  62.029 -53.366  1.00  0.00    -0.351 OA
BRANCH  23  24
HETATM   24  C   UNL     1     -45.738  63.201 -52.797  1.00  0.00     0.171 C 
HETATM   25  C   UNL     1     -45.914  64.335 -53.791  1.00  0.00     0.034 C 
ENDBRANCH  23  24
ENDBRANCH   1  23
BRANCH   4  26
HETATM   26  C   UNL     1     -43.883  56.990 -52.708  1.00  0.00     0.150 C 
HETATM   27  N   UNL     1     -42.677  56.885 -52.254  1.00  0.00    -0.184 NA
BRANCH  27  28
HETATM   28  N   UNL     1     -42.141  55.645 -52.180  1.00  0.00    -0.242 N 
HETATM   29  C   UNL     1     -41.123  55.284 -53.052  1.00  0.00     0.292 C 
HETATM   30  O   UNL     1     -40.653  56.022 -53.918  1.00  0.00    -0.264 OA
HETATM   31  H   UNL     1     -42.457  54.946 -51.509  1.00  0.00     0.192 HD
BRANCH  29  32
HETATM   32  C   UNL     1     -40.656  53.908 -52.836  1.00  0.00     0.148 A 
HETATM   33  N   UNL     1     -40.217  53.478 -51.636  1.00  0.00    -0.169 NA
HETATM   34  N   UNL     1     -39.896  52.188 -51.851  1.00  0.00    -0.281 N 
HETATM   35  H   UNL     1     -39.545  51.645 -51.068  1.00  0.00     0.189 HD
HETATM   36  C   UNL     1     -40.090  51.769 -53.143  1.00  0.00     0.038 A 
HETATM   37  C   UNL     1     -40.599  52.872 -53.798  1.00  0.00     0.066 A 
BRANCH  36  38
HETATM   38  C   UNL     1     -39.804  50.356 -53.609  1.00  0.00    -0.007 C 
HETATM   39  C   UNL     1     -40.977  49.858 -54.471  1.00  0.00     0.021 C 
HETATM   40  C   UNL     1     -38.515  50.313 -54.456  1.00  0.00     0.021 C 
HETATM   41  C   UNL     1     -39.612  49.405 -52.412  1.00  0.00     0.021 C 
ENDBRANCH  36  38
ENDBRANCH  29  32
ENDBRANCH  27  28
ENDBRANCH   4  26
TORSDOF 8
ENDMDL
MODEL 6
REMARK VINA RESULT:      -6.7      4.533      9.132
REMARK  8 active torsions:
REMARK  status: ('A' for Active; 'I' for Inactive)
REMARK    1  A    between atoms: C_2  and  O_3 
REMARK    2  A    between atoms: O_3  and  C_4 
REMARK    3  A    between atoms: C_5  and  C_6 
REMARK    4  A    between atoms: C_6  and  N_7 
REMARK    5  A    between atoms: C_23  and  C_24 
REMARK    6  A    between atoms: N_25  and  N_26 
REMARK       I    between atoms: N_26  and  C_27 
REMARK    7  A    between atoms: C_27  and  C_28 
REMARK    8  A    between atoms: C_32  and  C_33 
ROOT
HETATM    1  C   UNL     1     -45.857  60.851 -55.141  1.00  0.00     0.076 A 
HETATM    2  C   UNL     1     -45.455  59.862 -56.062  1.00  0.00     0.002 A 
HETATM    3  C   UNL     1     -44.813  58.721 -55.567  1.00  0.00     0.024 A 
HETATM    4  C   UNL     1     -44.635  58.522 -54.191  1.00  0.00    -0.016 A 
HETATM    5  C   UNL     1     -45.038  59.497 -53.288  1.00  0.00     0.016 A 
HETATM    6  C   UNL     1     -45.641  60.665 -53.768  1.00  0.00     0.038 A 
ENDROOT
BRANCH   2   7
HETATM    7  C   UNL     1     -45.674  60.089 -57.543  1.00  0.00     0.276 C 
BRANCH   7   8
HETATM    8  N   UNL     1     -44.714  61.048 -58.251  1.00  0.00    -0.066 N 
HETATM    9  H   UNL     1     -44.984  61.961 -57.866  1.00  0.00     0.280 HD
HETATM   10  C   UNL     1     -43.243  60.892 -57.888  1.00  0.00     0.246 C 
HETATM   11  C   UNL     1     -42.454  59.990 -58.855  1.00  0.00     0.062 C 
HETATM   12  C   UNL     1     -42.640  60.475 -60.286  1.00  0.00     0.020 C 
HETATM   13  C   UNL     1     -42.858  58.537 -58.721  1.00  0.00     0.020 A 
HETATM   14  C   UNL     1     -44.113  60.320 -60.630  1.00  0.00     0.031 C 
HETATM   15  C   UNL     1     -44.495  58.838 -60.589  1.00  0.00     0.138 C 
HETATM   16  C   UNL     1     -44.979  61.203 -59.727  1.00  0.00     0.241 C 
HETATM   17  N   UNL     1     -43.895  58.044 -59.518  1.00  0.00    -0.317 N 
HETATM   18  C   UNL     1     -44.345  56.719 -59.421  1.00  0.00     0.247 A 
HETATM   19  O   UNL     1     -45.270  56.262 -60.087  1.00  0.00    -0.268 OA
HETATM   20  C   UNL     1     -43.652  55.855 -58.435  1.00  0.00     0.074 A 
HETATM   21  C   UNL     1     -42.653  56.351 -57.699  1.00  0.00     0.007 A 
HETATM   22  C   UNL     1     -42.246  57.724 -57.842  1.00  0.00     0.026 A 
ENDBRANCH   7   8
ENDBRANCH   2   7
BRANCH   1  23
HETATM   23  O   UNL     1     -46.442  61.955 -55.701  1.00  0.00    -0.351 OA
BRANCH  23  24
HETATM   24  C   UNL     1     -46.213  63.222 -55.079  1.00  0.00     0.171 C 
HETATM   25  C   UNL     1     -44.849  63.715 -55.527  1.00  0.00     0.034 C 
ENDBRANCH  23  24
ENDBRANCH   1  23
BRANCH   4  26
HETATM   26  C   UNL     1     -44.059  57.239 -53.734  1.00  0.00     0.150 C 
HETATM   27  N   UNL     1     -42.912  56.883 -54.210  1.00  0.00    -0.184 NA
BRANCH  27  28
HETATM   28  N   UNL     1     -42.404  55.698 -53.799  1.00  0.00    -0.242 N 
HETATM   29  C   UNL     1     -41.059  55.419 -54.005  1.00  0.00     0.292 C 
HETATM   30  O   UNL     1     -40.264  56.184 -54.551  1.00  0.00    -0.264 OA
HETATM   31  H   UNL     1     -42.970  54.982 -53.345  1.00  0.00     0.192 HD
BRANCH  29  32
HETATM   32  C   UNL     1     -40.674  54.094 -53.500  1.00  0.00     0.148 A 
HETATM   33  N   UNL     1     -40.426  53.866 -52.195  1.00  0.00    -0.169 NA
HETATM   34  N   UNL     1     -40.121  52.555 -52.146  1.00  0.00    -0.281 N 
HETATM   35  H   UNL     1     -39.904  52.147 -51.242  1.00  0.00     0.189 HD
HETATM   36  C   UNL     1     -40.142  51.928 -53.367  1.00  0.00     0.038 A 
HETATM   37  C   UNL     1     -40.515  52.911 -54.261  1.00  0.00     0.066 A 
BRANCH  36  38
HETATM   38  C   UNL     1     -39.839  50.455 -53.548  1.00  0.00    -0.007 C 
HETATM   39  C   UNL     1     -39.755  49.780 -52.168  1.00  0.00     0.021 C 
HETATM   40  C   UNL     1     -40.951  49.768 -54.367  1.00  0.00     0.021 C 
HETATM   41  C   UNL     1     -38.508  50.250 -54.297  1.00  0.00     0.021 C 
ENDBRANCH  36  38
ENDBRANCH  29  32
ENDBRANCH  27  28
ENDBRANCH   4  26
TORSDOF 8
ENDMDL
MODEL 7
REMARK VINA RESULT:      -6.6      3.580      9.192
REMARK  8 active torsions:
REMARK  status: ('A' for Active; 'I' for Inactive)
REMARK    1  A    between atoms: C_2  and  O_3 
REMARK    2  A    between atoms: O_3  and  C_4 
REMARK    3  A    between atoms: C_5  and  C_6 
REMARK    4  A    between atoms: C_6  and  N_7 
REMARK    5  A    between atoms: C_23  and  C_24 
REMARK    6  A    between atoms: N_25  and  N_26 
REMARK       I    between atoms: N_26  and  C_27 
REMARK    7  A    between atoms: C_27  and  C_28 
REMARK    8  A    between atoms: C_32  and  C_33 
ROOT
HETATM    1  C   UNL     1     -42.306  54.298 -53.396  1.00  0.00     0.076 A 
HETATM    2  C   UNL     1     -42.653  55.664 -53.390  1.00  0.00     0.002 A 
HETATM    3  C   UNL     1     -42.963  56.272 -54.613  1.00  0.00     0.024 A 
HETATM    4  C   UNL     1     -43.001  55.537 -55.805  1.00  0.00    -0.016 A 
HETATM    5  C   UNL     1     -42.662  54.190 -55.805  1.00  0.00     0.016 A 
HETATM    6  C   UNL     1     -42.306  53.575 -54.599  1.00  0.00     0.038 A 
ENDROOT
BRANCH   2   7
HETATM    7  C   UNL     1     -42.624  56.435 -52.088  1.00  0.00     0.276 C 
BRANCH   7   8
HETATM    8  N   UNL     1     -41.249  56.829 -51.542  1.00  0.00    -0.066 N 
HETATM    9  H   UNL     1     -40.844  55.923 -51.279  1.00  0.00     0.280 HD
HETATM   10  C   UNL     1     -40.278  57.408 -52.561  1.00  0.00     0.246 C 
HETATM   11  C   UNL     1     -40.277  58.948 -52.618  1.00  0.00     0.062 C 
HETATM   12  C   UNL     1     -40.049  59.517 -51.225  1.00  0.00     0.020 C 
HETATM   13  C   UNL     1     -41.559  59.487 -53.218  1.00  0.00     0.020 A 
HETATM   14  C   UNL     1     -41.231  59.102 -50.365  1.00  0.00     0.031 C 
HETATM   15  C   UNL     1     -42.513  59.729 -50.918  1.00  0.00     0.138 C 
HETATM   16  C   UNL     1     -41.301  57.578 -50.233  1.00  0.00     0.241 C 
HETATM   17  N   UNL     1     -42.635  59.776 -52.374  1.00  0.00    -0.317 N 
HETATM   18  C   UNL     1     -43.863  60.244 -52.865  1.00  0.00     0.247 A 
HETATM   19  O   UNL     1     -44.835  60.483 -52.155  1.00  0.00    -0.268 OA
HETATM   20  C   UNL     1     -43.960  60.433 -54.332  1.00  0.00     0.074 A 
HETATM   21  C   UNL     1     -42.908  60.163 -55.112  1.00  0.00     0.007 A 
HETATM   22  C   UNL     1     -41.679  59.677 -54.544  1.00  0.00     0.026 A 
ENDBRANCH   7   8
ENDBRANCH   2   7
BRANCH   1  23
HETATM   23  O   UNL     1     -41.978  53.781 -52.172  1.00  0.00    -0.351 OA
BRANCH  23  24
HETATM   24  C   UNL     1     -40.652  53.279 -51.991  1.00  0.00     0.171 C 
HETATM   25  C   UNL     1     -40.416  53.124 -50.499  1.00  0.00     0.034 C 
ENDBRANCH  23  24
ENDBRANCH   1  23
BRANCH   4  26
HETATM   26  C   UNL     1     -43.453  56.217 -57.037  1.00  0.00     0.150 C 
HETATM   27  N   UNL     1     -42.903  57.344 -57.348  1.00  0.00    -0.184 NA
BRANCH  27  28
HETATM   28  N   UNL     1     -43.339  57.967 -58.467  1.00  0.00    -0.242 N 
HETATM   29  C   UNL     1     -42.643  59.063 -58.959  1.00  0.00     0.292 C 
HETATM   30  O   UNL     1     -41.629  59.533 -58.443  1.00  0.00    -0.264 OA
HETATM   31  H   UNL     1     -44.174  57.672 -58.973  1.00  0.00     0.192 HD
BRANCH  29  32
HETATM   32  C   UNL     1     -43.250  59.617 -60.177  1.00  0.00     0.148 A 
HETATM   33  N   UNL     1     -44.423  59.167 -60.664  1.00  0.00    -0.169 NA
HETATM   34  N   UNL     1     -44.631  59.923 -61.760  1.00  0.00    -0.281 N 
HETATM   35  H   UNL     1     -45.479  59.766 -62.295  1.00  0.00     0.189 HD
HETATM   36  C   UNL     1     -43.632  60.829 -62.015  1.00  0.00     0.038 A 
HETATM   37  C   UNL     1     -42.729  60.655 -60.986  1.00  0.00     0.066 A 
BRANCH  36  38
HETATM   38  C   UNL     1     -43.660  61.786 -63.189  1.00  0.00    -0.007 C 
HETATM   39  C   UNL     1     -42.381  61.601 -64.025  1.00  0.00     0.021 C 
HETATM   40  C   UNL     1     -44.882  61.508 -64.087  1.00  0.00     0.021 C 
HETATM   41  C   UNL     1     -43.748  63.248 -62.711  1.00  0.00     0.021 C 
ENDBRANCH  36  38
ENDBRANCH  29  32
ENDBRANCH  27  28
ENDBRANCH   4  26
TORSDOF 8
ENDMDL
MODEL 8
REMARK VINA RESULT:      -6.6      3.527      8.907
REMARK  8 active torsions:
REMARK  status: ('A' for Active; 'I' for Inactive)
REMARK    1  A    between atoms: C_2  and  O_3 
REMARK    2  A    between atoms: O_3  and  C_4 
REMARK    3  A    between atoms: C_5  and  C_6 
REMARK    4  A    between atoms: C_6  and  N_7 
REMARK    5  A    between atoms: C_23  and  C_24 
REMARK    6  A    between atoms: N_25  and  N_26 
REMARK       I    between atoms: N_26  and  C_27 
REMARK    7  A    between atoms: C_27  and  C_28 
REMARK    8  A    between atoms: C_32  and  C_33 
ROOT
HETATM    1  C   UNL     1     -42.020  54.152 -53.088  1.00  0.00     0.076 A 
HETATM    2  C   UNL     1     -42.530  55.464 -53.167  1.00  0.00     0.002 A 
HETATM    3  C   UNL     1     -42.946  55.936 -54.419  1.00  0.00     0.024 A 
HETATM    4  C   UNL     1     -42.929  55.112 -55.552  1.00  0.00    -0.016 A 
HETATM    5  C   UNL     1     -42.430  53.819 -55.467  1.00  0.00     0.016 A 
HETATM    6  C   UNL     1     -41.968  53.344 -54.234  1.00  0.00     0.038 A 
ENDROOT
BRANCH   2   7
HETATM    7  C   UNL     1     -42.558  56.331 -51.927  1.00  0.00     0.276 C 
BRANCH   7   8
HETATM    8  N   UNL     1     -41.212  56.838 -51.401  1.00  0.00    -0.066 N 
HETATM    9  H   UNL     1     -40.752  55.975 -51.091  1.00  0.00     0.280 HD
HETATM   10  C   UNL     1     -40.276  57.424 -52.450  1.00  0.00     0.246 C 
HETATM   11  C   UNL     1     -40.372  58.955 -52.587  1.00  0.00     0.062 C 
HETATM   12  C   UNL     1     -40.185  59.610 -51.225  1.00  0.00     0.020 C 
HETATM   13  C   UNL     1     -41.683  59.380 -53.215  1.00  0.00     0.020 A 
HETATM   14  C   UNL     1     -41.342  59.166 -50.345  1.00  0.00     0.031 C 
HETATM   15  C   UNL     1     -42.659  59.682 -50.931  1.00  0.00     0.138 C 
HETATM   16  C   UNL     1     -41.316  57.649 -50.134  1.00  0.00     0.241 C 
HETATM   17  N   UNL     1     -42.778  59.644 -52.388  1.00  0.00    -0.317 N 
HETATM   18  C   UNL     1     -44.031  60.008 -52.902  1.00  0.00     0.247 A 
HETATM   19  O   UNL     1     -45.019  60.222 -52.206  1.00  0.00    -0.268 OA
HETATM   20  C   UNL     1     -44.134  60.113 -54.378  1.00  0.00     0.074 A 
HETATM   21  C   UNL     1     -43.065  59.870 -55.142  1.00  0.00     0.007 A 
HETATM   22  C   UNL     1     -41.810  59.493 -54.548  1.00  0.00     0.026 A 
ENDBRANCH   7   8
ENDBRANCH   2   7
BRANCH   1  23
HETATM   23  O   UNL     1     -41.597  53.773 -51.842  1.00  0.00    -0.351 OA
BRANCH  23  24
HETATM   24  C   UNL     1     -40.239  53.352 -51.696  1.00  0.00     0.171 C 
HETATM   25  C   UNL     1     -39.790  53.717 -50.293  1.00  0.00     0.034 C 
ENDBRANCH  23  24
ENDBRANCH   1  23
BRANCH   4  26
HETATM   26  C   UNL     1     -43.496  55.637 -56.813  1.00  0.00     0.150 C 
HETATM   27  N   UNL     1     -43.843  56.881 -56.853  1.00  0.00    -0.184 NA
BRANCH  27  28
HETATM   28  N   UNL     1     -44.379  57.346 -58.005  1.00  0.00    -0.242 N 
HETATM   29  C   UNL     1     -45.504  58.158 -57.960  1.00  0.00     0.292 C 
HETATM   30  O   UNL     1     -46.076  58.501 -56.926  1.00  0.00    -0.264 OA
HETATM   31  H   UNL     1     -43.996  57.120 -58.922  1.00  0.00     0.192 HD
BRANCH  29  32
HETATM   32  C   UNL     1     -45.953  58.574 -59.296  1.00  0.00     0.148 A 
HETATM   33  N   UNL     1     -45.103  59.062 -60.221  1.00  0.00    -0.169 NA
HETATM   34  N   UNL     1     -45.889  59.310 -61.286  1.00  0.00    -0.281 N 
HETATM   35  H   UNL     1     -45.455  59.681 -62.126  1.00  0.00     0.189 HD
HETATM   36  C   UNL     1     -47.215  59.022 -61.084  1.00  0.00     0.038 A 
HETATM   37  C   UNL     1     -47.276  58.527 -59.797  1.00  0.00     0.066 A 
BRANCH  36  38
HETATM   38  C   UNL     1     -48.278  59.216 -62.146  1.00  0.00    -0.007 C 
HETATM   39  C   UNL     1     -48.692  57.844 -62.706  1.00  0.00     0.021 C 
HETATM   40  C   UNL     1     -49.523  59.904 -61.551  1.00  0.00     0.021 C 
HETATM   41  C   UNL     1     -47.757  60.099 -63.297  1.00  0.00     0.021 C 
ENDBRANCH  36  38
ENDBRANCH  29  32
ENDBRANCH  27  28
ENDBRANCH   4  26
TORSDOF 8
ENDMDL
MODEL 9
REMARK VINA RESULT:      -6.4      3.863      9.420
REMARK  8 active torsions:
REMARK  status: ('A' for Active; 'I' for Inactive)
REMARK    1  A    between atoms: C_2  and  O_3 
REMARK    2  A    between atoms: O_3  and  C_4 
REMARK    3  A    between atoms: C_5  and  C_6 
REMARK    4  A    between atoms: C_6  and  N_7 
REMARK    5  A    between atoms: C_23  and  C_24 
REMARK    6  A    between atoms: N_25  and  N_26 
REMARK       I    between atoms: N_26  and  C_27 
REMARK    7  A    between atoms: C_27  and  C_28 
REMARK    8  A    between atoms: C_32  and  C_33 
ROOT
HETATM    1  C   UNL     1     -41.250  55.706 -53.632  1.00  0.00     0.076 A 
HETATM    2  C   UNL     1     -41.794  56.947 -54.021  1.00  0.00     0.002 A 
HETATM    3  C   UNL     1     -42.406  57.035 -55.278  1.00  0.00     0.024 A 
HETATM    4  C   UNL     1     -42.545  55.910 -56.102  1.00  0.00    -0.016 A 
HETATM    5  C   UNL     1     -42.012  54.688 -55.712  1.00  0.00     0.016 A 
HETATM    6  C   UNL     1     -41.357  54.592 -54.478  1.00  0.00     0.038 A 
ENDROOT
BRANCH   2   7
HETATM    7  C   UNL     1     -41.649  58.145 -53.107  1.00  0.00     0.276 C 
BRANCH   7   8
HETATM    8  N   UNL     1     -42.355  58.076 -51.751  1.00  0.00    -0.066 N 
HETATM    9  H   UNL     1     -41.752  57.440 -51.216  1.00  0.00     0.280 HD
HETATM   10  C   UNL     1     -42.366  59.370 -50.949  1.00  0.00     0.246 C 
HETATM   11  C   UNL     1     -43.639  60.215 -51.144  1.00  0.00     0.062 C 
HETATM   12  C   UNL     1     -44.872  59.365 -50.871  1.00  0.00     0.020 C 
HETATM   13  C   UNL     1     -43.700  60.826 -52.528  1.00  0.00     0.020 A 
HETATM   14  C   UNL     1     -44.903  58.261 -51.916  1.00  0.00     0.031 C 
HETATM   15  C   UNL     1     -45.063  58.878 -53.308  1.00  0.00     0.138 C 
HETATM   16  C   UNL     1     -43.678  57.352 -51.784  1.00  0.00     0.241 C 
HETATM   17  N   UNL     1     -44.325  60.115 -53.557  1.00  0.00    -0.317 N 
HETATM   18  C   UNL     1     -44.387  60.603 -54.870  1.00  0.00     0.247 A 
HETATM   19  O   UNL     1     -44.905  59.994 -55.802  1.00  0.00    -0.268 OA
HETATM   20  C   UNL     1     -43.764  61.927 -55.114  1.00  0.00     0.074 A 
HETATM   21  C   UNL     1     -43.188  62.590 -54.106  1.00  0.00     0.007 A 
HETATM   22  C   UNL     1     -43.152  62.027 -52.783  1.00  0.00     0.026 A 
ENDBRANCH   7   8
ENDBRANCH   2   7
BRANCH   1  23
HETATM   23  O   UNL     1     -40.634  55.706 -52.410  1.00  0.00    -0.351 OA
BRANCH  23  24
HETATM   24  C   UNL     1     -41.044  54.725 -51.453  1.00  0.00     0.171 C 
HETATM   25  C   UNL     1     -40.675  55.243 -50.074  1.00  0.00     0.034 C 
ENDBRANCH  23  24
ENDBRANCH   1  23
BRANCH   4  26
HETATM   26  C   UNL     1     -43.309  56.050 -57.360  1.00  0.00     0.150 C 
HETATM   27  N   UNL     1     -44.199  56.983 -57.432  1.00  0.00    -0.184 NA
BRANCH  27  28
HETATM   28  N   UNL     1     -44.906  57.089 -58.581  1.00  0.00    -0.242 N 
HETATM   29  C   UNL     1     -46.207  57.570 -58.545  1.00  0.00     0.292 C 
HETATM   30  O   UNL     1     -46.794  57.918 -57.521  1.00  0.00    -0.264 OA
HETATM   31  H   UNL     1     -44.527  56.820 -59.489  1.00  0.00     0.192 HD
BRANCH  29  32
HETATM   32  C   UNL     1     -46.827  57.621 -59.876  1.00  0.00     0.148 A 
HETATM   33  N   UNL     1     -46.828  56.562 -60.710  1.00  0.00    -0.169 NA
HETATM   34  N   UNL     1     -47.487  57.006 -61.798  1.00  0.00    -0.281 N 
HETATM   35  H   UNL     1     -47.623  56.362 -62.571  1.00  0.00     0.189 HD
HETATM   36  C   UNL     1     -47.895  58.313 -61.712  1.00  0.00     0.038 A 
HETATM   37  C   UNL     1     -47.488  58.728 -60.462  1.00  0.00     0.066 A 
BRANCH  36  38
HETATM   38  C   UNL     1     -48.660  59.017 -62.815  1.00  0.00    -0.007 C 
HETATM   39  C   UNL     1     -49.066  57.991 -63.886  1.00  0.00     0.021 C 
HETATM   40  C   UNL     1     -49.935  59.679 -62.255  1.00  0.00     0.021 C 
HETATM   41  C   UNL     1     -47.803  60.121 -63.467  1.00  0.00     0.021 C 
ENDBRANCH  36  38
ENDBRANCH  29  32
ENDBRANCH  27  28
ENDBRANCH   4  26
TORSDOF 8
ENDMDL
MODEL 10
REMARK VINA RESULT:      -6.1      4.590      8.771
REMARK  8 active torsions:
REMARK  status: ('A' for Active; 'I' for Inactive)
REMARK    1  A    between atoms: C_2  and  O_3 
REMARK    2  A    between atoms: O_3  and  C_4 
REMARK    3  A    between atoms: C_5  and  C_6 
REMARK    4  A    between atoms: C_6  and  N_7 
REMARK    5  A    between atoms: C_23  and  C_24 
REMARK    6  A    between atoms: N_25  and  N_26 
REMARK       I    between atoms: N_26  and  C_27 
REMARK    7  A    between atoms: C_27  and  C_28 
REMARK    8  A    between atoms: C_32  and  C_33 
ROOT
HETATM    1  C   UNL     1     -39.903  52.200 -52.807  1.00  0.00     0.076 A 
HETATM    2  C   UNL     1     -40.287  53.549 -52.661  1.00  0.00     0.002 A 
HETATM    3  C   UNL     1     -40.579  54.281 -53.819  1.00  0.00     0.024 A 
HETATM    4  C   UNL     1     -40.565  53.681 -55.085  1.00  0.00    -0.016 A 
HETATM    5  C   UNL     1     -40.191  52.351 -55.222  1.00  0.00     0.016 A 
HETATM    6  C   UNL     1     -39.851  51.615 -54.081  1.00  0.00     0.038 A 
ENDROOT
BRANCH   2   7
HETATM    7  C   UNL     1     -40.314  54.173 -51.282  1.00  0.00     0.276 C 
BRANCH   7   8
HETATM    8  N   UNL     1     -41.641  54.123 -50.521  1.00  0.00    -0.066 N 
HETATM    9  H   UNL     1     -41.578  53.230 -50.018  1.00  0.00     0.280 HD
HETATM   10  C   UNL     1     -41.813  55.172 -49.431  1.00  0.00     0.246 C 
HETATM   11  C   UNL     1     -42.561  56.437 -49.895  1.00  0.00     0.062 C 
HETATM   12  C   UNL     1     -43.889  56.050 -50.529  1.00  0.00     0.020 C 
HETATM   13  C   UNL     1     -41.726  57.262 -50.851  1.00  0.00     0.020 A 
HETATM   14  C   UNL     1     -43.578  55.233 -51.772  1.00  0.00     0.031 C 
HETATM   15  C   UNL     1     -42.818  56.101 -52.779  1.00  0.00     0.138 C 
HETATM   16  C   UNL     1     -42.849  53.938 -51.405  1.00  0.00     0.241 C 
HETATM   17  N   UNL     1     -41.822  57.015 -52.223  1.00  0.00    -0.317 N 
HETATM   18  C   UNL     1     -41.053  57.717 -53.163  1.00  0.00     0.247 A 
HETATM   19  O   UNL     1     -41.094  57.508 -54.372  1.00  0.00    -0.268 OA
HETATM   20  C   UNL     1     -40.135  58.751 -52.627  1.00  0.00     0.074 A 
HETATM   21  C   UNL     1     -40.076  58.975 -51.311  1.00  0.00     0.007 A 
HETATM   22  C   UNL     1     -40.888  58.213 -50.400  1.00  0.00     0.026 A 
ENDBRANCH   7   8
ENDBRANCH   2   7
BRANCH   1  23
HETATM   23  O   UNL     1     -39.594  51.560 -51.637  1.00  0.00    -0.351 OA
BRANCH  23  24
HETATM   24  C   UNL     1     -39.467  50.137 -51.667  1.00  0.00     0.171 C 
HETATM   25  C   UNL     1     -39.960  49.601 -50.334  1.00  0.00     0.034 C 
ENDBRANCH  23  24
ENDBRANCH   1  23
BRANCH   4  26
HETATM   26  C   UNL     1     -41.002  54.482 -56.248  1.00  0.00     0.150 C 
HETATM   27  N   UNL     1     -42.141  55.089 -56.177  1.00  0.00    -0.184 NA
BRANCH  27  28
HETATM   28  N   UNL     1     -42.539  55.803 -57.255  1.00  0.00    -0.242 N 
HETATM   29  C   UNL     1     -43.497  56.796 -57.105  1.00  0.00     0.292 C 
HETATM   30  O   UNL     1     -44.035  57.090 -56.038  1.00  0.00    -0.264 OA
HETATM   31  H   UNL     1     -42.170  55.640 -58.192  1.00  0.00     0.192 HD
BRANCH  29  32
HETATM   32  C   UNL     1     -43.812  57.472 -58.371  1.00  0.00     0.148 A 
HETATM   33  N   UNL     1     -43.945  56.799 -59.531  1.00  0.00    -0.169 NA
HETATM   34  N   UNL     1     -44.236  57.758 -60.432  1.00  0.00    -0.281 N 
HETATM   35  H   UNL     1     -44.394  57.479 -61.395  1.00  0.00     0.189 HD
HETATM   36  C   UNL     1     -44.277  59.026 -59.908  1.00  0.00     0.038 A 
HETATM   37  C   UNL     1     -44.018  58.859 -58.563  1.00  0.00     0.066 A 
BRANCH  36  38
HETATM   38  C   UNL     1     -44.593  60.255 -60.735  1.00  0.00    -0.007 C 
HETATM   39  C   UNL     1     -44.579  61.496 -59.825  1.00  0.00     0.021 C 
HETATM   40  C   UNL     1     -43.543  60.446 -61.848  1.00  0.00     0.021 C 
HETATM   41  C   UNL     1     -45.975  60.133 -61.406  1.00  0.00     0.021 C 
ENDBRANCH  36  38
ENDBRANCH  29  32
ENDBRANCH  27  28
ENDBRANCH   4  26
TORSDOF 8
ENDMDL
