MODEL 1
REMARK VINA RESULT:      -8.0      0.000      0.000
REMARK  4 active torsions:
REMARK  status: ('A' for Active; 'I' for Inactive)
REMARK    1  A    between atoms: C_3  and  N_4 
REMARK       I    between atoms: N_4  and  C_5 
REMARK    2  A    between atoms: C_5  and  C_6 
REMARK    3  A    between atoms: C_6  and  C_7 
REMARK    4  A    between atoms: C_10  and  O_11 
ROOT
HETATM    1  N   UNL     1     -41.161  55.385 -51.843  1.00  0.00    -0.326 N 
HETATM    2  C   UNL     1     -41.243  54.299 -50.984  1.00  0.00     0.226 C 
HETATM    3  O   UNL     1     -42.194  53.998 -50.270  1.00  0.00    -0.273 OA
HETATM    4  H   UNL     1     -40.312  55.443 -52.387  1.00  0.00     0.169 HD
ENDROOT
BRANCH   1   5
HETATM    5  C   UNL     1     -42.130  56.402 -52.068  1.00  0.00     0.047 A 
HETATM    6  C   UNL     1     -43.254  56.170 -52.869  1.00  0.00     0.030 A 
HETATM    7  C   UNL     1     -44.196  57.172 -53.080  1.00  0.00     0.005 A 
HETATM    8  C   UNL     1     -44.024  58.417 -52.488  1.00  0.00     0.032 A 
HETATM    9  C   UNL     1     -42.933  58.695 -51.685  1.00  0.00     0.069 A 
HETATM   10  C   UNL     1     -41.960  57.689 -51.461  1.00  0.00     0.019 A 
HETATM   11  N   UNL     1     -42.865  59.928 -51.154  1.00  0.00    -0.260 NA
HETATM   12  C   UNL     1     -40.882  58.065 -50.621  1.00  0.00     0.017 A 
HETATM   13  C   UNL     1     -40.809  59.341 -50.068  1.00  0.00     0.020 A 
HETATM   14  C   UNL     1     -41.818  60.230 -50.363  1.00  0.00     0.117 A 
ENDBRANCH   1   5
BRANCH   2  15
HETATM   15  C   UNL     1     -39.980  53.449 -50.980  1.00  0.00     0.141 C 
BRANCH  15  16
HETATM   16  C   UNL     1     -39.922  52.374 -52.042  1.00  0.00    -0.049 A 
HETATM   17  C   UNL     1     -39.569  51.066 -51.668  1.00  0.00     0.010 A 
HETATM   18  C   UNL     1     -39.567  50.027 -52.603  1.00  0.00     0.037 A 
HETATM   19  C   UNL     1     -39.925  50.294 -53.919  1.00  0.00     0.065 A 
HETATM   20  C   UNL     1     -40.286  51.576 -54.310  1.00  0.00     0.037 A 
HETATM   21  C   UNL     1     -40.297  52.612 -53.373  1.00  0.00     0.010 A 
BRANCH  19  22
HETATM   22  O   UNL     1     -39.947  49.312 -54.864  1.00  0.00    -0.361 OA
HETATM   23  H   UNL     1     -39.533  49.651 -55.675  1.00  0.00     0.217 HD
ENDBRANCH  19  22
ENDBRANCH  15  16
ENDBRANCH   2  15
TORSDOF 4
ENDMDL
MODEL 2
REMARK VINA RESULT:      -7.8      3.988      6.658
REMARK  4 active torsions:
REMARK  status: ('A' for Active; 'I' for Inactive)
REMARK    1  A    between atoms: C_3  and  N_4 
REMARK       I    between atoms: N_4  and  C_5 
REMARK    2  A    between atoms: C_5  and  C_6 
REMARK    3  A    between atoms: C_6  and  C_7 
REMARK    4  A    between atoms: C_10  and  O_11 
ROOT
HETATM    1  N   UNL     1     -41.695  55.245 -54.318  1.00  0.00    -0.326 N 
HETATM    2  C   UNL     1     -43.039  55.410 -54.620  1.00  0.00     0.226 C 
HETATM    3  O   UNL     1     -43.938  54.596 -54.434  1.00  0.00    -0.273 OA
HETATM    4  H   UNL     1     -41.110  56.047 -54.500  1.00  0.00     0.169 HD
ENDROOT
BRANCH   1   5
HETATM    5  C   UNL     1     -41.054  54.103 -53.764  1.00  0.00     0.047 A 
HETATM    6  C   UNL     1     -40.533  53.093 -54.581  1.00  0.00     0.030 A 
HETATM    7  C   UNL     1     -39.907  51.982 -54.028  1.00  0.00     0.005 A 
HETATM    8  C   UNL     1     -39.792  51.870 -52.647  1.00  0.00     0.032 A 
HETATM    9  C   UNL     1     -40.287  52.841 -51.796  1.00  0.00     0.069 A 
HETATM   10  C   UNL     1     -40.932  53.980 -52.340  1.00  0.00     0.019 A 
HETATM   11  N   UNL     1     -40.117  52.641 -50.478  1.00  0.00    -0.260 NA
HETATM   12  C   UNL     1     -41.400  54.923 -51.391  1.00  0.00     0.017 A 
HETATM   13  C   UNL     1     -41.226  54.719 -50.025  1.00  0.00     0.020 A 
HETATM   14  C   UNL     1     -40.582  53.571 -49.622  1.00  0.00     0.117 A 
ENDBRANCH   1   5
BRANCH   2  15
HETATM   15  C   UNL     1     -43.344  56.762 -55.249  1.00  0.00     0.141 C 
BRANCH  15  16
HETATM   16  C   UNL     1     -43.006  56.883 -56.718  1.00  0.00    -0.049 A 
HETATM   17  C   UNL     1     -42.394  58.060 -57.181  1.00  0.00     0.010 A 
HETATM   18  C   UNL     1     -42.004  58.189 -58.517  1.00  0.00     0.037 A 
HETATM   19  C   UNL     1     -42.221  57.134 -59.396  1.00  0.00     0.065 A 
HETATM   20  C   UNL     1     -42.815  55.958 -58.958  1.00  0.00     0.037 A 
HETATM   21  C   UNL     1     -43.196  55.826 -57.621  1.00  0.00     0.010 A 
BRANCH  19  22
HETATM   22  O   UNL     1     -41.849  57.209 -60.705  1.00  0.00    -0.361 OA
HETATM   23  H   UNL     1     -42.006  56.346 -61.123  1.00  0.00     0.217 HD
ENDBRANCH  19  22
ENDBRANCH  15  16
ENDBRANCH   2  15
TORSDOF 4
ENDMDL
MODEL 3
REMARK VINA RESULT:      -7.7      2.703      3.810
REMARK  4 active torsions:
REMARK  status: ('A' for Active; 'I' for Inactive)
REMARK    1  A    between atoms: C_3  and  N_4 
REMARK       I    between atoms: N_4  and  C_5 
REMARK    2  A    between atoms: C_5  and  C_6 
REMARK    3  A    between atoms: C_6  and  C_7 
REMARK    4  A    between atoms: C_10  and  O_11 
ROOT
HETATM    1  N   UNL     1     -40.918  56.053 -53.167  1.00  0.00    -0.326 N 
HETATM    2  C   UNL     1     -41.648  55.216 -52.337  1.00  0.00     0.226 C 
HETATM    3  O   UNL     1     -42.864  55.227 -52.168  1.00  0.00    -0.273 OA
HETATM    4  H   UNL     1     -39.928  55.862 -53.211  1.00  0.00     0.169 HD
ENDROOT
BRANCH   1   5
HETATM    5  C   UNL     1     -41.396  57.120 -53.977  1.00  0.00     0.047 A 
HETATM    6  C   UNL     1     -41.252  58.455 -53.580  1.00  0.00     0.030 A 
HETATM    7  C   UNL     1     -41.722  59.490 -54.381  1.00  0.00     0.005 A 
HETATM    8  C   UNL     1     -42.338  59.201 -55.593  1.00  0.00     0.032 A 
HETATM    9  C   UNL     1     -42.502  57.900 -56.032  1.00  0.00     0.069 A 
HETATM   10  C   UNL     1     -42.034  56.830 -55.228  1.00  0.00     0.019 A 
HETATM   11  N   UNL     1     -43.104  57.729 -57.221  1.00  0.00    -0.260 NA
HETATM   12  C   UNL     1     -42.240  55.534 -55.763  1.00  0.00     0.017 A 
HETATM   13  C   UNL     1     -42.863  55.353 -56.996  1.00  0.00     0.020 A 
HETATM   14  C   UNL     1     -43.274  56.474 -57.681  1.00  0.00     0.117 A 
ENDBRANCH   1   5
BRANCH   2  15
HETATM   15  C   UNL     1     -40.778  54.216 -51.589  1.00  0.00     0.141 C 
BRANCH  15  16
HETATM   16  C   UNL     1     -40.417  52.967 -52.363  1.00  0.00    -0.049 A 
HETATM   17  C   UNL     1     -39.762  51.918 -51.695  1.00  0.00     0.010 A 
HETATM   18  C   UNL     1     -39.469  50.721 -52.354  1.00  0.00     0.037 A 
HETATM   19  C   UNL     1     -39.837  50.566 -53.685  1.00  0.00     0.065 A 
HETATM   20  C   UNL     1     -40.494  51.585 -54.362  1.00  0.00     0.037 A 
HETATM   21  C   UNL     1     -40.795  52.778 -53.701  1.00  0.00     0.010 A 
BRANCH  19  22
HETATM   22  O   UNL     1     -39.582  49.413 -54.365  1.00  0.00    -0.361 OA
HETATM   23  H   UNL     1     -40.301  48.783 -54.191  1.00  0.00     0.217 HD
ENDBRANCH  19  22
ENDBRANCH  15  16
ENDBRANCH   2  15
TORSDOF 4
ENDMDL
MODEL 4
REMARK VINA RESULT:      -7.7      1.971      2.662
REMARK  4 active torsions:
REMARK  status: ('A' for Active; 'I' for Inactive)
REMARK    1  A    between atoms: C_3  and  N_4 
REMARK       I    between atoms: N_4  and  C_5 
REMARK    2  A    between atoms: C_5  and  C_6 
REMARK    3  A    between atoms: C_6  and  C_7 
REMARK    4  A    between atoms: C_10  and  O_11 
ROOT
HETATM    1  N   UNL     1     -42.136  54.309 -54.206  1.00  0.00    -0.326 N 
HETATM    2  C   UNL     1     -40.854  54.149 -54.710  1.00  0.00     0.226 C 
HETATM    3  O   UNL     1     -40.027  55.034 -54.908  1.00  0.00    -0.273 OA
HETATM    4  H   UNL     1     -42.656  53.454 -54.069  1.00  0.00     0.169 HD
ENDROOT
BRANCH   1   5
HETATM    5  C   UNL     1     -42.790  55.517 -53.837  1.00  0.00     0.047 A 
HETATM    6  C   UNL     1     -43.851  56.030 -54.594  1.00  0.00     0.030 A 
HETATM    7  C   UNL     1     -44.484  57.211 -54.222  1.00  0.00     0.005 A 
HETATM    8  C   UNL     1     -44.063  57.892 -53.086  1.00  0.00     0.032 A 
HETATM    9  C   UNL     1     -43.023  57.426 -52.303  1.00  0.00     0.069 A 
HETATM   10  C   UNL     1     -42.362  56.226 -52.667  1.00  0.00     0.019 A 
HETATM   11  N   UNL     1     -42.699  58.155 -51.221  1.00  0.00    -0.260 NA
HETATM   12  C   UNL     1     -41.313  55.825 -51.802  1.00  0.00     0.017 A 
HETATM   13  C   UNL     1     -40.976  56.578 -50.680  1.00  0.00     0.020 A 
HETATM   14  C   UNL     1     -41.694  57.726 -50.435  1.00  0.00     0.117 A 
ENDBRANCH   1   5
BRANCH   2  15
HETATM   15  C   UNL     1     -40.520  52.699 -55.033  1.00  0.00     0.141 C 
BRANCH  15  16
HETATM   16  C   UNL     1     -40.196  51.830 -53.839  1.00  0.00    -0.049 A 
HETATM   17  C   UNL     1     -39.997  50.452 -54.034  1.00  0.00     0.010 A 
HETATM   18  C   UNL     1     -39.632  49.622 -52.971  1.00  0.00     0.037 A 
HETATM   19  C   UNL     1     -39.457  50.170 -51.706  1.00  0.00     0.065 A 
HETATM   20  C   UNL     1     -39.638  51.530 -51.492  1.00  0.00     0.037 A 
HETATM   21  C   UNL     1     -39.995  52.361 -52.556  1.00  0.00     0.010 A 
BRANCH  19  22
HETATM   22  O   UNL     1     -39.090  49.403 -50.641  1.00  0.00    -0.361 OA
HETATM   23  H   UNL     1     -39.610  48.582 -50.655  1.00  0.00     0.217 HD
ENDBRANCH  19  22
ENDBRANCH  15  16
ENDBRANCH   2  15
TORSDOF 4
ENDMDL
MODEL 5
REMARK VINA RESULT:      -7.7      4.047      7.051
REMARK  4 active torsions:
REMARK  status: ('A' for Active; 'I' for Inactive)
REMARK    1  A    between atoms: C_3  and  N_4 
REMARK       I    between atoms: N_4  and  C_5 
REMARK    2  A    between atoms: C_5  and  C_6 
REMARK    3  A    between atoms: C_6  and  C_7 
REMARK    4  A    between atoms: C_10  and  O_11 
ROOT
HETATM    1  N   UNL     1     -42.412  55.164 -53.664  1.00  0.00    -0.326 N 
HETATM    2  C   UNL     1     -42.246  56.380 -54.310  1.00  0.00     0.226 C 
HETATM    3  O   UNL     1     -41.325  57.175 -54.151  1.00  0.00    -0.273 OA
HETATM    4  H   UNL     1     -43.211  54.623 -53.961  1.00  0.00     0.169 HD
ENDROOT
BRANCH   1   5
HETATM    5  C   UNL     1     -41.586  54.581 -52.663  1.00  0.00     0.047 A 
HETATM    6  C   UNL     1     -41.432  55.182 -51.408  1.00  0.00     0.030 A 
HETATM    7  C   UNL     1     -40.623  54.602 -50.437  1.00  0.00     0.005 A 
HETATM    8  C   UNL     1     -39.961  53.411 -50.710  1.00  0.00     0.032 A 
HETATM    9  C   UNL     1     -40.083  52.776 -51.933  1.00  0.00     0.069 A 
HETATM   10  C   UNL     1     -40.900  53.353 -52.938  1.00  0.00     0.019 A 
HETATM   11  N   UNL     1     -39.408  51.625 -52.093  1.00  0.00    -0.260 NA
HETATM   12  C   UNL     1     -40.968  52.628 -54.154  1.00  0.00     0.017 A 
HETATM   13  C   UNL     1     -40.270  51.435 -54.322  1.00  0.00     0.020 A 
HETATM   14  C   UNL     1     -39.509  50.979 -53.269  1.00  0.00     0.117 A 
ENDBRANCH   1   5
BRANCH   2  15
HETATM   15  C   UNL     1     -43.366  56.688 -55.293  1.00  0.00     0.141 C 
BRANCH  15  16
HETATM   16  C   UNL     1     -42.937  56.840 -56.735  1.00  0.00    -0.049 A 
HETATM   17  C   UNL     1     -43.132  55.765 -57.620  1.00  0.00     0.010 A 
HETATM   18  C   UNL     1     -42.810  55.884 -58.975  1.00  0.00     0.037 A 
HETATM   19  C   UNL     1     -42.297  57.084 -59.452  1.00  0.00     0.065 A 
HETATM   20  C   UNL     1     -42.105  58.162 -58.599  1.00  0.00     0.037 A 
HETATM   21  C   UNL     1     -42.435  58.046 -57.246  1.00  0.00     0.010 A 
BRANCH  19  22
HETATM   22  O   UNL     1     -41.979  57.250 -60.767  1.00  0.00    -0.361 OA
HETATM   23  H   UNL     1     -41.012  57.270 -60.853  1.00  0.00     0.217 HD
ENDBRANCH  19  22
ENDBRANCH  15  16
ENDBRANCH   2  15
TORSDOF 4
ENDMDL
MODEL 6
REMARK VINA RESULT:      -7.7      3.536      7.626
REMARK  4 active torsions:
REMARK  status: ('A' for Active; 'I' for Inactive)
REMARK    1  A    between atoms: C_3  and  N_4 
REMARK       I    between atoms: N_4  and  C_5 
REMARK    2  A    between atoms: C_5  and  C_6 
REMARK    3  A    between atoms: C_6  and  C_7 
REMARK    4  A    between atoms: C_10  and  O_11 
ROOT
HETATM    1  N   UNL     1     -41.234  54.407 -54.422  1.00  0.00    -0.326 N 
HETATM    2  C   UNL     1     -42.532  54.708 -54.809  1.00  0.00     0.226 C 
HETATM    3  O   UNL     1     -43.556  54.500 -54.166  1.00  0.00    -0.273 OA
HETATM    4  H   UNL     1     -40.513  54.696 -55.067  1.00  0.00     0.169 HD
ENDROOT
BRANCH   1   5
HETATM    5  C   UNL     1     -40.800  53.770 -53.226  1.00  0.00     0.047 A 
HETATM    6  C   UNL     1     -40.778  54.454 -52.005  1.00  0.00     0.030 A 
HETATM    7  C   UNL     1     -40.353  53.820 -50.842  1.00  0.00     0.005 A 
HETATM    8  C   UNL     1     -39.948  52.492 -50.889  1.00  0.00     0.032 A 
HETATM    9  C   UNL     1     -39.954  51.771 -52.069  1.00  0.00     0.069 A 
HETATM   10  C   UNL     1     -40.380  52.400 -53.266  1.00  0.00     0.019 A 
HETATM   11  N   UNL     1     -39.551  50.490 -52.004  1.00  0.00    -0.260 NA
HETATM   12  C   UNL     1     -40.358  51.581 -54.422  1.00  0.00     0.017 A 
HETATM   13  C   UNL     1     -39.941  50.253 -54.358  1.00  0.00     0.020 A 
HETATM   14  C   UNL     1     -39.551  49.759 -53.134  1.00  0.00     0.117 A 
ENDBRANCH   1   5
BRANCH   2  15
HETATM   15  C   UNL     1     -42.606  55.351 -56.186  1.00  0.00     0.141 C 
BRANCH  15  16
HETATM   16  C   UNL     1     -42.346  56.841 -56.218  1.00  0.00    -0.049 A 
HETATM   17  C   UNL     1     -42.379  57.511 -57.453  1.00  0.00     0.010 A 
HETATM   18  C   UNL     1     -42.210  58.897 -57.522  1.00  0.00     0.037 A 
HETATM   19  C   UNL     1     -42.013  59.620 -56.352  1.00  0.00     0.065 A 
HETATM   20  C   UNL     1     -41.986  58.980 -55.120  1.00  0.00     0.037 A 
HETATM   21  C   UNL     1     -42.164  57.597 -55.050  1.00  0.00     0.010 A 
BRANCH  19  22
HETATM   22  O   UNL     1     -41.853  60.973 -56.368  1.00  0.00    -0.361 OA
HETATM   23  H   UNL     1     -41.580  61.244 -57.261  1.00  0.00     0.217 HD
ENDBRANCH  19  22
ENDBRANCH  15  16
ENDBRANCH   2  15
TORSDOF 4
ENDMDL
MODEL 7
REMARK VINA RESULT:      -7.7      4.196      5.520
REMARK  4 active torsions:
REMARK  status: ('A' for Active; 'I' for Inactive)
REMARK    1  A    between atoms: C_3  and  N_4 
REMARK       I    between atoms: N_4  and  C_5 
REMARK    2  A    between atoms: C_5  and  C_6 
REMARK    3  A    between atoms: C_6  and  C_7 
REMARK    4  A    between atoms: C_10  and  O_11 
ROOT
HETATM    1  N   UNL     1     -41.771  55.802 -55.991  1.00  0.00    -0.326 N 
HETATM    2  C   UNL     1     -41.749  54.534 -55.429  1.00  0.00     0.226 C 
HETATM    3  O   UNL     1     -42.720  53.857 -55.106  1.00  0.00    -0.273 OA
HETATM    4  H   UNL     1     -40.868  56.183 -56.233  1.00  0.00     0.169 HD
ENDROOT
BRANCH   1   5
HETATM    5  C   UNL     1     -42.903  56.611 -56.287  1.00  0.00     0.047 A 
HETATM    6  C   UNL     1     -43.528  57.377 -55.297  1.00  0.00     0.030 A 
HETATM    7  C   UNL     1     -44.633  58.165 -55.599  1.00  0.00     0.005 A 
HETATM    8  C   UNL     1     -45.123  58.198 -56.899  1.00  0.00     0.032 A 
HETATM    9  C   UNL     1     -44.539  57.462 -57.914  1.00  0.00     0.069 A 
HETATM   10  C   UNL     1     -43.415  56.649 -57.626  1.00  0.00     0.019 A 
HETATM   11  N   UNL     1     -45.086  57.570 -59.138  1.00  0.00    -0.260 NA
HETATM   12  C   UNL     1     -42.882  55.938 -58.730  1.00  0.00     0.017 A 
HETATM   13  C   UNL     1     -43.445  56.048 -59.999  1.00  0.00     0.020 A 
HETATM   14  C   UNL     1     -44.537  56.871 -60.150  1.00  0.00     0.117 A 
ENDBRANCH   1   5
BRANCH   2  15
HETATM   15  C   UNL     1     -40.337  54.003 -55.218  1.00  0.00     0.141 C 
BRANCH  15  16
HETATM   16  C   UNL     1     -40.182  53.012 -54.086  1.00  0.00    -0.049 A 
HETATM   17  C   UNL     1     -39.886  51.673 -54.389  1.00  0.00     0.010 A 
HETATM   18  C   UNL     1     -39.669  50.738 -53.373  1.00  0.00     0.037 A 
HETATM   19  C   UNL     1     -39.743  51.142 -52.046  1.00  0.00     0.065 A 
HETATM   20  C   UNL     1     -40.025  52.463 -51.723  1.00  0.00     0.037 A 
HETATM   21  C   UNL     1     -40.232  53.399 -52.738  1.00  0.00     0.010 A 
BRANCH  19  22
HETATM   22  O   UNL     1     -39.529  50.269 -51.022  1.00  0.00    -0.361 OA
HETATM   23  H   UNL     1     -40.179  50.446 -50.321  1.00  0.00     0.217 HD
ENDBRANCH  19  22
ENDBRANCH  15  16
ENDBRANCH   2  15
TORSDOF 4
ENDMDL
MODEL 8
REMARK VINA RESULT:      -7.6      2.475      7.562
REMARK  4 active torsions:
REMARK  status: ('A' for Active; 'I' for Inactive)
REMARK    1  A    between atoms: C_3  and  N_4 
REMARK       I    between atoms: N_4  and  C_5 
REMARK    2  A    between atoms: C_5  and  C_6 
REMARK    3  A    between atoms: C_6  and  C_7 
REMARK    4  A    between atoms: C_10  and  O_11 
ROOT
HETATM    1  N   UNL     1     -40.972  53.937 -52.245  1.00  0.00    -0.326 N 
HETATM    2  C   UNL     1     -42.235  54.509 -52.233  1.00  0.00     0.226 C 
HETATM    3  O   UNL     1     -43.250  54.037 -51.732  1.00  0.00    -0.273 OA
HETATM    4  H   UNL     1     -40.246  54.499 -52.666  1.00  0.00     0.169 HD
ENDROOT
BRANCH   1   5
HETATM    5  C   UNL     1     -40.574  52.677 -51.717  1.00  0.00     0.047 A 
HETATM    6  C   UNL     1     -40.563  52.437 -50.338  1.00  0.00     0.030 A 
HETATM    7  C   UNL     1     -40.174  51.201 -49.834  1.00  0.00     0.005 A 
HETATM    8  C   UNL     1     -39.794  50.188 -50.706  1.00  0.00     0.032 A 
HETATM    9  C   UNL     1     -39.791  50.373 -52.077  1.00  0.00     0.069 A 
HETATM   10  C   UNL     1     -40.180  51.627 -52.610  1.00  0.00     0.019 A 
HETATM   11  N   UNL     1     -39.414  49.327 -52.832  1.00  0.00    -0.260 NA
HETATM   12  C   UNL     1     -40.150  51.720 -54.024  1.00  0.00     0.017 A 
HETATM   13  C   UNL     1     -39.761  50.638 -54.810  1.00  0.00     0.020 A 
HETATM   14  C   UNL     1     -39.405  49.472 -54.171  1.00  0.00     0.117 A 
ENDBRANCH   1   5
BRANCH   2  15
HETATM   15  C   UNL     1     -42.282  55.856 -52.941  1.00  0.00     0.141 C 
BRANCH  15  16
HETATM   16  C   UNL     1     -41.369  56.919 -52.370  1.00  0.00    -0.049 A 
HETATM   17  C   UNL     1     -40.670  57.761 -53.252  1.00  0.00     0.010 A 
HETATM   18  C   UNL     1     -39.868  58.798 -52.768  1.00  0.00     0.037 A 
HETATM   19  C   UNL     1     -39.766  59.000 -51.397  1.00  0.00     0.065 A 
HETATM   20  C   UNL     1     -40.455  58.187 -50.508  1.00  0.00     0.037 A 
HETATM   21  C   UNL     1     -41.264  57.156 -50.991  1.00  0.00     0.010 A 
BRANCH  19  22
HETATM   22  O   UNL     1     -39.004  60.005 -50.880  1.00  0.00    -0.361 OA
HETATM   23  H   UNL     1     -39.338  60.224 -49.994  1.00  0.00     0.217 HD
ENDBRANCH  19  22
ENDBRANCH  15  16
ENDBRANCH   2  15
TORSDOF 4
ENDMDL
MODEL 9
REMARK VINA RESULT:      -7.5     15.259     17.158
REMARK  4 active torsions:
REMARK  status: ('A' for Active; 'I' for Inactive)
REMARK    1  A    between atoms: C_3  and  N_4 
REMARK       I    between atoms: N_4  and  C_5 
REMARK    2  A    between atoms: C_5  and  C_6 
REMARK    3  A    between atoms: C_6  and  C_7 
REMARK    4  A    between atoms: C_10  and  O_11 
ROOT
HETATM    1  N   UNL     1     -35.775  41.261 -54.438  1.00  0.00    -0.326 N 
HETATM    2  C   UNL     1     -36.935  40.504 -54.509  1.00  0.00     0.226 C 
HETATM    3  O   UNL     1     -37.116  39.391 -54.024  1.00  0.00    -0.273 OA
HETATM    4  H   UNL     1     -35.830  42.177 -54.859  1.00  0.00     0.169 HD
ENDROOT
BRANCH   1   5
HETATM    5  C   UNL     1     -34.537  40.916 -53.827  1.00  0.00     0.047 A 
HETATM    6  C   UNL     1     -34.367  40.986 -52.440  1.00  0.00     0.030 A 
HETATM    7  C   UNL     1     -33.153  40.645 -51.853  1.00  0.00     0.005 A 
HETATM    8  C   UNL     1     -32.095  40.226 -52.651  1.00  0.00     0.032 A 
HETATM    9  C   UNL     1     -32.213  40.136 -54.026  1.00  0.00     0.069 A 
HETATM   10  C   UNL     1     -33.441  40.484 -54.643  1.00  0.00     0.019 A 
HETATM   11  N   UNL     1     -31.132  39.713 -54.705  1.00  0.00    -0.260 NA
HETATM   12  C   UNL     1     -33.468  40.355 -56.054  1.00  0.00     0.017 A 
HETATM   13  C   UNL     1     -32.351  39.916 -56.760  1.00  0.00     0.020 A 
HETATM   14  C   UNL     1     -31.216  39.609 -56.045  1.00  0.00     0.117 A 
ENDBRANCH   1   5
BRANCH   2  15
HETATM   15  C   UNL     1     -38.046  41.192 -55.290  1.00  0.00     0.141 C 
BRANCH  15  16
HETATM   16  C   UNL     1     -37.910  41.131 -56.795  1.00  0.00    -0.049 A 
HETATM   17  C   UNL     1     -37.249  42.177 -57.462  1.00  0.00     0.010 A 
HETATM   18  C   UNL     1     -37.044  42.131 -58.843  1.00  0.00     0.037 A 
HETATM   19  C   UNL     1     -37.494  41.031 -59.564  1.00  0.00     0.065 A 
HETATM   20  C   UNL     1     -38.141  39.982 -58.925  1.00  0.00     0.037 A 
HETATM   21  C   UNL     1     -38.339  40.024 -57.543  1.00  0.00     0.010 A 
BRANCH  19  22
HETATM   22  O   UNL     1     -37.307  40.937 -60.910  1.00  0.00    -0.361 OA
HETATM   23  H   UNL     1     -37.918  40.268 -61.263  1.00  0.00     0.217 HD
ENDBRANCH  19  22
ENDBRANCH  15  16
ENDBRANCH   2  15
TORSDOF 4
ENDMDL
MODEL 10
REMARK VINA RESULT:      -7.4     14.780     16.880
REMARK  4 active torsions:
REMARK  status: ('A' for Active; 'I' for Inactive)
REMARK    1  A    between atoms: C_3  and  N_4 
REMARK       I    between atoms: N_4  and  C_5 
REMARK    2  A    between atoms: C_5  and  C_6 
REMARK    3  A    between atoms: C_6  and  C_7 
REMARK    4  A    between atoms: C_10  and  O_11 
ROOT
HETATM    1  N   UNL     1     -36.179  41.378 -54.258  1.00  0.00    -0.326 N 
HETATM    2  C   UNL     1     -36.143  42.130 -55.423  1.00  0.00     0.226 C 
HETATM    3  O   UNL     1     -35.194  42.782 -55.847  1.00  0.00    -0.273 OA
HETATM    4  H   UNL     1     -37.036  40.870 -54.098  1.00  0.00     0.169 HD
ENDROOT
BRANCH   1   5
HETATM    5  C   UNL     1     -35.153  41.217 -53.286  1.00  0.00     0.047 A 
HETATM    6  C   UNL     1     -35.218  41.864 -52.046  1.00  0.00     0.030 A 
HETATM    7  C   UNL     1     -34.210  41.698 -51.103  1.00  0.00     0.005 A 
HETATM    8  C   UNL     1     -33.125  40.878 -51.389  1.00  0.00     0.032 A 
HETATM    9  C   UNL     1     -33.015  40.213 -52.597  1.00  0.00     0.069 A 
HETATM   10  C   UNL     1     -34.030  40.373 -53.573  1.00  0.00     0.019 A 
HETATM   11  N   UNL     1     -31.931  39.439 -52.771  1.00  0.00    -0.260 NA
HETATM   12  C   UNL     1     -33.834  39.649 -54.776  1.00  0.00     0.017 A 
HETATM   13  C   UNL     1     -32.712  38.845 -54.959  1.00  0.00     0.020 A 
HETATM   14  C   UNL     1     -31.796  38.774 -53.934  1.00  0.00     0.117 A 
ENDBRANCH   1   5
BRANCH   2  15
HETATM   15  C   UNL     1     -37.457  42.096 -56.191  1.00  0.00     0.141 C 
BRANCH  15  16
HETATM   16  C   UNL     1     -37.374  41.520 -57.587  1.00  0.00    -0.049 A 
HETATM   17  C   UNL     1     -37.596  40.145 -57.770  1.00  0.00     0.010 A 
HETATM   18  C   UNL     1     -37.594  39.582 -59.049  1.00  0.00     0.037 A 
HETATM   19  C   UNL     1     -37.376  40.396 -60.154  1.00  0.00     0.065 A 
HETATM   20  C   UNL     1     -37.164  41.759 -59.998  1.00  0.00     0.037 A 
HETATM   21  C   UNL     1     -37.175  42.324 -58.720  1.00  0.00     0.010 A 
BRANCH  19  22
HETATM   22  O   UNL     1     -37.376  39.894 -61.421  1.00  0.00    -0.361 OA
HETATM   23  H   UNL     1     -37.226  40.624 -62.045  1.00  0.00     0.217 HD
ENDBRANCH  19  22
ENDBRANCH  15  16
ENDBRANCH   2  15
TORSDOF 4
ENDMDL
