MODEL 1
REMARK VINA RESULT:      -8.7      0.000      0.000
REMARK  7 active torsions:
REMARK  status: ('A' for Active; 'I' for Inactive)
REMARK    1  A    between atoms: C_6  and  N_7 
REMARK       I    between atoms: N_7  and  C_8 
REMARK    2  A    between atoms: C_8  and  C_9 
REMARK    3  A    between atoms: C_9  and  O_10 
REMARK    4  A    between atoms: O_10  and  C_11 
REMARK    5  A    between atoms: C_11  and  C_12 
REMARK       I    between atoms: C_12  and  N_13 
REMARK    6  A    between atoms: N_13  and  N_14 
REMARK       I    between atoms: N_14  and  C_15 
REMARK    7  A    between atoms: C_15  and  C_16 
ROOT
HETATM    1  C   UNL     1     -43.203  57.445 -52.662  1.00  0.00     0.259 C 
HETATM    2  N   UNL     1     -42.269  57.202 -53.647  1.00  0.00    -0.265 N 
HETATM    3  O   UNL     1     -44.402  57.212 -52.806  1.00  0.00    -0.269 OA
HETATM    4  H   UNL     1     -41.275  57.395 -53.525  1.00  0.00     0.190 HD
ENDROOT
BRANCH   1   5
HETATM    5  C   UNL     1     -42.627  58.100 -51.409  1.00  0.00     0.272 C 
BRANCH   5   6
HETATM    6  O   UNL     1     -41.358  57.543 -51.060  1.00  0.00    -0.373 OA
BRANCH   6   7
HETATM    7  C   UNL     1     -41.474  56.496 -50.100  1.00  0.00     0.271 C 
BRANCH   7   8
HETATM    8  C   UNL     1     -41.635  55.081 -50.676  1.00  0.00     0.245 C 
HETATM    9  N   UNL     1     -40.634  54.762 -51.575  1.00  0.00    -0.325 N 
HETATM   10  H   UNL     1     -39.998  55.522 -51.803  1.00  0.00     0.169 HD
HETATM   11  O   UNL     1     -42.552  54.355 -50.305  1.00  0.00    -0.271 OA
BRANCH   9  12
HETATM   12  C   UNL     1     -40.407  53.524 -52.210  1.00  0.00     0.036 A 
HETATM   13  C   UNL     1     -40.008  52.365 -51.542  1.00  0.00     0.053 A 
HETATM   14  C   UNL     1     -39.771  51.181 -52.252  1.00  0.00     0.042 A 
HETATM   15  C   UNL     1     -39.938  51.130 -53.643  1.00  0.00    -0.040 A 
HETATM   16 CL   UNL     1     -39.258  49.793 -51.358  1.00  0.00    -0.084 Cl
HETATM   17  C   UNL     1     -39.678  49.876 -54.431  1.00  0.00     0.050 C 
HETATM   18  C   UNL     1     -40.346  52.293 -54.307  1.00  0.00     0.011 A 
HETATM   19  C   UNL     1     -40.576  53.477 -53.598  1.00  0.00     0.030 A 
ENDBRANCH   9  12
ENDBRANCH   7   8
ENDBRANCH   6   7
ENDBRANCH   5   6
ENDBRANCH   1   5
BRANCH   2  20
HETATM   20  N   UNL     1     -42.698  56.690 -54.874  1.00  0.00    -0.262 N 
HETATM   21  C   UNL     1     -42.911  57.554 -55.928  1.00  0.00     0.286 C 
HETATM   22  O   UNL     1     -42.650  58.754 -55.851  1.00  0.00    -0.264 OA
HETATM   23  H   UNL     1     -42.996  55.719 -54.882  1.00  0.00     0.190 HD
BRANCH  21  24
HETATM   24  C   UNL     1     -43.457  56.951 -57.124  1.00  0.00     0.103 A 
HETATM   25  N   UNL     1     -44.633  57.404 -57.686  1.00  0.00    -0.351 N 
HETATM   26  H   UNL     1     -45.180  58.166 -57.306  1.00  0.00     0.166 HD
HETATM   27  C   UNL     1     -44.947  56.694 -58.821  1.00  0.00     0.043 A 
HETATM   28  C   UNL     1     -43.945  55.742 -58.994  1.00  0.00    -0.007 A 
HETATM   29  C   UNL     1     -46.028  56.822 -59.700  1.00  0.00     0.030 A 
HETATM   30  C   UNL     1     -43.020  55.909 -57.925  1.00  0.00     0.049 A 
HETATM   31  C   UNL     1     -44.021  54.869 -60.096  1.00  0.00     0.014 A 
HETATM   32  C   UNL     1     -45.095  54.983 -60.986  1.00  0.00     0.001 A 
HETATM   33  C   UNL     1     -46.082  55.946 -60.789  1.00  0.00     0.002 A 
ENDBRANCH  21  24
ENDBRANCH   2  20
TORSDOF 7
ENDMDL
MODEL 2
REMARK VINA RESULT:      -8.6      2.971      7.241
REMARK  7 active torsions:
REMARK  status: ('A' for Active; 'I' for Inactive)
REMARK    1  A    between atoms: C_6  and  N_7 
REMARK       I    between atoms: N_7  and  C_8 
REMARK    2  A    between atoms: C_8  and  C_9 
REMARK    3  A    between atoms: C_9  and  O_10 
REMARK    4  A    between atoms: O_10  and  C_11 
REMARK    5  A    between atoms: C_11  and  C_12 
REMARK       I    between atoms: C_12  and  N_13 
REMARK    6  A    between atoms: N_13  and  N_14 
REMARK       I    between atoms: N_14  and  C_15 
REMARK    7  A    between atoms: C_15  and  C_16 
ROOT
HETATM    1  C   UNL     1     -43.280  57.571 -51.334  1.00  0.00     0.259 C 
HETATM    2  N   UNL     1     -41.952  57.351 -51.630  1.00  0.00    -0.265 N 
HETATM    3  O   UNL     1     -44.091  56.659 -51.183  1.00  0.00    -0.269 OA
HETATM    4  H   UNL     1     -41.281  58.109 -51.754  1.00  0.00     0.190 HD
ENDROOT
BRANCH   1   5
HETATM    5  C   UNL     1     -43.670  59.047 -51.288  1.00  0.00     0.272 C 
BRANCH   5   6
HETATM    6  O   UNL     1     -42.527  59.897 -51.409  1.00  0.00    -0.373 OA
BRANCH   6   7
HETATM    7  C   UNL     1     -42.515  60.613 -52.641  1.00  0.00     0.271 C 
BRANCH   7   8
HETATM    8  C   UNL     1     -41.932  59.857 -53.844  1.00  0.00     0.245 C 
HETATM    9  N   UNL     1     -42.864  59.669 -54.849  1.00  0.00    -0.325 N 
HETATM   10  H   UNL     1     -43.811  59.961 -54.622  1.00  0.00     0.169 HD
HETATM   11  O   UNL     1     -40.752  59.523 -53.861  1.00  0.00    -0.271 OA
BRANCH   9  12
HETATM   12  C   UNL     1     -42.653  59.115 -56.128  1.00  0.00     0.036 A 
HETATM   13  C   UNL     1     -42.971  57.800 -56.472  1.00  0.00     0.053 A 
HETATM   14  C   UNL     1     -42.699  57.316 -57.757  1.00  0.00     0.042 A 
HETATM   15  C   UNL     1     -42.111  58.139 -58.728  1.00  0.00    -0.040 A 
HETATM   16 CL   UNL     1     -43.101  55.669 -58.102  1.00  0.00    -0.084 Cl
HETATM   17  C   UNL     1     -41.797  57.640 -60.111  1.00  0.00     0.050 C 
HETATM   18  C   UNL     1     -41.801  59.459 -58.381  1.00  0.00     0.011 A 
HETATM   19  C   UNL     1     -42.067  59.941 -57.094  1.00  0.00     0.030 A 
ENDBRANCH   9  12
ENDBRANCH   7   8
ENDBRANCH   6   7
ENDBRANCH   5   6
ENDBRANCH   1   5
BRANCH   2  20
HETATM   20  N   UNL     1     -41.503  56.038 -51.790  1.00  0.00    -0.262 N 
HETATM   21  C   UNL     1     -41.072  55.618 -53.031  1.00  0.00     0.286 C 
HETATM   22  O   UNL     1     -40.984  56.389 -53.986  1.00  0.00    -0.264 OA
HETATM   23  H   UNL     1     -41.675  55.402 -51.017  1.00  0.00     0.190 HD
BRANCH  21  24
HETATM   24  C   UNL     1     -40.729  54.216 -53.129  1.00  0.00     0.103 A 
HETATM   25  N   UNL     1     -40.316  53.498 -52.026  1.00  0.00    -0.351 N 
HETATM   26  H   UNL     1     -40.223  53.896 -51.100  1.00  0.00     0.166 HD
HETATM   27  C   UNL     1     -40.060  52.188 -52.353  1.00  0.00     0.043 A 
HETATM   28  C   UNL     1     -40.307  52.056 -53.717  1.00  0.00    -0.007 A 
HETATM   29  C   UNL     1     -39.636  51.120 -51.554  1.00  0.00     0.030 A 
HETATM   30  C   UNL     1     -40.722  53.331 -54.194  1.00  0.00     0.049 A 
HETATM   31  C   UNL     1     -40.121  50.798 -54.321  1.00  0.00     0.014 A 
HETATM   32  C   UNL     1     -39.698  49.717 -53.538  1.00  0.00     0.001 A 
HETATM   33  C   UNL     1     -39.461  49.879 -52.175  1.00  0.00     0.002 A 
ENDBRANCH  21  24
ENDBRANCH   2  20
TORSDOF 7
ENDMDL
MODEL 3
REMARK VINA RESULT:      -8.5      2.982      7.335
REMARK  7 active torsions:
REMARK  status: ('A' for Active; 'I' for Inactive)
REMARK    1  A    between atoms: C_6  and  N_7 
REMARK       I    between atoms: N_7  and  C_8 
REMARK    2  A    between atoms: C_8  and  C_9 
REMARK    3  A    between atoms: C_9  and  O_10 
REMARK    4  A    between atoms: O_10  and  C_11 
REMARK    5  A    between atoms: C_11  and  C_12 
REMARK       I    between atoms: C_12  and  N_13 
REMARK    6  A    between atoms: N_13  and  N_14 
REMARK       I    between atoms: N_14  and  C_15 
REMARK    7  A    between atoms: C_15  and  C_16 
ROOT
HETATM    1  C   UNL     1     -43.159  57.847 -52.219  1.00  0.00     0.259 C 
HETATM    2  N   UNL     1     -41.936  57.460 -51.716  1.00  0.00    -0.265 N 
HETATM    3  O   UNL     1     -43.924  57.069 -52.788  1.00  0.00    -0.269 OA
HETATM    4  H   UNL     1     -41.304  58.106 -51.243  1.00  0.00     0.190 HD
ENDROOT
BRANCH   1   5
HETATM    5  C   UNL     1     -43.446  59.340 -52.076  1.00  0.00     0.272 C 
BRANCH   5   6
HETATM    6  O   UNL     1     -43.448  59.999 -53.344  1.00  0.00    -0.373 OA
BRANCH   6   7
HETATM    7  C   UNL     1     -42.186  59.912 -54.000  1.00  0.00     0.271 C 
BRANCH   7   8
HETATM    8  C   UNL     1     -42.217  59.363 -55.434  1.00  0.00     0.245 C 
HETATM    9  N   UNL     1     -42.964  58.203 -55.536  1.00  0.00    -0.325 N 
HETATM   10  H   UNL     1     -43.301  57.825 -54.655  1.00  0.00     0.169 HD
HETATM   11  O   UNL     1     -41.653  59.960 -56.345  1.00  0.00    -0.271 OA
BRANCH   9  12
HETATM   12  C   UNL     1     -43.294  57.491 -56.707  1.00  0.00     0.036 A 
HETATM   13  C   UNL     1     -44.110  57.992 -57.722  1.00  0.00     0.053 A 
HETATM   14  C   UNL     1     -44.417  57.207 -58.840  1.00  0.00     0.042 A 
HETATM   15  C   UNL     1     -43.907  55.907 -58.971  1.00  0.00    -0.040 A 
HETATM   16 CL   UNL     1     -45.453  57.888 -60.046  1.00  0.00    -0.084 Cl
HETATM   17  C   UNL     1     -44.232  55.038 -60.154  1.00  0.00     0.050 C 
HETATM   18  C   UNL     1     -43.082  55.412 -57.953  1.00  0.00     0.011 A 
HETATM   19  C   UNL     1     -42.781  56.195 -56.833  1.00  0.00     0.030 A 
ENDBRANCH   9  12
ENDBRANCH   7   8
ENDBRANCH   6   7
ENDBRANCH   5   6
ENDBRANCH   1   5
BRANCH   2  20
HETATM   20  N   UNL     1     -41.528  56.134 -51.875  1.00  0.00    -0.262 N 
HETATM   21  C   UNL     1     -40.959  55.741 -53.068  1.00  0.00     0.286 C 
HETATM   22  O   UNL     1     -40.715  56.543 -53.970  1.00  0.00    -0.264 OA
HETATM   23  H   UNL     1     -41.826  55.478 -51.159  1.00  0.00     0.190 HD
BRANCH  21  24
HETATM   24  C   UNL     1     -40.667  54.329 -53.183  1.00  0.00     0.103 A 
HETATM   25  N   UNL     1     -40.261  53.587 -52.093  1.00  0.00    -0.351 N 
HETATM   26  H   UNL     1     -40.139  53.973 -51.165  1.00  0.00     0.166 HD
HETATM   27  C   UNL     1     -40.058  52.272 -52.435  1.00  0.00     0.043 A 
HETATM   28  C   UNL     1     -40.332  52.160 -53.796  1.00  0.00    -0.007 A 
HETATM   29  C   UNL     1     -39.659  51.183 -51.652  1.00  0.00     0.030 A 
HETATM   30  C   UNL     1     -40.709  53.453 -54.255  1.00  0.00     0.049 A 
HETATM   31  C   UNL     1     -40.201  50.901 -54.413  1.00  0.00     0.014 A 
HETATM   32  C   UNL     1     -39.804  49.800 -53.646  1.00  0.00     0.001 A 
HETATM   33  C   UNL     1     -39.537  49.942 -52.286  1.00  0.00     0.002 A 
ENDBRANCH  21  24
ENDBRANCH   2  20
TORSDOF 7
ENDMDL
MODEL 4
REMARK VINA RESULT:      -8.4      2.733      6.846
REMARK  7 active torsions:
REMARK  status: ('A' for Active; 'I' for Inactive)
REMARK    1  A    between atoms: C_6  and  N_7 
REMARK       I    between atoms: N_7  and  C_8 
REMARK    2  A    between atoms: C_8  and  C_9 
REMARK    3  A    between atoms: C_9  and  O_10 
REMARK    4  A    between atoms: O_10  and  C_11 
REMARK    5  A    between atoms: C_11  and  C_12 
REMARK       I    between atoms: C_12  and  N_13 
REMARK    6  A    between atoms: N_13  and  N_14 
REMARK       I    between atoms: N_14  and  C_15 
REMARK    7  A    between atoms: C_15  and  C_16 
ROOT
HETATM    1  C   UNL     1     -43.025  56.705 -56.416  1.00  0.00     0.259 C 
HETATM    2  N   UNL     1     -41.743  56.199 -56.415  1.00  0.00    -0.265 N 
HETATM    3  O   UNL     1     -43.966  56.145 -55.856  1.00  0.00    -0.269 OA
HETATM    4  H   UNL     1     -40.964  56.666 -56.879  1.00  0.00     0.190 HD
ENDROOT
BRANCH   1   5
HETATM    5  C   UNL     1     -43.188  57.983 -57.238  1.00  0.00     0.272 C 
BRANCH   5   6
HETATM    6  O   UNL     1     -44.095  58.895 -56.617  1.00  0.00    -0.373 OA
BRANCH   6   7
HETATM    7  C   UNL     1     -43.440  59.773 -55.706  1.00  0.00     0.271 C 
BRANCH   7   8
HETATM    8  C   UNL     1     -42.560  59.095 -54.646  1.00  0.00     0.245 C 
HETATM    9  N   UNL     1     -43.306  58.428 -53.691  1.00  0.00    -0.325 N 
HETATM   10  H   UNL     1     -44.312  58.555 -53.761  1.00  0.00     0.169 HD
HETATM   11  O   UNL     1     -41.336  59.146 -54.722  1.00  0.00    -0.271 OA
BRANCH   9  12
HETATM   12  C   UNL     1     -42.834  57.614 -52.641  1.00  0.00     0.036 A 
HETATM   13  C   UNL     1     -43.264  56.306 -52.413  1.00  0.00     0.053 A 
HETATM   14  C   UNL     1     -42.770  55.574 -51.326  1.00  0.00     0.042 A 
HETATM   15  C   UNL     1     -41.829  56.133 -50.450  1.00  0.00    -0.040 A 
HETATM   16 CL   UNL     1     -43.366  53.967 -51.096  1.00  0.00    -0.084 Cl
HETATM   17  C   UNL     1     -41.292  55.374 -49.268  1.00  0.00     0.050 C 
HETATM   18  C   UNL     1     -41.395  57.443 -50.687  1.00  0.00     0.011 A 
HETATM   19  C   UNL     1     -41.894  58.176 -51.769  1.00  0.00     0.030 A 
ENDBRANCH   9  12
ENDBRANCH   7   8
ENDBRANCH   6   7
ENDBRANCH   5   6
ENDBRANCH   1   5
BRANCH   2  20
HETATM   20  N   UNL     1     -41.497  54.983 -55.773  1.00  0.00    -0.262 N 
HETATM   21  C   UNL     1     -40.721  54.967 -54.633  1.00  0.00     0.286 C 
HETATM   22  O   UNL     1     -40.310  56.002 -54.109  1.00  0.00    -0.264 OA
HETATM   23  H   UNL     1     -41.764  54.141 -56.275  1.00  0.00     0.190 HD
BRANCH  21  24
HETATM   24  C   UNL     1     -40.429  53.655 -54.098  1.00  0.00     0.103 A 
HETATM   25  N   UNL     1     -40.258  53.451 -52.745  1.00  0.00    -0.351 N 
HETATM   26  H   UNL     1     -40.319  54.189 -52.054  1.00  0.00     0.166 HD
HETATM   27  C   UNL     1     -40.007  52.129 -52.469  1.00  0.00     0.043 A 
HETATM   28  C   UNL     1     -40.004  51.454 -53.687  1.00  0.00    -0.007 A 
HETATM   29  C   UNL     1     -39.785  51.483 -51.247  1.00  0.00     0.030 A 
HETATM   30  C   UNL     1     -40.266  52.418 -54.701  1.00  0.00     0.049 A 
HETATM   31  C   UNL     1     -39.768  50.066 -53.694  1.00  0.00     0.014 A 
HETATM   32  C   UNL     1     -39.546  49.403 -52.482  1.00  0.00     0.001 A 
HETATM   33  C   UNL     1     -39.555  50.104 -51.277  1.00  0.00     0.002 A 
ENDBRANCH  21  24
ENDBRANCH   2  20
TORSDOF 7
ENDMDL
MODEL 5
REMARK VINA RESULT:      -8.3      2.562      3.150
REMARK  7 active torsions:
REMARK  status: ('A' for Active; 'I' for Inactive)
REMARK    1  A    between atoms: C_6  and  N_7 
REMARK       I    between atoms: N_7  and  C_8 
REMARK    2  A    between atoms: C_8  and  C_9 
REMARK    3  A    between atoms: C_9  and  O_10 
REMARK    4  A    between atoms: O_10  and  C_11 
REMARK    5  A    between atoms: C_11  and  C_12 
REMARK       I    between atoms: C_12  and  N_13 
REMARK    6  A    between atoms: N_13  and  N_14 
REMARK       I    between atoms: N_14  and  C_15 
REMARK    7  A    between atoms: C_15  and  C_16 
ROOT
HETATM    1  C   UNL     1     -40.627  58.872 -52.366  1.00  0.00     0.259 C 
HETATM    2  N   UNL     1     -41.740  58.712 -53.164  1.00  0.00    -0.265 N 
HETATM    3  O   UNL     1     -39.525  59.189 -52.812  1.00  0.00    -0.269 OA
HETATM    4  H   UNL     1     -42.653  58.451 -52.791  1.00  0.00     0.190 HD
ENDROOT
BRANCH   1   5
HETATM    5  C   UNL     1     -40.866  58.546 -50.894  1.00  0.00     0.272 C 
BRANCH   5   6
HETATM    6  O   UNL     1     -40.623  57.166 -50.614  1.00  0.00    -0.373 OA
BRANCH   6   7
HETATM    7  C   UNL     1     -41.825  56.449 -50.350  1.00  0.00     0.271 C 
BRANCH   7   8
HETATM    8  C   UNL     1     -41.914  55.046 -50.969  1.00  0.00     0.245 C 
HETATM    9  N   UNL     1     -40.769  54.707 -51.668  1.00  0.00    -0.325 N 
HETATM   10  H   UNL     1     -40.081  55.450 -51.759  1.00  0.00     0.169 HD
HETATM   11  O   UNL     1     -42.904  54.344 -50.791  1.00  0.00    -0.271 OA
BRANCH   9  12
HETATM   12  C   UNL     1     -40.461  53.470 -52.270  1.00  0.00     0.036 A 
HETATM   13  C   UNL     1     -40.055  52.338 -51.563  1.00  0.00     0.053 A 
HETATM   14  C   UNL     1     -39.735  51.154 -52.239  1.00  0.00     0.042 A 
HETATM   15  C   UNL     1     -39.823  51.076 -53.636  1.00  0.00    -0.040 A 
HETATM   16 CL   UNL     1     -39.218  49.799 -51.297  1.00  0.00    -0.084 Cl
HETATM   17  C   UNL     1     -39.472  49.822 -54.388  1.00  0.00     0.050 C 
HETATM   18  C   UNL     1     -40.238  52.212 -54.341  1.00  0.00     0.011 A 
HETATM   19  C   UNL     1     -40.552  53.397 -53.664  1.00  0.00     0.030 A 
ENDBRANCH   9  12
ENDBRANCH   7   8
ENDBRANCH   6   7
ENDBRANCH   5   6
ENDBRANCH   1   5
BRANCH   2  20
HETATM   20  N   UNL     1     -41.615  58.893 -54.543  1.00  0.00    -0.262 N 
HETATM   21  C   UNL     1     -42.099  60.049 -55.119  1.00  0.00     0.286 C 
HETATM   22  O   UNL     1     -42.557  60.971 -54.445  1.00  0.00    -0.264 OA
HETATM   23  H   UNL     1     -41.324  58.083 -55.083  1.00  0.00     0.190 HD
BRANCH  21  24
HETATM   24  C   UNL     1     -42.025  60.102 -56.562  1.00  0.00     0.103 A 
HETATM   25  N   UNL     1     -42.135  58.963 -57.331  1.00  0.00    -0.351 N 
HETATM   26  H   UNL     1     -42.268  58.036 -56.946  1.00  0.00     0.166 HD
HETATM   27  C   UNL     1     -42.051  59.257 -58.671  1.00  0.00     0.043 A 
HETATM   28  C   UNL     1     -41.870  60.634 -58.773  1.00  0.00    -0.007 A 
HETATM   29  C   UNL     1     -42.124  58.419 -59.790  1.00  0.00     0.030 A 
HETATM   30  C   UNL     1     -41.852  61.153 -57.448  1.00  0.00     0.049 A 
HETATM   31  C   UNL     1     -41.752  61.211 -60.052  1.00  0.00     0.014 A 
HETATM   32  C   UNL     1     -41.823  60.389 -61.183  1.00  0.00     0.001 A 
HETATM   33  C   UNL     1     -42.006  59.014 -61.050  1.00  0.00     0.002 A 
ENDBRANCH  21  24
ENDBRANCH   2  20
TORSDOF 7
ENDMDL
MODEL 6
REMARK VINA RESULT:      -7.9      3.194      7.242
REMARK  7 active torsions:
REMARK  status: ('A' for Active; 'I' for Inactive)
REMARK    1  A    between atoms: C_6  and  N_7 
REMARK       I    between atoms: N_7  and  C_8 
REMARK    2  A    between atoms: C_8  and  C_9 
REMARK    3  A    between atoms: C_9  and  O_10 
REMARK    4  A    between atoms: O_10  and  C_11 
REMARK    5  A    between atoms: C_11  and  C_12 
REMARK       I    between atoms: C_12  and  N_13 
REMARK    6  A    between atoms: N_13  and  N_14 
REMARK       I    between atoms: N_14  and  C_15 
REMARK    7  A    between atoms: C_15  and  C_16 
ROOT
HETATM    1  C   UNL     1     -44.822  58.353 -50.863  1.00  0.00     0.259 C 
HETATM    2  N   UNL     1     -43.449  58.365 -50.986  1.00  0.00    -0.265 N 
HETATM    3  O   UNL     1     -45.494  57.328 -50.973  1.00  0.00    -0.269 OA
HETATM    4  H   UNL     1     -42.894  59.216 -50.893  1.00  0.00     0.190 HD
ENDROOT
BRANCH   1   5
HETATM    5  C   UNL     1     -45.440  59.734 -50.657  1.00  0.00     0.272 C 
BRANCH   5   6
HETATM    6  O   UNL     1     -45.145  60.610 -51.748  1.00  0.00    -0.373 OA
BRANCH   6   7
HETATM    7  C   UNL     1     -45.800  60.214 -52.950  1.00  0.00     0.271 C 
BRANCH   7   8
HETATM    8  C   UNL     1     -44.878  59.786 -54.100  1.00  0.00     0.245 C 
HETATM    9  N   UNL     1     -45.327  58.642 -54.737  1.00  0.00    -0.325 N 
HETATM   10  H   UNL     1     -46.133  58.195 -54.307  1.00  0.00     0.169 HD
HETATM   11  O   UNL     1     -43.890  60.452 -54.392  1.00  0.00    -0.271 OA
BRANCH   9  12
HETATM   12  C   UNL     1     -44.794  58.031 -55.890  1.00  0.00     0.036 A 
HETATM   13  C   UNL     1     -45.243  58.285 -57.186  1.00  0.00     0.053 A 
HETATM   14  C   UNL     1     -44.682  57.610 -58.278  1.00  0.00     0.042 A 
HETATM   15  C   UNL     1     -43.654  56.674 -58.096  1.00  0.00    -0.040 A 
HETATM   16 CL   UNL     1     -45.306  57.961 -59.852  1.00  0.00    -0.084 Cl
HETATM   17  C   UNL     1     -43.043  55.926 -59.248  1.00  0.00     0.050 C 
HETATM   18  C   UNL     1     -43.202  56.429 -56.793  1.00  0.00     0.011 A 
HETATM   19  C   UNL     1     -43.767  57.099 -55.703  1.00  0.00     0.030 A 
ENDBRANCH   9  12
ENDBRANCH   7   8
ENDBRANCH   6   7
ENDBRANCH   5   6
ENDBRANCH   1   5
BRANCH   2  20
HETATM   20  N   UNL     1     -42.785  57.170 -51.270  1.00  0.00    -0.262 N 
HETATM   21  C   UNL     1     -41.980  57.093 -52.387  1.00  0.00     0.286 C 
HETATM   22  O   UNL     1     -41.754  58.074 -53.096  1.00  0.00    -0.264 OA
HETATM   23  H   UNL     1     -43.062  56.356 -50.728  1.00  0.00     0.190 HD
BRANCH  21  24
HETATM   24  C   UNL     1     -41.420  55.789 -52.662  1.00  0.00     0.103 A 
HETATM   25  N   UNL     1     -41.009  54.953 -51.644  1.00  0.00    -0.351 N 
HETATM   26  H   UNL     1     -41.067  55.193 -50.663  1.00  0.00     0.166 HD
HETATM   27  C   UNL     1     -40.527  53.765 -52.140  1.00  0.00     0.043 A 
HETATM   28  C   UNL     1     -40.619  53.839 -53.528  1.00  0.00    -0.007 A 
HETATM   29  C   UNL     1     -40.024  52.642 -51.475  1.00  0.00     0.030 A 
HETATM   30  C   UNL     1     -41.176  55.110 -53.845  1.00  0.00     0.049 A 
HETATM   31  C   UNL     1     -40.187  52.741 -54.296  1.00  0.00     0.014 A 
HETATM   32  C   UNL     1     -39.682  51.608 -53.648  1.00  0.00     0.001 A 
HETATM   33  C   UNL     1     -39.603  51.562 -52.257  1.00  0.00     0.002 A 
ENDBRANCH  21  24
ENDBRANCH   2  20
TORSDOF 7
ENDMDL
MODEL 7
REMARK VINA RESULT:      -7.9      4.197      8.147
REMARK  7 active torsions:
REMARK  status: ('A' for Active; 'I' for Inactive)
REMARK    1  A    between atoms: C_6  and  N_7 
REMARK       I    between atoms: N_7  and  C_8 
REMARK    2  A    between atoms: C_8  and  C_9 
REMARK    3  A    between atoms: C_9  and  O_10 
REMARK    4  A    between atoms: O_10  and  C_11 
REMARK    5  A    between atoms: C_11  and  C_12 
REMARK       I    between atoms: C_12  and  N_13 
REMARK    6  A    between atoms: N_13  and  N_14 
REMARK       I    between atoms: N_14  and  C_15 
REMARK    7  A    between atoms: C_15  and  C_16 
ROOT
HETATM    1  C   UNL     1     -43.598  57.528 -52.120  1.00  0.00     0.259 C 
HETATM    2  N   UNL     1     -44.847  57.890 -51.661  1.00  0.00    -0.265 N 
HETATM    3  O   UNL     1     -42.556  57.887 -51.574  1.00  0.00    -0.269 OA
HETATM    4  H   UNL     1     -45.710  57.591 -52.114  1.00  0.00     0.190 HD
ENDROOT
BRANCH   1   5
HETATM    5  C   UNL     1     -43.624  56.708 -53.408  1.00  0.00     0.272 C 
BRANCH   5   6
HETATM    6  O   UNL     1     -42.787  57.283 -54.414  1.00  0.00    -0.373 OA
BRANCH   6   7
HETATM    7  C   UNL     1     -42.413  56.335 -55.411  1.00  0.00     0.271 C 
BRANCH   7   8
HETATM    8  C   UNL     1     -42.229  54.892 -54.921  1.00  0.00     0.245 C 
HETATM    9  N   UNL     1     -41.036  54.714 -54.242  1.00  0.00    -0.325 N 
HETATM   10  H   UNL     1     -40.413  55.518 -54.245  1.00  0.00     0.169 HD
HETATM   11  O   UNL     1     -43.102  54.050 -55.110  1.00  0.00    -0.271 OA
BRANCH   9  12
HETATM   12  C   UNL     1     -40.590  53.559 -53.570  1.00  0.00     0.036 A 
HETATM   13  C   UNL     1     -40.201  52.383 -54.212  1.00  0.00     0.053 A 
HETATM   14  C   UNL     1     -39.801  51.265 -53.468  1.00  0.00     0.042 A 
HETATM   15  C   UNL     1     -39.773  51.305 -52.067  1.00  0.00    -0.040 A 
HETATM   16 CL   UNL     1     -39.354  49.836 -54.334  1.00  0.00    -0.084 Cl
HETATM   17  C   UNL     1     -39.361  50.116 -51.244  1.00  0.00     0.050 C 
HETATM   18  C   UNL     1     -40.157  52.490 -51.428  1.00  0.00     0.011 A 
HETATM   19  C   UNL     1     -40.563  53.603 -52.171  1.00  0.00     0.030 A 
ENDBRANCH   9  12
ENDBRANCH   7   8
ENDBRANCH   6   7
ENDBRANCH   5   6
ENDBRANCH   1   5
BRANCH   2  20
HETATM   20  N   UNL     1     -44.942  58.720 -50.542  1.00  0.00    -0.262 N 
HETATM   21  C   UNL     1     -45.515  59.968 -50.672  1.00  0.00     0.286 C 
HETATM   22  O   UNL     1     -46.031  60.341 -51.726  1.00  0.00    -0.264 OA
HETATM   23  H   UNL     1     -44.427  58.429 -49.715  1.00  0.00     0.190 HD
BRANCH  21  24
HETATM   24  C   UNL     1     -45.473  60.798 -49.489  1.00  0.00     0.103 A 
HETATM   25  N   UNL     1     -45.180  60.271 -48.249  1.00  0.00    -0.351 N 
HETATM   26  H   UNL     1     -44.984  59.291 -48.088  1.00  0.00     0.166 HD
HETATM   27  C   UNL     1     -45.181  61.246 -47.281  1.00  0.00     0.043 A 
HETATM   28  C   UNL     1     -45.496  62.445 -47.914  1.00  0.00    -0.007 A 
HETATM   29  C   UNL     1     -44.928  61.160 -45.907  1.00  0.00     0.030 A 
HETATM   30  C   UNL     1     -45.680  62.155 -49.295  1.00  0.00     0.049 A 
HETATM   31  C   UNL     1     -45.566  63.622 -47.144  1.00  0.00     0.014 A 
HETATM   32  C   UNL     1     -45.315  63.556 -45.769  1.00  0.00     0.001 A 
HETATM   33  C   UNL     1     -45.001  62.341 -45.162  1.00  0.00     0.002 A 
ENDBRANCH  21  24
ENDBRANCH   2  20
TORSDOF 7
ENDMDL
MODEL 8
REMARK VINA RESULT:      -7.8      6.246     10.476
REMARK  7 active torsions:
REMARK  status: ('A' for Active; 'I' for Inactive)
REMARK    1  A    between atoms: C_6  and  N_7 
REMARK       I    between atoms: N_7  and  C_8 
REMARK    2  A    between atoms: C_8  and  C_9 
REMARK    3  A    between atoms: C_9  and  O_10 
REMARK    4  A    between atoms: O_10  and  C_11 
REMARK    5  A    between atoms: C_11  and  C_12 
REMARK       I    between atoms: C_12  and  N_13 
REMARK    6  A    between atoms: N_13  and  N_14 
REMARK       I    between atoms: N_14  and  C_15 
REMARK    7  A    between atoms: C_15  and  C_16 
ROOT
HETATM    1  C   UNL     1     -44.802  60.654 -50.110  1.00  0.00     0.259 C 
HETATM    2  N   UNL     1     -45.130  60.119 -48.882  1.00  0.00    -0.265 N 
HETATM    3  O   UNL     1     -44.209  61.725 -50.236  1.00  0.00    -0.269 OA
HETATM    4  H   UNL     1     -45.620  59.230 -48.780  1.00  0.00     0.190 HD
ENDROOT
BRANCH   1   5
HETATM    5  C   UNL     1     -45.307  59.838 -51.298  1.00  0.00     0.272 C 
BRANCH   5   6
HETATM    6  O   UNL     1     -44.444  59.966 -52.430  1.00  0.00    -0.373 OA
BRANCH   6   7
HETATM    7  C   UNL     1     -43.194  59.312 -52.232  1.00  0.00     0.271 C 
BRANCH   7   8
HETATM    8  C   UNL     1     -43.101  57.878 -52.774  1.00  0.00     0.245 C 
HETATM    9  N   UNL     1     -41.821  57.362 -52.682  1.00  0.00    -0.325 N 
HETATM   10  H   UNL     1     -41.111  58.019 -52.367  1.00  0.00     0.169 HD
HETATM   11  O   UNL     1     -44.100  57.300 -53.191  1.00  0.00    -0.271 OA
BRANCH   9  12
HETATM   12  C   UNL     1     -41.394  56.053 -52.982  1.00  0.00     0.036 A 
HETATM   13  C   UNL     1     -41.230  55.047 -52.029  1.00  0.00     0.053 A 
HETATM   14  C   UNL     1     -40.770  53.779 -52.405  1.00  0.00     0.042 A 
HETATM   15  C   UNL     1     -40.474  53.488 -53.744  1.00  0.00    -0.040 A 
HETATM   16 CL   UNL     1     -40.569  52.591 -51.164  1.00  0.00    -0.084 Cl
HETATM   17  C   UNL     1     -39.966  52.139 -54.173  1.00  0.00     0.050 C 
HETATM   18  C   UNL     1     -40.648  54.498 -54.698  1.00  0.00     0.011 A 
HETATM   19  C   UNL     1     -41.101  55.766 -54.320  1.00  0.00     0.030 A 
ENDBRANCH   9  12
ENDBRANCH   7   8
ENDBRANCH   6   7
ENDBRANCH   5   6
ENDBRANCH   1   5
BRANCH   2  20
HETATM   20  N   UNL     1     -44.800  60.829 -47.726  1.00  0.00    -0.262 N 
HETATM   21  C   UNL     1     -45.805  61.234 -46.872  1.00  0.00     0.286 C 
HETATM   22  O   UNL     1     -46.980  60.912 -47.049  1.00  0.00    -0.264 OA
HETATM   23  H   UNL     1     -43.843  61.162 -47.654  1.00  0.00     0.190 HD
BRANCH  21  24
HETATM   24  C   UNL     1     -45.382  62.054 -45.759  1.00  0.00     0.103 A 
HETATM   25  N   UNL     1     -44.431  61.615 -44.861  1.00  0.00    -0.351 N 
HETATM   26  H   UNL     1     -43.981  60.711 -44.918  1.00  0.00     0.166 HD
HETATM   27  C   UNL     1     -44.178  62.565 -43.901  1.00  0.00     0.043 A 
HETATM   28  C   UNL     1     -45.001  63.653 -44.180  1.00  0.00    -0.007 A 
HETATM   29  C   UNL     1     -43.292  62.546 -42.818  1.00  0.00     0.030 A 
HETATM   30  C   UNL     1     -45.753  63.323 -45.343  1.00  0.00     0.049 A 
HETATM   31  C   UNL     1     -44.943  64.782 -43.340  1.00  0.00     0.014 A 
HETATM   32  C   UNL     1     -44.062  64.782 -42.253  1.00  0.00     0.001 A 
HETATM   33  C   UNL     1     -43.249  63.679 -41.998  1.00  0.00     0.002 A 
ENDBRANCH  21  24
ENDBRANCH   2  20
TORSDOF 7
ENDMDL
MODEL 9
REMARK VINA RESULT:      -7.6      4.909      9.372
REMARK  7 active torsions:
REMARK  status: ('A' for Active; 'I' for Inactive)
REMARK    1  A    between atoms: C_6  and  N_7 
REMARK       I    between atoms: N_7  and  C_8 
REMARK    2  A    between atoms: C_8  and  C_9 
REMARK    3  A    between atoms: C_9  and  O_10 
REMARK    4  A    between atoms: O_10  and  C_11 
REMARK    5  A    between atoms: C_11  and  C_12 
REMARK       I    between atoms: C_12  and  N_13 
REMARK    6  A    between atoms: N_13  and  N_14 
REMARK       I    between atoms: N_14  and  C_15 
REMARK    7  A    between atoms: C_15  and  C_16 
ROOT
HETATM    1  C   UNL     1     -43.446  57.713 -53.462  1.00  0.00     0.259 C 
HETATM    2  N   UNL     1     -42.123  57.335 -53.378  1.00  0.00    -0.265 N 
HETATM    3  O   UNL     1     -44.360  56.910 -53.646  1.00  0.00    -0.269 OA
HETATM    4  H   UNL     1     -41.367  58.002 -53.224  1.00  0.00     0.190 HD
ENDROOT
BRANCH   1   5
HETATM    5  C   UNL     1     -43.667  59.222 -53.383  1.00  0.00     0.272 C 
BRANCH   5   6
HETATM    6  O   UNL     1     -44.683  59.556 -52.435  1.00  0.00    -0.373 OA
BRANCH   6   7
HETATM    7  C   UNL     1     -44.255  59.351 -51.092  1.00  0.00     0.271 C 
BRANCH   7   8
HETATM    8  C   UNL     1     -44.342  60.578 -50.172  1.00  0.00     0.245 C 
HETATM    9  N   UNL     1     -45.131  60.347 -49.060  1.00  0.00    -0.325 N 
HETATM   10  H   UNL     1     -45.616  59.453 -49.051  1.00  0.00     0.169 HD
HETATM   11  O   UNL     1     -43.721  61.603 -50.435  1.00  0.00    -0.271 OA
BRANCH   9  12
HETATM   12  C   UNL     1     -45.346  61.204 -47.962  1.00  0.00     0.036 A 
HETATM   13  C   UNL     1     -44.733  61.048 -46.718  1.00  0.00     0.053 A 
HETATM   14  C   UNL     1     -45.025  61.925 -45.666  1.00  0.00     0.042 A 
HETATM   15  C   UNL     1     -45.931  62.982 -45.839  1.00  0.00    -0.040 A 
HETATM   16 CL   UNL     1     -44.243  61.655 -44.147  1.00  0.00    -0.084 Cl
HETATM   17  C   UNL     1     -46.273  63.929 -44.722  1.00  0.00     0.050 C 
HETATM   18  C   UNL     1     -46.538  63.139 -47.091  1.00  0.00     0.011 A 
HETATM   19  C   UNL     1     -46.250  62.258 -48.139  1.00  0.00     0.030 A 
ENDBRANCH   9  12
ENDBRANCH   7   8
ENDBRANCH   6   7
ENDBRANCH   5   6
ENDBRANCH   1   5
BRANCH   2  20
HETATM   20  N   UNL     1     -41.794  55.987 -53.532  1.00  0.00    -0.262 N 
HETATM   21  C   UNL     1     -41.148  55.328 -52.506  1.00  0.00     0.286 C 
HETATM   22  O   UNL     1     -40.932  55.866 -51.420  1.00  0.00    -0.264 OA
HETATM   23  H   UNL     1     -41.896  55.597 -54.464  1.00  0.00     0.190 HD
BRANCH  21  24
HETATM   24  C   UNL     1     -40.751  53.968 -52.793  1.00  0.00     0.103 A 
HETATM   25  N   UNL     1     -40.369  53.102 -51.789  1.00  0.00    -0.351 N 
HETATM   26  H   UNL     1     -40.338  53.357 -50.810  1.00  0.00     0.166 HD
HETATM   27  C   UNL     1     -40.050  51.864 -52.295  1.00  0.00     0.043 A 
HETATM   28  C   UNL     1     -40.222  51.934 -53.675  1.00  0.00    -0.007 A 
HETATM   29  C   UNL     1     -39.630  50.699 -51.643  1.00  0.00     0.030 A 
HETATM   30  C   UNL     1     -40.657  53.255 -53.977  1.00  0.00     0.049 A 
HETATM   31  C   UNL     1     -39.961  50.788 -54.450  1.00  0.00     0.014 A 
HETATM   32  C   UNL     1     -39.540  49.613 -53.815  1.00  0.00     0.001 A 
HETATM   33  C   UNL     1     -39.378  49.573 -52.432  1.00  0.00     0.002 A 
ENDBRANCH  21  24
ENDBRANCH   2  20
TORSDOF 7
ENDMDL
MODEL 10
REMARK VINA RESULT:      -7.5      3.774      4.302
REMARK  7 active torsions:
REMARK  status: ('A' for Active; 'I' for Inactive)
REMARK    1  A    between atoms: C_6  and  N_7 
REMARK       I    between atoms: N_7  and  C_8 
REMARK    2  A    between atoms: C_8  and  C_9 
REMARK    3  A    between atoms: C_9  and  O_10 
REMARK    4  A    between atoms: O_10  and  C_11 
REMARK    5  A    between atoms: C_11  and  C_12 
REMARK       I    between atoms: C_12  and  N_13 
REMARK    6  A    between atoms: N_13  and  N_14 
REMARK       I    between atoms: N_14  and  C_15 
REMARK    7  A    between atoms: C_15  and  C_16 
ROOT
HETATM    1  C   UNL     1     -42.245  59.565 -53.384  1.00  0.00     0.259 C 
HETATM    2  N   UNL     1     -42.329  58.946 -54.613  1.00  0.00    -0.265 N 
HETATM    3  O   UNL     1     -41.767  60.688 -53.233  1.00  0.00    -0.269 OA
HETATM    4  H   UNL     1     -42.727  58.015 -54.736  1.00  0.00     0.190 HD
ENDROOT
BRANCH   1   5
HETATM    5  C   UNL     1     -42.725  58.701 -52.220  1.00  0.00     0.272 C 
BRANCH   5   6
HETATM    6  O   UNL     1     -42.018  57.461 -52.158  1.00  0.00    -0.373 OA
BRANCH   6   7
HETATM    7  C   UNL     1     -42.627  56.537 -51.260  1.00  0.00     0.271 C 
BRANCH   7   8
HETATM    8  C   UNL     1     -42.511  55.056 -51.650  1.00  0.00     0.245 C 
HETATM    9  N   UNL     1     -41.310  54.768 -52.272  1.00  0.00    -0.325 N 
HETATM   10  H   UNL     1     -40.722  55.574 -52.472  1.00  0.00     0.169 HD
HETATM   11  O   UNL     1     -43.406  54.264 -51.373  1.00  0.00    -0.271 OA
BRANCH   9  12
HETATM   12  C   UNL     1     -40.823  53.506 -52.666  1.00  0.00     0.036 A 
HETATM   13  C   UNL     1     -40.315  52.554 -51.780  1.00  0.00     0.053 A 
HETATM   14  C   UNL     1     -39.819  51.334 -52.256  1.00  0.00     0.042 A 
HETATM   15  C   UNL     1     -39.829  51.036 -53.626  1.00  0.00    -0.040 A 
HETATM   16 CL   UNL     1     -39.185  50.214 -51.100  1.00  0.00    -0.084 Cl
HETATM   17  C   UNL     1     -39.291  49.739 -54.164  1.00  0.00     0.050 C 
HETATM   18  C   UNL     1     -40.348  51.991 -54.510  1.00  0.00     0.011 A 
HETATM   19  C   UNL     1     -40.837  53.213 -54.034  1.00  0.00     0.030 A 
ENDBRANCH   9  12
ENDBRANCH   7   8
ENDBRANCH   6   7
ENDBRANCH   5   6
ENDBRANCH   1   5
BRANCH   2  20
HETATM   20  N   UNL     1     -41.831  59.606 -55.738  1.00  0.00    -0.262 N 
HETATM   21  C   UNL     1     -42.700  60.307 -56.550  1.00  0.00     0.286 C 
HETATM   22  O   UNL     1     -43.889  60.445 -56.265  1.00  0.00    -0.264 OA
HETATM   23  H   UNL     1     -40.872  59.397 -56.001  1.00  0.00     0.190 HD
BRANCH  21  24
HETATM   24  C   UNL     1     -42.116  60.867 -57.748  1.00  0.00     0.103 A 
HETATM   25  N   UNL     1     -41.087  61.784 -57.687  1.00  0.00    -0.351 N 
HETATM   26  H   UNL     1     -40.687  62.121 -56.821  1.00  0.00     0.166 HD
HETATM   27  C   UNL     1     -40.684  62.163 -58.945  1.00  0.00     0.043 A 
HETATM   28  C   UNL     1     -41.486  61.476 -59.852  1.00  0.00    -0.007 A 
HETATM   29  C   UNL     1     -39.680  63.052 -59.346  1.00  0.00     0.030 A 
HETATM   30  C   UNL     1     -42.381  60.669 -59.094  1.00  0.00     0.049 A 
HETATM   31  C   UNL     1     -41.282  61.681 -61.230  1.00  0.00     0.014 A 
HETATM   32  C   UNL     1     -40.282  62.565 -61.650  1.00  0.00     0.001 A 
HETATM   33  C   UNL     1     -39.494  63.239 -60.719  1.00  0.00     0.002 A 
ENDBRANCH  21  24
ENDBRANCH   2  20
TORSDOF 7
ENDMDL
