MODEL 1
REMARK VINA RESULT:      -8.4      0.000      0.000
REMARK  2 active torsions:
REMARK  status: ('A' for Active; 'I' for Inactive)
REMARK    1  A    between atoms: C_6  and  O_7 
REMARK    2  A    between atoms: C_6  and  C_8 
ROOT
HETATM    1  C   UNL     1     -39.474  51.244 -54.045  1.00  0.00     0.048 C 
HETATM    2  C   UNL     1     -40.173  52.211 -53.133  1.00  0.00    -0.059 A 
HETATM    3  C   UNL     1     -39.701  52.443 -51.837  1.00  0.00     0.037 A 
HETATM    4  C   UNL     1     -40.390  53.348 -51.053  1.00  0.00     0.046 A 
HETATM    5  C   UNL     1     -41.522  54.043 -51.499  1.00  0.00     0.023 A 
HETATM    6  C   UNL     1     -42.022  54.934 -50.377  1.00  0.00     0.199 A 
HETATM    7  C   UNL     1     -41.045  54.541 -49.211  1.00  0.00     0.266 A 
HETATM    8  O   UNL     1     -41.110  54.886 -48.040  1.00  0.00    -0.269 OA
HETATM    9  N   UNL     1     -40.105  53.659 -49.731  1.00  0.00    -0.323 N 
HETATM   10  C   UNL     1     -42.027  53.797 -52.776  1.00  0.00    -0.049 A 
HETATM   11  C   UNL     1     -43.238  54.493 -53.323  1.00  0.00     0.049 C 
HETATM   12  C   UNL     1     -41.323  52.890 -53.591  1.00  0.00     0.014 A 
HETATM   13  H   UNL     1     -39.379  53.240 -49.171  1.00  0.00     0.169 HD
ENDROOT
BRANCH   6  14
HETATM   14  O   UNL     1     -43.371  54.605 -50.089  1.00  0.00    -0.371 OA
HETATM   15  H   UNL     1     -43.888  54.952 -50.833  1.00  0.00     0.212 HD
ENDBRANCH   6  14
BRANCH   6  16
HETATM   16  C   UNL     1     -41.834  56.393 -50.755  1.00  0.00     0.018 A 
HETATM   17  C   UNL     1     -42.891  57.311 -51.124  1.00  0.00     0.002 A 
HETATM   18  C   UNL     1     -42.304  58.536 -51.448  1.00  0.00     0.043 A 
HETATM   19  C   UNL     1     -44.299  57.216 -51.211  1.00  0.00     0.014 A 
HETATM   20  C   UNL     1     -43.038  59.645 -51.886  1.00  0.00     0.030 A 
HETATM   21  N   UNL     1     -40.954  58.404 -51.241  1.00  0.00    -0.365 N 
HETATM   22  C   UNL     1     -44.424  59.510 -51.985  1.00  0.00     0.002 A 
HETATM   23  C   UNL     1     -45.049  58.317 -51.644  1.00  0.00     0.001 A 
HETATM   24  H   UNL     1     -40.279  59.142 -51.381  1.00  0.00     0.165 HD
HETATM   25  C   UNL     1     -40.664  57.142 -50.802  1.00  0.00     0.100 A 
ENDBRANCH   6  16
TORSDOF 2
ENDMDL
MODEL 2
REMARK VINA RESULT:      -8.3      2.281      6.433
REMARK  2 active torsions:
REMARK  status: ('A' for Active; 'I' for Inactive)
REMARK    1  A    between atoms: C_6  and  O_7 
REMARK    2  A    between atoms: C_6  and  C_8 
ROOT
HETATM    1  C   UNL     1     -42.112  59.621 -50.952  1.00  0.00     0.048 C 
HETATM    2  C   UNL     1     -41.996  58.254 -51.565  1.00  0.00    -0.059 A 
HETATM    3  C   UNL     1     -41.135  58.023 -52.642  1.00  0.00     0.037 A 
HETATM    4  C   UNL     1     -41.074  56.742 -53.155  1.00  0.00     0.046 A 
HETATM    5  C   UNL     1     -41.822  55.674 -52.641  1.00  0.00     0.023 A 
HETATM    6  C   UNL     1     -41.516  54.428 -53.452  1.00  0.00     0.199 A 
HETATM    7  C   UNL     1     -40.559  55.005 -54.556  1.00  0.00     0.266 A 
HETATM    8  O   UNL     1     -40.130  54.425 -55.543  1.00  0.00    -0.269 OA
HETATM    9  N   UNL     1     -40.325  56.341 -54.252  1.00  0.00    -0.323 N 
HETATM   10  C   UNL     1     -42.713  55.895 -51.591  1.00  0.00    -0.049 A 
HETATM   11  C   UNL     1     -43.555  54.808 -50.992  1.00  0.00     0.049 C 
HETATM   12  C   UNL     1     -42.770  57.193 -51.047  1.00  0.00     0.014 A 
HETATM   13  H   UNL     1     -39.756  56.942 -54.829  1.00  0.00     0.169 HD
ENDROOT
BRANCH   6  14
HETATM   14  O   UNL     1     -42.725  53.919 -53.994  1.00  0.00    -0.371 OA
HETATM   15  H   UNL     1     -43.186  53.499 -53.251  1.00  0.00     0.212 HD
ENDBRANCH   6  14
BRANCH   6  16
HETATM   16  C   UNL     1     -40.780  53.419 -52.588  1.00  0.00     0.018 A 
HETATM   17  C   UNL     1     -40.404  52.081 -52.992  1.00  0.00     0.002 A 
HETATM   18  C   UNL     1     -39.794  51.458 -51.901  1.00  0.00     0.043 A 
HETATM   19  C   UNL     1     -40.524  51.337 -54.188  1.00  0.00     0.014 A 
HETATM   20  C   UNL     1     -39.338  50.134 -51.931  1.00  0.00     0.030 A 
HETATM   21  N   UNL     1     -39.745  52.379 -50.886  1.00  0.00    -0.365 N 
HETATM   22  C   UNL     1     -39.493  49.419 -53.120  1.00  0.00     0.002 A 
HETATM   23  C   UNL     1     -40.069  50.012 -54.238  1.00  0.00     0.001 A 
HETATM   24  H   UNL     1     -39.340  52.208 -49.977  1.00  0.00     0.165 HD
HETATM   25  C   UNL     1     -40.304  53.559 -51.291  1.00  0.00     0.100 A 
ENDBRANCH   6  16
TORSDOF 2
ENDMDL
MODEL 3
REMARK VINA RESULT:      -8.1      1.906      6.051
REMARK  2 active torsions:
REMARK  status: ('A' for Active; 'I' for Inactive)
REMARK    1  A    between atoms: C_6  and  O_7 
REMARK    2  A    between atoms: C_6  and  C_8 
ROOT
HETATM    1  C   UNL     1     -45.366  60.293 -53.069  1.00  0.00     0.048 C 
HETATM    2  C   UNL     1     -44.496  59.121 -52.714  1.00  0.00    -0.059 A 
HETATM    3  C   UNL     1     -44.968  58.105 -51.877  1.00  0.00     0.037 A 
HETATM    4  C   UNL     1     -44.116  57.054 -51.596  1.00  0.00     0.046 A 
HETATM    5  C   UNL     1     -42.819  56.959 -52.116  1.00  0.00     0.023 A 
HETATM    6  C   UNL     1     -42.173  55.690 -51.589  1.00  0.00     0.199 A 
HETATM    7  C   UNL     1     -43.286  55.158 -50.616  1.00  0.00     0.266 A 
HETATM    8  O   UNL     1     -43.203  54.220 -49.837  1.00  0.00    -0.269 OA
HETATM    9  N   UNL     1     -44.389  55.993 -50.744  1.00  0.00    -0.323 N 
HETATM   10  C   UNL     1     -42.319  57.980 -52.924  1.00  0.00    -0.049 A 
HETATM   11  C   UNL     1     -40.939  57.956 -53.511  1.00  0.00     0.049 C 
HETATM   12  C   UNL     1     -43.185  59.048 -53.233  1.00  0.00     0.014 A 
HETATM   13  H   UNL     1     -45.231  55.875 -50.202  1.00  0.00     0.169 HD
ENDROOT
BRANCH   6  14
HETATM   14  O   UNL     1     -40.974  56.028 -50.909  1.00  0.00    -0.371 OA
HETATM   15  H   UNL     1     -40.735  55.239 -50.397  1.00  0.00     0.212 HD
ENDBRANCH   6  14
BRANCH   6  16
HETATM   16  C   UNL     1     -41.955  54.711 -52.729  1.00  0.00     0.018 A 
HETATM   17  C   UNL     1     -41.081  53.557 -52.692  1.00  0.00     0.002 A 
HETATM   18  C   UNL     1     -41.120  52.948 -53.948  1.00  0.00     0.043 A 
HETATM   19  C   UNL     1     -40.257  52.970 -51.704  1.00  0.00     0.014 A 
HETATM   20  C   UNL     1     -40.359  51.819 -54.276  1.00  0.00     0.030 A 
HETATM   21  N   UNL     1     -42.013  53.655 -54.712  1.00  0.00    -0.365 N 
HETATM   22  C   UNL     1     -39.538  51.277 -53.285  1.00  0.00     0.002 A 
HETATM   23  C   UNL     1     -39.492  51.837 -52.013  1.00  0.00     0.001 A 
HETATM   24  H   UNL     1     -42.254  53.429 -55.667  1.00  0.00     0.165 HD
HETATM   25  C   UNL     1     -42.537  54.690 -53.990  1.00  0.00     0.100 A 
ENDBRANCH   6  16
TORSDOF 2
ENDMDL
MODEL 4
REMARK VINA RESULT:      -7.8      2.050      2.160
REMARK  2 active torsions:
REMARK  status: ('A' for Active; 'I' for Inactive)
REMARK    1  A    between atoms: C_6  and  O_7 
REMARK    2  A    between atoms: C_6  and  C_8 
ROOT
HETATM    1  C   UNL     1     -39.359  50.686 -54.013  1.00  0.00     0.048 C 
HETATM    2  C   UNL     1     -40.185  51.869 -53.596  1.00  0.00    -0.059 A 
HETATM    3  C   UNL     1     -39.990  52.475 -52.352  1.00  0.00     0.037 A 
HETATM    4  C   UNL     1     -40.781  53.562 -52.034  1.00  0.00     0.046 A 
HETATM    5  C   UNL     1     -41.752  54.083 -52.900  1.00  0.00     0.023 A 
HETATM    6  C   UNL     1     -42.433  55.258 -52.221  1.00  0.00     0.199 A 
HETATM    7  C   UNL     1     -41.752  55.234 -50.806  1.00  0.00     0.266 A 
HETATM    8  O   UNL     1     -42.048  55.906 -49.828  1.00  0.00    -0.269 OA
HETATM    9  N   UNL     1     -40.770  54.250 -50.829  1.00  0.00    -0.323 N 
HETATM   10  C   UNL     1     -41.984  53.468 -54.130  1.00  0.00    -0.049 A 
HETATM   11  C   UNL     1     -43.011  53.959 -55.107  1.00  0.00     0.049 C 
HETATM   12  C   UNL     1     -41.171  52.371 -54.473  1.00  0.00     0.014 A 
HETATM   13  H   UNL     1     -40.205  54.022 -50.026  1.00  0.00     0.169 HD
ENDROOT
BRANCH   6  14
HETATM   14  O   UNL     1     -43.829  55.011 -52.156  1.00  0.00    -0.371 OA
HETATM   15  H   UNL     1     -44.193  55.723 -51.606  1.00  0.00     0.212 HD
ENDBRANCH   6  14
BRANCH   6  16
HETATM   16  C   UNL     1     -42.090  56.544 -52.952  1.00  0.00     0.018 A 
HETATM   17  C   UNL     1     -43.009  57.333 -53.745  1.00  0.00     0.002 A 
HETATM   18  C   UNL     1     -42.299  58.405 -54.288  1.00  0.00     0.043 A 
HETATM   19  C   UNL     1     -44.386  57.237 -54.051  1.00  0.00     0.014 A 
HETATM   20  C   UNL     1     -42.876  59.352 -55.143  1.00  0.00     0.030 A 
HETATM   21  N   UNL     1     -41.014  58.318 -53.816  1.00  0.00    -0.365 N 
HETATM   22  C   UNL     1     -44.232  59.216 -55.445  1.00  0.00     0.002 A 
HETATM   23  C   UNL     1     -44.981  58.179 -54.901  1.00  0.00     0.001 A 
HETATM   24  H   UNL     1     -40.278  58.975 -54.034  1.00  0.00     0.165 HD
HETATM   25  C   UNL     1     -40.883  57.231 -52.998  1.00  0.00     0.100 A 
ENDBRANCH   6  16
TORSDOF 2
ENDMDL
MODEL 5
REMARK VINA RESULT:      -7.7      2.435      3.477
REMARK  2 active torsions:
REMARK  status: ('A' for Active; 'I' for Inactive)
REMARK    1  A    between atoms: C_6  and  O_7 
REMARK    2  A    between atoms: C_6  and  C_8 
ROOT
HETATM    1  C   UNL     1     -40.346  51.863 -53.969  1.00  0.00     0.048 C 
HETATM    2  C   UNL     1     -40.625  53.243 -53.444  1.00  0.00    -0.059 A 
HETATM    3  C   UNL     1     -40.551  54.358 -54.285  1.00  0.00     0.037 A 
HETATM    4  C   UNL     1     -40.824  55.596 -53.738  1.00  0.00     0.046 A 
HETATM    5  C   UNL     1     -41.178  55.780 -52.395  1.00  0.00     0.023 A 
HETATM    6  C   UNL     1     -41.391  57.262 -52.144  1.00  0.00     0.199 A 
HETATM    7  C   UNL     1     -40.997  57.871 -53.537  1.00  0.00     0.266 A 
HETATM    8  O   UNL     1     -40.872  59.054 -53.821  1.00  0.00    -0.269 OA
HETATM    9  N   UNL     1     -40.743  56.812 -54.401  1.00  0.00    -0.323 N 
HETATM   10  C   UNL     1     -41.222  54.683 -51.534  1.00  0.00    -0.049 A 
HETATM   11  C   UNL     1     -41.584  54.798 -50.083  1.00  0.00     0.049 C 
HETATM   12  C   UNL     1     -40.964  53.413 -52.084  1.00  0.00     0.014 A 
HETATM   13  H   UNL     1     -40.446  56.945 -55.355  1.00  0.00     0.169 HD
ENDROOT
BRANCH   6  14
HETATM   14  O   UNL     1     -40.525  57.684 -51.102  1.00  0.00    -0.371 OA
HETATM   15  H   UNL     1     -41.060  58.267 -50.540  1.00  0.00     0.212 HD
ENDBRANCH   6  14
BRANCH   6  16
HETATM   16  C   UNL     1     -42.856  57.529 -51.845  1.00  0.00     0.018 A 
HETATM   17  C   UNL     1     -43.389  58.744 -51.267  1.00  0.00     0.002 A 
HETATM   18  C   UNL     1     -44.766  58.576 -51.105  1.00  0.00     0.043 A 
HETATM   19  C   UNL     1     -42.829  59.979 -50.867  1.00  0.00     0.014 A 
HETATM   20  C   UNL     1     -45.595  59.549 -50.535  1.00  0.00     0.030 A 
HETATM   21  N   UNL     1     -45.082  57.338 -51.604  1.00  0.00    -0.365 N 
HETATM   22  C   UNL     1     -45.007  60.748 -50.128  1.00  0.00     0.002 A 
HETATM   23  C   UNL     1     -43.645  60.967 -50.298  1.00  0.00     0.001 A 
HETATM   24  H   UNL     1     -46.016  56.953 -51.632  1.00  0.00     0.165 HD
HETATM   25  C   UNL     1     -43.959  56.716 -52.073  1.00  0.00     0.100 A 
ENDBRANCH   6  16
TORSDOF 2
ENDMDL
MODEL 6
REMARK VINA RESULT:      -7.6      2.475      3.511
REMARK  2 active torsions:
REMARK  status: ('A' for Active; 'I' for Inactive)
REMARK    1  A    between atoms: C_6  and  O_7 
REMARK    2  A    between atoms: C_6  and  C_8 
ROOT
HETATM    1  C   UNL     1     -39.535  49.796 -53.310  1.00  0.00     0.048 C 
HETATM    2  C   UNL     1     -40.003  51.222 -53.245  1.00  0.00    -0.059 A 
HETATM    3  C   UNL     1     -40.650  51.813 -54.335  1.00  0.00     0.037 A 
HETATM    4  C   UNL     1     -41.057  53.126 -54.207  1.00  0.00     0.046 A 
HETATM    5  C   UNL     1     -40.862  53.879 -53.041  1.00  0.00     0.023 A 
HETATM    6  C   UNL     1     -41.420  55.274 -53.261  1.00  0.00     0.199 A 
HETATM    7  C   UNL     1     -41.860  55.197 -54.767  1.00  0.00     0.266 A 
HETATM    8  O   UNL     1     -42.256  56.114 -55.472  1.00  0.00    -0.269 OA
HETATM    9  N   UNL     1     -41.659  53.891 -55.197  1.00  0.00    -0.323 N 
HETATM   10  C   UNL     1     -40.187  53.317 -51.958  1.00  0.00    -0.049 A 
HETATM   11  C   UNL     1     -39.931  54.060 -50.680  1.00  0.00     0.049 C 
HETATM   12  C   UNL     1     -39.783  51.972 -52.070  1.00  0.00     0.014 A 
HETATM   13  H   UNL     1     -41.843  53.591 -56.141  1.00  0.00     0.169 HD
ENDROOT
BRANCH   6  14
HETATM   14  O   UNL     1     -40.390  56.225 -53.044  1.00  0.00    -0.371 OA
HETATM   15  H   UNL     1     -40.190  56.595 -53.919  1.00  0.00     0.212 HD
ENDBRANCH   6  14
BRANCH   6  16
HETATM   16  C   UNL     1     -42.629  55.492 -52.367  1.00  0.00     0.018 A 
HETATM   17  C   UNL     1     -43.296  56.758 -52.149  1.00  0.00     0.002 A 
HETATM   18  C   UNL     1     -44.324  56.549 -51.227  1.00  0.00     0.043 A 
HETATM   19  C   UNL     1     -43.125  58.068 -52.652  1.00  0.00     0.014 A 
HETATM   20  C   UNL     1     -45.153  57.574 -50.757  1.00  0.00     0.030 A 
HETATM   21  N   UNL     1     -44.329  55.210 -50.926  1.00  0.00    -0.365 N 
HETATM   22  C   UNL     1     -44.943  58.861 -51.256  1.00  0.00     0.002 A 
HETATM   23  C   UNL     1     -43.949  59.106 -52.197  1.00  0.00     0.001 A 
HETATM   24  H   UNL     1     -44.981  54.769 -50.292  1.00  0.00     0.165 HD
HETATM   25  C   UNL     1     -43.344  54.566 -51.618  1.00  0.00     0.100 A 
ENDBRANCH   6  16
TORSDOF 2
ENDMDL
MODEL 7
REMARK VINA RESULT:      -7.6      2.884      4.277
REMARK  2 active torsions:
REMARK  status: ('A' for Active; 'I' for Inactive)
REMARK    1  A    between atoms: C_6  and  O_7 
REMARK    2  A    between atoms: C_6  and  C_8 
ROOT
HETATM    1  C   UNL     1     -40.434  53.903 -47.974  1.00  0.00     0.048 C 
HETATM    2  C   UNL     1     -40.615  54.363 -49.392  1.00  0.00    -0.059 A 
HETATM    3  C   UNL     1     -40.414  53.485 -50.462  1.00  0.00     0.037 A 
HETATM    4  C   UNL     1     -40.602  53.973 -51.740  1.00  0.00     0.046 A 
HETATM    5  C   UNL     1     -40.992  55.293 -52.007  1.00  0.00     0.023 A 
HETATM    6  C   UNL     1     -41.088  55.479 -53.510  1.00  0.00     0.199 A 
HETATM    7  C   UNL     1     -40.590  54.082 -54.028  1.00  0.00     0.266 A 
HETATM    8  O   UNL     1     -40.356  53.759 -55.184  1.00  0.00    -0.269 OA
HETATM    9  N   UNL     1     -40.394  53.269 -52.917  1.00  0.00    -0.323 N 
HETATM   10  C   UNL     1     -41.162  56.192 -50.954  1.00  0.00    -0.049 A 
HETATM   11  C   UNL     1     -41.568  57.621 -51.158  1.00  0.00     0.049 C 
HETATM   12  C   UNL     1     -40.991  55.700 -49.645  1.00  0.00     0.014 A 
HETATM   13  H   UNL     1     -40.049  52.324 -52.985  1.00  0.00     0.169 HD
ENDROOT
BRANCH   6  14
HETATM   14  O   UNL     1     -40.231  56.540 -53.902  1.00  0.00    -0.371 OA
HETATM   15  H   UNL     1     -39.352  56.300 -53.568  1.00  0.00     0.212 HD
ENDBRANCH   6  14
BRANCH   6  16
HETATM   16  C   UNL     1     -42.536  55.706 -53.910  1.00  0.00     0.018 A 
HETATM   17  C   UNL     1     -43.096  56.960 -54.368  1.00  0.00     0.002 A 
HETATM   18  C   UNL     1     -44.462  56.768 -54.584  1.00  0.00     0.043 A 
HETATM   19  C   UNL     1     -42.568  58.247 -54.622  1.00  0.00     0.014 A 
HETATM   20  C   UNL     1     -45.324  57.790 -54.998  1.00  0.00     0.030 A 
HETATM   21  N   UNL     1     -44.729  55.447 -54.324  1.00  0.00    -0.365 N 
HETATM   22  C   UNL     1     -44.776  59.055 -55.218  1.00  0.00     0.002 A 
HETATM   23  C   UNL     1     -43.415  59.281 -55.042  1.00  0.00     0.001 A 
HETATM   24  H   UNL     1     -45.640  55.019 -54.413  1.00  0.00     0.165 HD
HETATM   25  C   UNL     1     -43.587  54.799 -53.948  1.00  0.00     0.100 A 
ENDBRANCH   6  16
TORSDOF 2
ENDMDL
MODEL 8
REMARK VINA RESULT:      -7.5      2.192      3.200
REMARK  2 active torsions:
REMARK  status: ('A' for Active; 'I' for Inactive)
REMARK    1  A    between atoms: C_6  and  O_7 
REMARK    2  A    between atoms: C_6  and  C_8 
ROOT
HETATM    1  C   UNL     1     -39.728  50.710 -51.056  1.00  0.00     0.048 C 
HETATM    2  C   UNL     1     -40.136  52.151 -51.169  1.00  0.00    -0.059 A 
HETATM    3  C   UNL     1     -40.259  52.764 -52.420  1.00  0.00     0.037 A 
HETATM    4  C   UNL     1     -40.642  54.091 -52.451  1.00  0.00     0.046 A 
HETATM    5  C   UNL     1     -40.920  54.836 -51.298  1.00  0.00     0.023 A 
HETATM    6  C   UNL     1     -41.295  56.249 -51.707  1.00  0.00     0.199 A 
HETATM    7  C   UNL     1     -41.078  56.188 -53.262  1.00  0.00     0.266 A 
HETATM    8  O   UNL     1     -41.120  57.119 -54.054  1.00  0.00    -0.269 OA
HETATM    9  N   UNL     1     -40.759  54.876 -53.590  1.00  0.00    -0.323 N 
HETATM   10  C   UNL     1     -40.768  54.250 -50.041  1.00  0.00    -0.049 A 
HETATM   11  C   UNL     1     -41.037  54.983 -48.760  1.00  0.00     0.049 C 
HETATM   12  C   UNL     1     -40.396  52.892 -49.997  1.00  0.00     0.014 A 
HETATM   13  H   UNL     1     -40.548  54.583 -54.531  1.00  0.00     0.169 HD
ENDROOT
BRANCH   6  14
HETATM   14  O   UNL     1     -40.415  57.164 -51.072  1.00  0.00    -0.371 OA
HETATM   15  H   UNL     1     -40.273  56.810 -50.180  1.00  0.00     0.212 HD
ENDBRANCH   6  14
BRANCH   6  16
HETATM   16  C   UNL     1     -42.756  56.509 -51.386  1.00  0.00     0.018 A 
HETATM   17  C   UNL     1     -43.412  57.798 -51.431  1.00  0.00     0.002 A 
HETATM   18  C   UNL     1     -44.735  57.623 -51.020  1.00  0.00     0.043 A 
HETATM   19  C   UNL     1     -43.005  59.105 -51.787  1.00  0.00     0.014 A 
HETATM   20  C   UNL     1     -45.650  58.678 -50.910  1.00  0.00     0.030 A 
HETATM   21  N   UNL     1     -44.909  56.283 -50.781  1.00  0.00    -0.365 N 
HETATM   22  C   UNL     1     -45.209  59.959 -51.245  1.00  0.00     0.002 A 
HETATM   23  C   UNL     1     -43.908  60.172 -51.686  1.00  0.00     0.001 A 
HETATM   24  H   UNL     1     -45.778  55.863 -50.483  1.00  0.00     0.165 HD
HETATM   25  C   UNL     1     -43.747  55.605 -51.021  1.00  0.00     0.100 A 
ENDBRANCH   6  16
TORSDOF 2
ENDMDL
MODEL 9
REMARK VINA RESULT:      -7.4     15.629     17.587
REMARK  2 active torsions:
REMARK  status: ('A' for Active; 'I' for Inactive)
REMARK    1  A    between atoms: C_6  and  O_7 
REMARK    2  A    between atoms: C_6  and  C_8 
ROOT
HETATM    1  C   UNL     1     -32.755  40.016 -49.521  1.00  0.00     0.048 C 
HETATM    2  C   UNL     1     -33.139  40.278 -50.949  1.00  0.00    -0.059 A 
HETATM    3  C   UNL     1     -32.297  39.898 -51.999  1.00  0.00     0.037 A 
HETATM    4  C   UNL     1     -32.714  40.165 -53.288  1.00  0.00     0.046 A 
HETATM    5  C   UNL     1     -33.936  40.784 -53.586  1.00  0.00     0.023 A 
HETATM    6  C   UNL     1     -34.056  40.930 -55.092  1.00  0.00     0.199 A 
HETATM    7  C   UNL     1     -32.661  40.385 -55.567  1.00  0.00     0.266 A 
HETATM    8  O   UNL     1     -32.202  40.409 -56.700  1.00  0.00    -0.269 OA
HETATM    9  N   UNL     1     -31.990  39.915 -54.445  1.00  0.00    -0.323 N 
HETATM   10  C   UNL     1     -34.771  41.202 -52.550  1.00  0.00    -0.049 A 
HETATM   11  C   UNL     1     -36.088  41.879 -52.786  1.00  0.00     0.049 C 
HETATM   12  C   UNL     1     -34.365  40.918 -51.231  1.00  0.00     0.014 A 
HETATM   13  H   UNL     1     -31.057  39.535 -54.485  1.00  0.00     0.169 HD
ENDROOT
BRANCH   6  14
HETATM   14  O   UNL     1     -34.241  42.300 -55.413  1.00  0.00    -0.371 OA
HETATM   15  H   UNL     1     -33.762  42.438 -56.245  1.00  0.00     0.212 HD
ENDBRANCH   6  14
BRANCH   6  16
HETATM   16  C   UNL     1     -35.174  40.042 -55.608  1.00  0.00     0.018 A 
HETATM   17  C   UNL     1     -36.088  40.375 -56.680  1.00  0.00     0.002 A 
HETATM   18  C   UNL     1     -36.995  39.323 -56.816  1.00  0.00     0.043 A 
HETATM   19  C   UNL     1     -36.228  41.477 -57.555  1.00  0.00     0.014 A 
HETATM   20  C   UNL     1     -38.046  39.331 -57.741  1.00  0.00     0.030 A 
HETATM   21  N   UNL     1     -36.634  38.359 -55.909  1.00  0.00    -0.365 N 
HETATM   22  C   UNL     1     -38.171  40.444 -58.574  1.00  0.00     0.002 A 
HETATM   23  C   UNL     1     -37.271  41.500 -58.491  1.00  0.00     0.001 A 
HETATM   24  H   UNL     1     -37.108  37.474 -55.794  1.00  0.00     0.165 HD
HETATM   25  C   UNL     1     -35.536  38.763 -55.202  1.00  0.00     0.100 A 
ENDBRANCH   6  16
TORSDOF 2
ENDMDL
MODEL 10
REMARK VINA RESULT:      -7.2     15.557     17.219
REMARK  2 active torsions:
REMARK  status: ('A' for Active; 'I' for Inactive)
REMARK    1  A    between atoms: C_6  and  O_7 
REMARK    2  A    between atoms: C_6  and  C_8 
ROOT
HETATM    1  C   UNL     1     -31.223  37.312 -53.136  1.00  0.00     0.048 C 
HETATM    2  C   UNL     1     -32.429  38.139 -53.474  1.00  0.00    -0.059 A 
HETATM    3  C   UNL     1     -32.641  39.380 -52.865  1.00  0.00     0.037 A 
HETATM    4  C   UNL     1     -33.769  40.091 -53.225  1.00  0.00     0.046 A 
HETATM    5  C   UNL     1     -34.694  39.632 -54.173  1.00  0.00     0.023 A 
HETATM    6  C   UNL     1     -35.806  40.657 -54.307  1.00  0.00     0.199 A 
HETATM    7  C   UNL     1     -35.397  41.702 -53.208  1.00  0.00     0.266 A 
HETATM    8  O   UNL     1     -36.044  42.665 -52.822  1.00  0.00    -0.269 OA
HETATM    9  N   UNL     1     -34.171  41.304 -52.686  1.00  0.00    -0.323 N 
HETATM   10  C   UNL     1     -34.517  38.381 -54.764  1.00  0.00    -0.049 A 
HETATM   11  C   UNL     1     -35.466  37.816 -55.779  1.00  0.00     0.049 C 
HETATM   12  C   UNL     1     -33.361  37.655 -54.418  1.00  0.00     0.014 A 
HETATM   13  H   UNL     1     -33.706  41.802 -51.943  1.00  0.00     0.169 HD
ENDROOT
BRANCH   6  14
HETATM   14  O   UNL     1     -37.049  40.032 -54.026  1.00  0.00    -0.371 OA
HETATM   15  H   UNL     1     -37.338  40.400 -53.176  1.00  0.00     0.212 HD
ENDBRANCH   6  14
BRANCH   6  16
HETATM   16  C   UNL     1     -35.758  41.292 -55.686  1.00  0.00     0.018 A 
HETATM   17  C   UNL     1     -36.681  41.026 -56.768  1.00  0.00     0.002 A 
HETATM   18  C   UNL     1     -36.267  41.765 -57.878  1.00  0.00     0.043 A 
HETATM   19  C   UNL     1     -37.836  40.223 -56.910  1.00  0.00     0.014 A 
HETATM   20  C   UNL     1     -36.917  41.715 -59.118  1.00  0.00     0.030 A 
HETATM   21  N   UNL     1     -35.172  42.495 -57.491  1.00  0.00    -0.365 N 
HETATM   22  C   UNL     1     -38.041  40.895 -59.231  1.00  0.00     0.002 A 
HETATM   23  C   UNL     1     -38.502  40.165 -58.141  1.00  0.00     0.001 A 
HETATM   24  H   UNL     1     -34.670  43.136 -58.090  1.00  0.00     0.165 HD
HETATM   25  C   UNL     1     -34.875  42.244 -56.182  1.00  0.00     0.100 A 
ENDBRANCH   6  16
TORSDOF 2
ENDMDL
