MODEL 1
REMARK VINA RESULT:      -7.8      0.000      0.000
REMARK  5 active torsions:
REMARK  status: ('A' for Active; 'I' for Inactive)
REMARK    1  A    between atoms: C_3  and  N_4 
REMARK       I    between atoms: N_4  and  C_5 
REMARK       I    between atoms: C_5  and  N_6 
REMARK    2  A    between atoms: N_6  and  C_7 
REMARK    3  A    between atoms: C_7  and  C_8 
REMARK    4  A    between atoms: C_8  and  C_9 
REMARK    5  A    between atoms: N_15  and  C_16 
ROOT
HETATM    1  C   UNL     1     -40.521  54.085 -47.786  1.00  0.00     0.054 C 
HETATM    2  C   UNL     1     -40.427  53.794 -49.236  1.00  0.00     0.003 A 
HETATM    3  C   UNL     1     -40.469  54.698 -50.324  1.00  0.00     0.159 A 
HETATM    4  N   UNL     1     -40.331  54.064 -51.490  1.00  0.00    -0.149 NA
HETATM    5  N   UNL     1     -40.240  52.739 -51.189  1.00  0.00    -0.241 N 
HETATM    6  C   UNL     1     -40.253  52.559 -49.825  1.00  0.00     0.129 A 
ENDROOT
BRANCH   3   7
HETATM    7  N   UNL     1     -40.605  56.064 -50.201  1.00  0.00    -0.291 N 
HETATM    8  C   UNL     1     -41.462  56.900 -50.853  1.00  0.00     0.322 C 
HETATM    9  N   UNL     1     -42.380  56.324 -51.672  1.00  0.00    -0.339 N 
HETATM   10  O   UNL     1     -41.402  58.111 -50.649  1.00  0.00    -0.247 OA
HETATM   11  H   UNL     1     -42.207  55.342 -51.881  1.00  0.00     0.164 HD
HETATM   12  H   UNL     1     -40.002  56.538 -49.546  1.00  0.00     0.172 HD
BRANCH   9  13
HETATM   13  C   UNL     1     -43.330  57.073 -52.476  1.00  0.00     0.082 C 
HETATM   14  C   UNL     1     -44.574  57.388 -51.650  1.00  0.00     0.032 C 
BRANCH  13  15
HETATM   15  C   UNL     1     -43.661  56.363 -53.803  1.00  0.00     0.029 C 
BRANCH  15  16
HETATM   16  C   UNL     1     -42.831  55.135 -54.070  1.00  0.00    -0.013 A 
HETATM   17  C   UNL     1     -43.155  54.208 -55.215  1.00  0.00     0.005 A 
HETATM   18  C   UNL     1     -41.945  55.096 -55.289  1.00  0.00     0.005 A 
ENDBRANCH  15  16
ENDBRANCH  13  15
ENDBRANCH   9  13
ENDBRANCH   3   7
BRANCH   5  19
HETATM   19  C   UNL     1     -40.094  51.787 -52.244  1.00  0.00     0.079 A 
HETATM   20  C   UNL     1     -39.665  50.460 -52.076  1.00  0.00     0.062 A 
HETATM   21 CL   UNL     1     -39.409  49.668 -50.562  1.00  0.00    -0.082 Cl
HETATM   22  C   UNL     1     -39.513  49.629 -53.201  1.00  0.00     0.026 A 
HETATM   23  C   UNL     1     -39.795  50.093 -54.485  1.00  0.00     0.002 A 
HETATM   24  C   UNL     1     -40.248  51.393 -54.659  1.00  0.00     0.002 A 
HETATM   25  C   UNL     1     -40.401  52.230 -53.552  1.00  0.00     0.033 A 
ENDBRANCH   5  19
TORSDOF 5
ENDMDL
MODEL 2
REMARK VINA RESULT:      -7.4      2.568      4.521
REMARK  5 active torsions:
REMARK  status: ('A' for Active; 'I' for Inactive)
REMARK    1  A    between atoms: C_3  and  N_4 
REMARK       I    between atoms: N_4  and  C_5 
REMARK       I    between atoms: C_5  and  N_6 
REMARK    2  A    between atoms: N_6  and  C_7 
REMARK    3  A    between atoms: C_7  and  C_8 
REMARK    4  A    between atoms: C_8  and  C_9 
REMARK    5  A    between atoms: N_15  and  C_16 
ROOT
HETATM    1  C   UNL     1     -44.336  56.800 -53.159  1.00  0.00     0.054 C 
HETATM    2  C   UNL     1     -43.084  56.025 -53.322  1.00  0.00     0.003 A 
HETATM    3  C   UNL     1     -41.830  56.460 -53.811  1.00  0.00     0.159 A 
HETATM    4  N   UNL     1     -40.929  55.476 -53.788  1.00  0.00    -0.149 NA
HETATM    5  N   UNL     1     -41.586  54.376 -53.328  1.00  0.00    -0.241 N 
HETATM    6  C   UNL     1     -42.882  54.699 -52.999  1.00  0.00     0.129 A 
ENDROOT
BRANCH   3   7
HETATM    7  N   UNL     1     -41.558  57.745 -54.230  1.00  0.00    -0.291 N 
HETATM    8  C   UNL     1     -41.122  58.808 -53.497  1.00  0.00     0.322 C 
HETATM    9  N   UNL     1     -40.816  58.574 -52.194  1.00  0.00    -0.339 N 
HETATM   10  O   UNL     1     -40.983  59.903 -54.038  1.00  0.00    -0.247 OA
HETATM   11  H   UNL     1     -41.139  57.677 -51.836  1.00  0.00     0.164 HD
HETATM   12  H   UNL     1     -41.691  57.958 -55.206  1.00  0.00     0.172 HD
BRANCH   9  13
HETATM   13  C   UNL     1     -40.387  59.606 -51.265  1.00  0.00     0.082 C 
HETATM   14  C   UNL     1     -39.031  59.235 -50.669  1.00  0.00     0.032 C 
BRANCH  13  15
HETATM   15  C   UNL     1     -41.450  59.903 -50.189  1.00  0.00     0.029 C 
BRANCH  15  16
HETATM   16  C   UNL     1     -42.612  60.725 -50.680  1.00  0.00    -0.013 A 
HETATM   17  C   UNL     1     -43.976  60.110 -50.873  1.00  0.00     0.005 A 
HETATM   18  C   UNL     1     -43.734  61.053 -49.728  1.00  0.00     0.005 A 
ENDBRANCH  15  16
ENDBRANCH  13  15
ENDBRANCH   9  13
ENDBRANCH   3   7
BRANCH   5  19
HETATM   19  C   UNL     1     -40.881  53.140 -53.200  1.00  0.00     0.079 A 
HETATM   20  C   UNL     1     -40.115  52.763 -52.085  1.00  0.00     0.062 A 
HETATM   21 CL   UNL     1     -40.021  53.626 -50.589  1.00  0.00    -0.082 Cl
HETATM   22  C   UNL     1     -39.426  51.538 -52.093  1.00  0.00     0.026 A 
HETATM   23  C   UNL     1     -39.500  50.676 -53.187  1.00  0.00     0.002 A 
HETATM   24  C   UNL     1     -40.278  51.024 -54.282  1.00  0.00     0.002 A 
HETATM   25  C   UNL     1     -40.965  52.239 -54.287  1.00  0.00     0.033 A 
ENDBRANCH   5  19
TORSDOF 5
ENDMDL
MODEL 3
REMARK VINA RESULT:      -7.3      3.115      4.230
REMARK  5 active torsions:
REMARK  status: ('A' for Active; 'I' for Inactive)
REMARK    1  A    between atoms: C_3  and  N_4 
REMARK       I    between atoms: N_4  and  C_5 
REMARK       I    between atoms: C_5  and  N_6 
REMARK    2  A    between atoms: N_6  and  C_7 
REMARK    3  A    between atoms: C_7  and  C_8 
REMARK    4  A    between atoms: C_8  and  C_9 
REMARK    5  A    between atoms: N_15  and  C_16 
ROOT
HETATM    1  C   UNL     1     -44.097  57.140 -52.152  1.00  0.00     0.054 C 
HETATM    2  C   UNL     1     -42.973  56.309 -52.643  1.00  0.00     0.003 A 
HETATM    3  C   UNL     1     -41.927  56.667 -53.526  1.00  0.00     0.159 A 
HETATM    4  N   UNL     1     -41.081  55.653 -53.718  1.00  0.00    -0.149 NA
HETATM    5  N   UNL     1     -41.581  54.607 -53.003  1.00  0.00    -0.241 N 
HETATM    6  C   UNL     1     -42.703  54.998 -52.310  1.00  0.00     0.129 A 
ENDROOT
BRANCH   3   7
HETATM    7  N   UNL     1     -41.777  57.914 -54.095  1.00  0.00    -0.291 N 
HETATM    8  C   UNL     1     -42.078  58.317 -55.362  1.00  0.00     0.322 C 
HETATM    9  N   UNL     1     -42.698  57.413 -56.165  1.00  0.00    -0.339 N 
HETATM   10  O   UNL     1     -41.824  59.469 -55.709  1.00  0.00    -0.247 OA
HETATM   11  H   UNL     1     -42.689  56.457 -55.813  1.00  0.00     0.164 HD
HETATM   12  H   UNL     1     -41.395  58.649 -53.519  1.00  0.00     0.172 HD
BRANCH   9  13
HETATM   13  C   UNL     1     -43.040  57.665 -57.553  1.00  0.00     0.082 C 
HETATM   14  C   UNL     1     -44.418  58.317 -57.637  1.00  0.00     0.032 C 
BRANCH  13  15
HETATM   15  C   UNL     1     -42.927  56.399 -58.424  1.00  0.00     0.029 C 
BRANCH  15  16
HETATM   16  C   UNL     1     -44.223  55.968 -59.057  1.00  0.00    -0.013 A 
HETATM   17  C   UNL     1     -44.336  55.768 -60.548  1.00  0.00     0.005 A 
HETATM   18  C   UNL     1     -44.335  54.578 -59.631  1.00  0.00     0.005 A 
ENDBRANCH  15  16
ENDBRANCH  13  15
ENDBRANCH   9  13
ENDBRANCH   3   7
BRANCH   5  19
HETATM   19  C   UNL     1     -40.894  53.355 -53.017  1.00  0.00     0.079 A 
HETATM   20  C   UNL     1     -40.093  52.866 -51.971  1.00  0.00     0.062 A 
HETATM   21 CL   UNL     1     -39.928  53.584 -50.408  1.00  0.00    -0.082 Cl
HETATM   22  C   UNL     1     -39.425  51.637 -52.120  1.00  0.00     0.026 A 
HETATM   23  C   UNL     1     -39.555  50.882 -53.285  1.00  0.00     0.002 A 
HETATM   24  C   UNL     1     -40.367  51.341 -54.312  1.00  0.00     0.002 A 
HETATM   25  C   UNL     1     -41.034  52.561 -54.178  1.00  0.00     0.033 A 
ENDBRANCH   5  19
TORSDOF 5
ENDMDL
MODEL 4
REMARK VINA RESULT:      -7.2      2.427      4.333
REMARK  5 active torsions:
REMARK  status: ('A' for Active; 'I' for Inactive)
REMARK    1  A    between atoms: C_3  and  N_4 
REMARK       I    between atoms: N_4  and  C_5 
REMARK       I    between atoms: C_5  and  N_6 
REMARK    2  A    between atoms: N_6  and  C_7 
REMARK    3  A    between atoms: C_7  and  C_8 
REMARK    4  A    between atoms: C_8  and  C_9 
REMARK    5  A    between atoms: N_15  and  C_16 
ROOT
HETATM    1  C   UNL     1     -44.448  56.681 -54.399  1.00  0.00     0.054 C 
HETATM    2  C   UNL     1     -43.159  55.997 -54.141  1.00  0.00     0.003 A 
HETATM    3  C   UNL     1     -41.849  56.530 -54.185  1.00  0.00     0.159 A 
HETATM    4  N   UNL     1     -40.937  55.608 -53.869  1.00  0.00    -0.149 NA
HETATM    5  N   UNL     1     -41.627  54.453 -53.658  1.00  0.00    -0.241 N 
HETATM    6  C   UNL     1     -42.979  54.679 -53.776  1.00  0.00     0.129 A 
ENDROOT
BRANCH   3   7
HETATM    7  N   UNL     1     -41.549  57.841 -54.484  1.00  0.00    -0.291 N 
HETATM    8  C   UNL     1     -41.519  58.922 -53.653  1.00  0.00     0.322 C 
HETATM    9  N   UNL     1     -41.716  58.687 -52.329  1.00  0.00    -0.339 N 
HETATM   10  O   UNL     1     -41.278  60.035 -54.114  1.00  0.00    -0.247 OA
HETATM   11  H   UNL     1     -42.074  57.758 -52.111  1.00  0.00     0.164 HD
HETATM   12  H   UNL     1     -41.315  58.062 -55.439  1.00  0.00     0.172 HD
BRANCH   9  13
HETATM   13  C   UNL     1     -41.765  59.731 -51.321  1.00  0.00     0.082 C 
HETATM   14  C   UNL     1     -40.809  59.393 -50.179  1.00  0.00     0.032 C 
BRANCH  13  15
HETATM   15  C   UNL     1     -43.201  60.006 -50.833  1.00  0.00     0.029 C 
BRANCH  15  16
HETATM   16  C   UNL     1     -44.262  59.240 -51.577  1.00  0.00    -0.013 A 
HETATM   17  C   UNL     1     -44.910  58.019 -50.974  1.00  0.00     0.005 A 
HETATM   18  C   UNL     1     -45.689  59.299 -51.091  1.00  0.00     0.005 A 
ENDBRANCH  15  16
ENDBRANCH  13  15
ENDBRANCH   9  13
ENDBRANCH   3   7
BRANCH   5  19
HETATM   19  C   UNL     1     -40.916  53.265 -53.309  1.00  0.00     0.079 A 
HETATM   20  C   UNL     1     -40.293  53.035 -52.071  1.00  0.00     0.062 A 
HETATM   21 CL   UNL     1     -40.414  54.051 -50.678  1.00  0.00    -0.082 Cl
HETATM   22  C   UNL     1     -39.579  51.841 -51.860  1.00  0.00     0.026 A 
HETATM   23  C   UNL     1     -39.491  50.868 -52.855  1.00  0.00     0.002 A 
HETATM   24  C   UNL     1     -40.128  51.071 -54.071  1.00  0.00     0.002 A 
HETATM   25  C   UNL     1     -40.837  52.253 -54.294  1.00  0.00     0.033 A 
ENDBRANCH   5  19
TORSDOF 5
ENDMDL
MODEL 5
REMARK VINA RESULT:      -7.2      3.779      6.876
REMARK  5 active torsions:
REMARK  status: ('A' for Active; 'I' for Inactive)
REMARK    1  A    between atoms: C_3  and  N_4 
REMARK       I    between atoms: N_4  and  C_5 
REMARK       I    between atoms: C_5  and  N_6 
REMARK    2  A    between atoms: N_6  and  C_7 
REMARK    3  A    between atoms: C_7  and  C_8 
REMARK    4  A    between atoms: C_8  and  C_9 
REMARK    5  A    between atoms: N_15  and  C_16 
ROOT
HETATM    1  C   UNL     1     -44.532  58.450 -52.702  1.00  0.00     0.054 C 
HETATM    2  C   UNL     1     -44.073  57.630 -53.848  1.00  0.00     0.003 A 
HETATM    3  C   UNL     1     -43.829  56.237 -53.899  1.00  0.00     0.159 A 
HETATM    4  N   UNL     1     -43.445  55.854 -55.118  1.00  0.00    -0.149 NA
HETATM    5  N   UNL     1     -43.388  56.989 -55.868  1.00  0.00    -0.241 N 
HETATM    6  C   UNL     1     -43.807  58.070 -55.128  1.00  0.00     0.129 A 
ENDROOT
BRANCH   3   7
HETATM    7  N   UNL     1     -43.997  55.375 -52.836  1.00  0.00    -0.291 N 
HETATM    8  C   UNL     1     -43.207  54.334 -52.449  1.00  0.00     0.322 C 
HETATM    9  N   UNL     1     -42.042  54.158 -53.127  1.00  0.00    -0.339 N 
HETATM   10  O   UNL     1     -43.547  53.636 -51.495  1.00  0.00    -0.247 OA
HETATM   11  H   UNL     1     -41.970  54.690 -53.992  1.00  0.00     0.164 HD
HETATM   12  H   UNL     1     -44.804  55.508 -52.248  1.00  0.00     0.172 HD
BRANCH   9  13
HETATM   13  C   UNL     1     -41.115  53.070 -52.873  1.00  0.00     0.082 C 
HETATM   14  C   UNL     1     -40.091  53.496 -51.824  1.00  0.00     0.032 C 
BRANCH  13  15
HETATM   15  C   UNL     1     -40.461  52.545 -54.165  1.00  0.00     0.029 C 
BRANCH  15  16
HETATM   16  C   UNL     1     -40.524  51.049 -54.325  1.00  0.00    -0.013 A 
HETATM   17  C   UNL     1     -39.295  50.250 -54.680  1.00  0.00     0.005 A 
HETATM   18  C   UNL     1     -39.865  50.170 -53.292  1.00  0.00     0.005 A 
ENDBRANCH  15  16
ENDBRANCH  13  15
ENDBRANCH   9  13
ENDBRANCH   3   7
BRANCH   5  19
HETATM   19  C   UNL     1     -42.990  56.906 -57.238  1.00  0.00     0.079 A 
HETATM   20  C   UNL     1     -42.332  57.924 -57.947  1.00  0.00     0.062 A 
HETATM   21 CL   UNL     1     -41.715  59.389 -57.268  1.00  0.00    -0.082 Cl
HETATM   22  C   UNL     1     -42.033  57.744 -59.310  1.00  0.00     0.026 A 
HETATM   23  C   UNL     1     -42.365  56.562 -59.971  1.00  0.00     0.002 A 
HETATM   24  C   UNL     1     -42.989  55.538 -59.273  1.00  0.00     0.002 A 
HETATM   25  C   UNL     1     -43.293  55.705 -57.920  1.00  0.00     0.033 A 
ENDBRANCH   5  19
TORSDOF 5
ENDMDL
MODEL 6
REMARK VINA RESULT:      -7.0      2.289      4.400
REMARK  5 active torsions:
REMARK  status: ('A' for Active; 'I' for Inactive)
REMARK    1  A    between atoms: C_3  and  N_4 
REMARK       I    between atoms: N_4  and  C_5 
REMARK       I    between atoms: C_5  and  N_6 
REMARK    2  A    between atoms: N_6  and  C_7 
REMARK    3  A    between atoms: C_7  and  C_8 
REMARK    4  A    between atoms: C_8  and  C_9 
REMARK    5  A    between atoms: N_15  and  C_16 
ROOT
HETATM    1  C   UNL     1     -42.209  56.504 -55.866  1.00  0.00     0.054 C 
HETATM    2  C   UNL     1     -42.071  55.376 -54.915  1.00  0.00     0.003 A 
HETATM    3  C   UNL     1     -42.825  55.104 -53.748  1.00  0.00     0.159 A 
HETATM    4  N   UNL     1     -42.420  53.978 -53.158  1.00  0.00    -0.149 NA
HETATM    5  N   UNL     1     -41.373  53.521 -53.899  1.00  0.00    -0.241 N 
HETATM    6  C   UNL     1     -41.174  54.331 -54.992  1.00  0.00     0.129 A 
ENDROOT
BRANCH   3   7
HETATM    7  N   UNL     1     -43.866  55.883 -53.292  1.00  0.00    -0.291 N 
HETATM    8  C   UNL     1     -43.820  56.994 -52.503  1.00  0.00     0.322 C 
HETATM    9  N   UNL     1     -42.589  57.475 -52.188  1.00  0.00    -0.339 N 
HETATM   10  O   UNL     1     -44.868  57.532 -52.151  1.00  0.00    -0.247 OA
HETATM   11  H   UNL     1     -41.819  56.841 -52.396  1.00  0.00     0.164 HD
HETATM   12  H   UNL     1     -44.801  55.620 -53.562  1.00  0.00     0.172 HD
BRANCH   9  13
HETATM   13  C   UNL     1     -42.366  58.617 -51.318  1.00  0.00     0.082 C 
HETATM   14  C   UNL     1     -42.452  59.909 -52.127  1.00  0.00     0.032 C 
BRANCH  13  15
HETATM   15  C   UNL     1     -41.051  58.499 -50.524  1.00  0.00     0.029 C 
BRANCH  15  16
HETATM   16  C   UNL     1     -40.031  59.556 -50.858  1.00  0.00    -0.013 A 
HETATM   17  C   UNL     1     -38.849  59.811 -49.957  1.00  0.00     0.005 A 
HETATM   18  C   UNL     1     -38.647  59.134 -51.284  1.00  0.00     0.005 A 
ENDBRANCH  15  16
ENDBRANCH  13  15
ENDBRANCH   9  13
ENDBRANCH   3   7
BRANCH   5  19
HETATM   19  C   UNL     1     -40.708  52.318 -53.508  1.00  0.00     0.079 A 
HETATM   20  C   UNL     1     -40.015  52.139 -52.300  1.00  0.00     0.062 A 
HETATM   21 CL   UNL     1     -39.980  53.258 -50.983  1.00  0.00    -0.082 Cl
HETATM   22  C   UNL     1     -39.358  50.921 -52.046  1.00  0.00     0.026 A 
HETATM   23  C   UNL     1     -39.394  49.876 -52.968  1.00  0.00     0.002 A 
HETATM   24  C   UNL     1     -40.102  50.031 -54.152  1.00  0.00     0.002 A 
HETATM   25  C   UNL     1     -40.756  51.236 -54.417  1.00  0.00     0.033 A 
ENDBRANCH   5  19
TORSDOF 5
ENDMDL
MODEL 7
REMARK VINA RESULT:      -7.0      3.159      4.319
REMARK  5 active torsions:
REMARK  status: ('A' for Active; 'I' for Inactive)
REMARK    1  A    between atoms: C_3  and  N_4 
REMARK       I    between atoms: N_4  and  C_5 
REMARK       I    between atoms: C_5  and  N_6 
REMARK    2  A    between atoms: N_6  and  C_7 
REMARK    3  A    between atoms: C_7  and  C_8 
REMARK    4  A    between atoms: C_8  and  C_9 
REMARK    5  A    between atoms: N_15  and  C_16 
ROOT
HETATM    1  C   UNL     1     -42.215  57.930 -51.390  1.00  0.00     0.054 C 
HETATM    2  C   UNL     1     -42.145  56.591 -52.021  1.00  0.00     0.003 A 
HETATM    3  C   UNL     1     -43.012  56.019 -52.982  1.00  0.00     0.159 A 
HETATM    4  N   UNL     1     -42.613  54.794 -53.331  1.00  0.00    -0.149 NA
HETATM    5  N   UNL     1     -41.511  54.529 -52.576  1.00  0.00    -0.241 N 
HETATM    6  C   UNL     1     -41.186  55.622 -51.807  1.00  0.00     0.129 A 
ENDROOT
BRANCH   3   7
HETATM    7  N   UNL     1     -44.112  56.653 -53.517  1.00  0.00    -0.291 N 
HETATM    8  C   UNL     1     -44.352  57.001 -54.813  1.00  0.00     0.322 C 
HETATM    9  N   UNL     1     -43.442  56.596 -55.738  1.00  0.00    -0.339 N 
HETATM   10  O   UNL     1     -45.378  57.615 -55.097  1.00  0.00    -0.247 OA
HETATM   11  H   UNL     1     -42.564  56.253 -55.349  1.00  0.00     0.164 HD
HETATM   12  H   UNL     1     -44.859  56.907 -52.888  1.00  0.00     0.172 HD
BRANCH   9  13
HETATM   13  C   UNL     1     -43.521  56.926 -57.150  1.00  0.00     0.082 C 
HETATM   14  C   UNL     1     -43.249  55.680 -57.989  1.00  0.00     0.032 C 
BRANCH  13  15
HETATM   15  C   UNL     1     -42.609  58.109 -57.527  1.00  0.00     0.029 C 
BRANCH  15  16
HETATM   16  C   UNL     1     -42.948  58.754 -58.844  1.00  0.00    -0.013 A 
HETATM   17  C   UNL     1     -42.103  59.869 -59.408  1.00  0.00     0.005 A 
HETATM   18  C   UNL     1     -42.060  58.505 -60.037  1.00  0.00     0.005 A 
ENDBRANCH  15  16
ENDBRANCH  13  15
ENDBRANCH   9  13
ENDBRANCH   3   7
BRANCH   5  19
HETATM   19  C   UNL     1     -40.851  53.270 -52.716  1.00  0.00     0.079 A 
HETATM   20  C   UNL     1     -40.209  52.578 -51.676  1.00  0.00     0.062 A 
HETATM   21 CL   UNL     1     -40.245  53.014 -50.003  1.00  0.00    -0.082 Cl
HETATM   22  C   UNL     1     -39.550  51.365 -51.946  1.00  0.00     0.026 A 
HETATM   23  C   UNL     1     -39.534  50.823 -53.231  1.00  0.00     0.002 A 
HETATM   24  C   UNL     1     -40.190  51.483 -54.260  1.00  0.00     0.002 A 
HETATM   25  C   UNL     1     -40.846  52.689 -54.006  1.00  0.00     0.033 A 
ENDBRANCH   5  19
TORSDOF 5
ENDMDL
MODEL 8
REMARK VINA RESULT:      -6.8      3.484      4.944
REMARK  5 active torsions:
REMARK  status: ('A' for Active; 'I' for Inactive)
REMARK    1  A    between atoms: C_3  and  N_4 
REMARK       I    between atoms: N_4  and  C_5 
REMARK       I    between atoms: C_5  and  N_6 
REMARK    2  A    between atoms: N_6  and  C_7 
REMARK    3  A    between atoms: C_7  and  C_8 
REMARK    4  A    between atoms: C_8  and  C_9 
REMARK    5  A    between atoms: N_15  and  C_16 
ROOT
HETATM    1  C   UNL     1     -44.631  57.576 -53.330  1.00  0.00     0.054 C 
HETATM    2  C   UNL     1     -43.355  56.823 -53.313  1.00  0.00     0.003 A 
HETATM    3  C   UNL     1     -42.104  57.189 -53.864  1.00  0.00     0.159 A 
HETATM    4  N   UNL     1     -41.176  56.258 -53.628  1.00  0.00    -0.149 NA
HETATM    5  N   UNL     1     -41.812  55.255 -52.963  1.00  0.00    -0.241 N 
HETATM    6  C   UNL     1     -43.122  55.597 -52.724  1.00  0.00     0.129 A 
ENDROOT
BRANCH   3   7
HETATM    7  N   UNL     1     -41.859  58.369 -54.532  1.00  0.00    -0.291 N 
HETATM    8  C   UNL     1     -42.107  58.679 -55.836  1.00  0.00     0.322 C 
HETATM    9  N   UNL     1     -42.769  57.751 -56.576  1.00  0.00    -0.339 N 
HETATM   10  O   UNL     1     -41.770  59.778 -56.273  1.00  0.00    -0.247 OA
HETATM   11  H   UNL     1     -42.832  56.830 -56.144  1.00  0.00     0.164 HD
HETATM   12  H   UNL     1     -41.441  59.125 -54.012  1.00  0.00     0.172 HD
BRANCH   9  13
HETATM   13  C   UNL     1     -43.065  57.904 -57.989  1.00  0.00     0.082 C 
HETATM   14  C   UNL     1     -44.429  58.567 -58.164  1.00  0.00     0.032 C 
BRANCH  13  15
HETATM   15  C   UNL     1     -42.947  56.574 -58.759  1.00  0.00     0.029 C 
BRANCH  15  16
HETATM   16  C   UNL     1     -44.264  56.009 -59.220  1.00  0.00    -0.013 A 
HETATM   17  C   UNL     1     -44.495  55.647 -60.665  1.00  0.00     0.005 A 
HETATM   18  C   UNL     1     -44.338  54.562 -59.637  1.00  0.00     0.005 A 
ENDBRANCH  15  16
ENDBRANCH  13  15
ENDBRANCH   9  13
ENDBRANCH   3   7
BRANCH   5  19
HETATM   19  C   UNL     1     -41.076  54.093 -52.575  1.00  0.00     0.079 A 
HETATM   20  C   UNL     1     -40.444  53.208 -53.464  1.00  0.00     0.062 A 
HETATM   21 CL   UNL     1     -40.277  53.440 -55.168  1.00  0.00    -0.082 Cl
HETATM   22  C   UNL     1     -39.787  52.069 -52.965  1.00  0.00     0.026 A 
HETATM   23  C   UNL     1     -39.736  51.807 -51.596  1.00  0.00     0.002 A 
HETATM   24  C   UNL     1     -40.331  52.690 -50.707  1.00  0.00     0.002 A 
HETATM   25  C   UNL     1     -40.989  53.824 -51.189  1.00  0.00     0.033 A 
ENDBRANCH   5  19
TORSDOF 5
ENDMDL
MODEL 9
REMARK VINA RESULT:      -6.8      3.809      6.754
REMARK  5 active torsions:
REMARK  status: ('A' for Active; 'I' for Inactive)
REMARK    1  A    between atoms: C_3  and  N_4 
REMARK       I    between atoms: N_4  and  C_5 
REMARK       I    between atoms: C_5  and  N_6 
REMARK    2  A    between atoms: N_6  and  C_7 
REMARK    3  A    between atoms: C_7  and  C_8 
REMARK    4  A    between atoms: C_8  and  C_9 
REMARK    5  A    between atoms: N_15  and  C_16 
ROOT
HETATM    1  C   UNL     1     -42.419  53.866 -53.790  1.00  0.00     0.054 C 
HETATM    2  C   UNL     1     -42.784  54.949 -54.732  1.00  0.00     0.003 A 
HETATM    3  C   UNL     1     -43.643  56.054 -54.522  1.00  0.00     0.159 A 
HETATM    4  N   UNL     1     -43.710  56.834 -55.603  1.00  0.00    -0.149 NA
HETATM    5  N   UNL     1     -42.935  56.232 -56.548  1.00  0.00    -0.241 N 
HETATM    6  C   UNL     1     -42.332  55.112 -56.025  1.00  0.00     0.129 A 
ENDROOT
BRANCH   3   7
HETATM    7  N   UNL     1     -44.305  56.315 -53.341  1.00  0.00    -0.291 N 
HETATM    8  C   UNL     1     -43.811  56.834 -52.181  1.00  0.00     0.322 C 
HETATM    9  N   UNL     1     -42.517  57.246 -52.193  1.00  0.00    -0.339 N 
HETATM   10  O   UNL     1     -44.549  56.947 -51.205  1.00  0.00    -0.247 OA
HETATM   11  H   UNL     1     -41.979  56.936 -53.001  1.00  0.00     0.164 HD
HETATM   12  H   UNL     1     -45.290  56.103 -53.299  1.00  0.00     0.172 HD
BRANCH   9  13
HETATM   13  C   UNL     1     -41.825  57.773 -51.029  1.00  0.00     0.082 C 
HETATM   14  C   UNL     1     -41.179  59.113 -51.374  1.00  0.00     0.032 C 
BRANCH  13  15
HETATM   15  C   UNL     1     -40.823  56.764 -50.437  1.00  0.00     0.029 C 
BRANCH  15  16
HETATM   16  C   UNL     1     -41.455  55.691 -49.590  1.00  0.00    -0.013 A 
HETATM   17  C   UNL     1     -41.657  54.294 -50.122  1.00  0.00     0.005 A 
HETATM   18  C   UNL     1     -40.602  54.555 -49.084  1.00  0.00     0.005 A 
ENDBRANCH  15  16
ENDBRANCH  13  15
ENDBRANCH   9  13
ENDBRANCH   3   7
BRANCH   5  19
HETATM   19  C   UNL     1     -42.812  56.830 -57.839  1.00  0.00     0.079 A 
HETATM   20  C   UNL     1     -43.212  56.231 -59.044  1.00  0.00     0.062 A 
HETATM   21 CL   UNL     1     -44.088  54.748 -59.190  1.00  0.00    -0.082 Cl
HETATM   22  C   UNL     1     -42.996  56.900 -60.262  1.00  0.00     0.026 A 
HETATM   23  C   UNL     1     -42.403  58.161 -60.297  1.00  0.00     0.002 A 
HETATM   24  C   UNL     1     -42.031  58.776 -59.110  1.00  0.00     0.002 A 
HETATM   25  C   UNL     1     -42.238  58.121 -57.894  1.00  0.00     0.033 A 
ENDBRANCH   5  19
TORSDOF 5
ENDMDL
MODEL 10
REMARK VINA RESULT:      -6.6      3.537      5.130
REMARK  5 active torsions:
REMARK  status: ('A' for Active; 'I' for Inactive)
REMARK    1  A    between atoms: C_3  and  N_4 
REMARK       I    between atoms: N_4  and  C_5 
REMARK       I    between atoms: C_5  and  N_6 
REMARK    2  A    between atoms: N_6  and  C_7 
REMARK    3  A    between atoms: C_7  and  C_8 
REMARK    4  A    between atoms: C_8  and  C_9 
REMARK    5  A    between atoms: N_15  and  C_16 
ROOT
HETATM    1  C   UNL     1     -41.941  59.257 -53.125  1.00  0.00     0.054 C 
HETATM    2  C   UNL     1     -42.011  57.777 -53.141  1.00  0.00     0.003 A 
HETATM    3  C   UNL     1     -43.065  56.945 -53.590  1.00  0.00     0.159 A 
HETATM    4  N   UNL     1     -42.753  55.654 -53.467  1.00  0.00    -0.149 NA
HETATM    5  N   UNL     1     -41.516  55.618 -52.898  1.00  0.00    -0.241 N 
HETATM    6  C   UNL     1     -41.032  56.895 -52.733  1.00  0.00     0.129 A 
ENDROOT
BRANCH   3   7
HETATM    7  N   UNL     1     -44.252  57.405 -54.117  1.00  0.00    -0.291 N 
HETATM    8  C   UNL     1     -44.626  57.501 -55.425  1.00  0.00     0.322 C 
HETATM    9  N   UNL     1     -43.768  56.996 -56.349  1.00  0.00    -0.339 N 
HETATM   10  O   UNL     1     -45.717  57.990 -55.710  1.00  0.00    -0.247 OA
HETATM   11  H   UNL     1     -42.837  56.783 -55.994  1.00  0.00     0.164 HD
HETATM   12  H   UNL     1     -44.961  57.720 -53.473  1.00  0.00     0.172 HD
BRANCH   9  13
HETATM   13  C   UNL     1     -43.991  57.064 -57.783  1.00  0.00     0.082 C 
HETATM   14  C   UNL     1     -43.328  55.872 -58.468  1.00  0.00     0.032 C 
BRANCH  13  15
HETATM   15  C   UNL     1     -43.551  58.414 -58.380  1.00  0.00     0.029 C 
BRANCH  15  16
HETATM   16  C   UNL     1     -42.181  58.863 -57.948  1.00  0.00    -0.013 A 
HETATM   17  C   UNL     1     -41.645  60.219 -58.334  1.00  0.00     0.005 A 
HETATM   18  C   UNL     1     -42.056  59.953 -56.913  1.00  0.00     0.005 A 
ENDBRANCH  15  16
ENDBRANCH  13  15
ENDBRANCH   9  13
ENDBRANCH   3   7
BRANCH   5  19
HETATM   19  C   UNL     1     -40.904  54.356 -52.626  1.00  0.00     0.079 A 
HETATM   20  C   UNL     1     -40.416  53.472 -53.601  1.00  0.00     0.062 A 
HETATM   21 CL   UNL     1     -40.291  53.806 -55.293  1.00  0.00    -0.082 Cl
HETATM   22  C   UNL     1     -39.876  52.233 -53.212  1.00  0.00     0.026 A 
HETATM   23  C   UNL     1     -39.801  51.868 -51.868  1.00  0.00     0.002 A 
HETATM   24  C   UNL     1     -40.253  52.747 -50.894  1.00  0.00     0.002 A 
HETATM   25  C   UNL     1     -40.794  53.979 -51.267  1.00  0.00     0.033 A 
ENDBRANCH   5  19
TORSDOF 5
ENDMDL
