MODEL 1
REMARK VINA RESULT:      -7.1      0.000      0.000
REMARK  8 active torsions:
REMARK  status: ('A' for Active; 'I' for Inactive)
REMARK    1  A    between atoms: C_4  and  O_5 
REMARK    2  A    between atoms: O_5  and  C_6 
REMARK    3  A    between atoms: C_6  and  C_7 
REMARK    4  A    between atoms: C_7  and  N_8 
REMARK    5  A    between atoms: N_8  and  C_9 
REMARK    6  A    between atoms: C_10  and  C_11 
REMARK       I    between atoms: C_11  and  N_12 
REMARK    7  A    between atoms: N_12  and  C_13 
REMARK    8  A    between atoms: C_13  and  C_14 
ROOT
HETATM    1  C   UNL     1     -39.779  52.169 -52.239  1.00  0.00     0.024 A 
HETATM    2  C   UNL     1     -40.124  52.300 -53.603  1.00  0.00     0.053 A 
HETATM    3  C   UNL     1     -40.253  51.152 -54.408  1.00  0.00     0.019 A 
HETATM    4  C   UNL     1     -40.016  49.882 -53.886  1.00  0.00     0.001 A 
HETATM    5  C   UNL     1     -39.644  49.745 -52.553  1.00  0.00     0.002 A 
HETATM    6  C   UNL     1     -39.530  50.876 -51.740  1.00  0.00     0.024 A 
ENDROOT
BRANCH   1   7
HETATM    7  N   UNL     1     -39.739  53.245 -51.321  1.00  0.00    -0.290 NA
HETATM    8  H   UNL     1     -38.779  53.467 -51.055  1.00  0.00     0.127 HD
BRANCH   7   9
HETATM    9  C   UNL     1     -40.582  53.082 -50.117  1.00  0.00     0.119 C 
BRANCH   9  10
HETATM   10  C   UNL     1     -40.738  54.368 -49.293  1.00  0.00     0.190 C 
BRANCH  10  11
HETATM   11  O   UNL     1     -40.565  55.526 -50.113  1.00  0.00    -0.350 OA
BRANCH  11  12
HETATM   12  C   UNL     1     -41.681  56.231 -50.472  1.00  0.00     0.068 A 
HETATM   13  C   UNL     1     -42.984  55.739 -50.539  1.00  0.00     0.037 A 
HETATM   14  C   UNL     1     -44.032  56.575 -50.939  1.00  0.00     0.003 A 
HETATM   15  C   UNL     1     -43.783  57.905 -51.272  1.00  0.00     0.000 A 
HETATM   16  C   UNL     1     -42.484  58.400 -51.212  1.00  0.00     0.003 A 
HETATM   17  C   UNL     1     -41.438  57.564 -50.819  1.00  0.00     0.037 A 
ENDBRANCH  11  12
ENDBRANCH  10  11
ENDBRANCH   9  10
ENDBRANCH   7   9
ENDBRANCH   1   7
BRANCH   2  18
HETATM   18  C   UNL     1     -40.307  53.604 -54.305  1.00  0.00     0.253 C 
HETATM   19  N   UNL     1     -40.728  54.655 -53.531  1.00  0.00    -0.351 N 
HETATM   20  H   UNL     1     -40.909  54.488 -52.543  1.00  0.00     0.163 HD
HETATM   21  O   UNL     1     -40.052  53.710 -55.499  1.00  0.00    -0.268 OA
BRANCH  19  22
HETATM   22  C   UNL     1     -40.823  55.994 -54.051  1.00  0.00     0.187 C 
BRANCH  22  23
HETATM   23  C   UNL     1     -42.245  56.301 -54.329  1.00  0.00     0.070 A 
HETATM   24  O   UNL     1     -42.536  57.583 -54.701  1.00  0.00    -0.325 OA
HETATM   25  C   UNL     1     -43.877  57.643 -54.903  1.00  0.00     0.142 A 
HETATM   26  C   UNL     1     -44.455  56.419 -54.663  1.00  0.00     0.027 A 
HETATM   27  C   UNL     1     -43.402  55.550 -54.289  1.00  0.00     0.036 A 
ENDBRANCH  22  23
ENDBRANCH  19  22
ENDBRANCH   2  18
TORSDOF 8
ENDMDL
MODEL 2
REMARK VINA RESULT:      -6.9      1.871      5.738
REMARK  8 active torsions:
REMARK  status: ('A' for Active; 'I' for Inactive)
REMARK    1  A    between atoms: C_4  and  O_5 
REMARK    2  A    between atoms: O_5  and  C_6 
REMARK    3  A    between atoms: C_6  and  C_7 
REMARK    4  A    between atoms: C_7  and  N_8 
REMARK    5  A    between atoms: N_8  and  C_9 
REMARK    6  A    between atoms: C_10  and  C_11 
REMARK       I    between atoms: C_11  and  N_12 
REMARK    7  A    between atoms: N_12  and  C_13 
REMARK    8  A    between atoms: C_13  and  C_14 
ROOT
HETATM    1  C   UNL     1     -43.811  56.308 -53.528  1.00  0.00     0.024 A 
HETATM    2  C   UNL     1     -42.894  55.288 -53.187  1.00  0.00     0.053 A 
HETATM    3  C   UNL     1     -42.542  55.083 -51.839  1.00  0.00     0.019 A 
HETATM    4  C   UNL     1     -43.063  55.892 -50.832  1.00  0.00     0.001 A 
HETATM    5  C   UNL     1     -43.941  56.919 -51.161  1.00  0.00     0.002 A 
HETATM    6  C   UNL     1     -44.312  57.121 -52.493  1.00  0.00     0.024 A 
ENDROOT
BRANCH   1   7
HETATM    7  N   UNL     1     -44.319  56.520 -54.831  1.00  0.00    -0.290 NA
HETATM    8  H   UNL     1     -44.125  55.722 -55.437  1.00  0.00     0.127 HD
BRANCH   7   9
HETATM    9  C   UNL     1     -43.891  57.777 -55.481  1.00  0.00     0.119 C 
BRANCH   9  10
HETATM   10  C   UNL     1     -42.374  57.880 -55.689  1.00  0.00     0.190 C 
BRANCH  10  11
HETATM   11  O   UNL     1     -41.876  59.134 -55.219  1.00  0.00    -0.350 OA
BRANCH  11  12
HETATM   12  C   UNL     1     -41.712  59.296 -53.870  1.00  0.00     0.068 A 
HETATM   13  C   UNL     1     -42.378  60.217 -53.061  1.00  0.00     0.037 A 
HETATM   14  C   UNL     1     -42.099  60.282 -51.692  1.00  0.00     0.003 A 
HETATM   15  C   UNL     1     -41.156  59.426 -51.125  1.00  0.00     0.000 A 
HETATM   16  C   UNL     1     -40.484  58.510 -51.928  1.00  0.00     0.003 A 
HETATM   17  C   UNL     1     -40.759  58.450 -53.296  1.00  0.00     0.037 A 
ENDBRANCH  11  12
ENDBRANCH  10  11
ENDBRANCH   9  10
ENDBRANCH   7   9
ENDBRANCH   1   7
BRANCH   2  18
HETATM   18  C   UNL     1     -42.192  54.421 -54.178  1.00  0.00     0.253 C 
HETATM   19  N   UNL     1     -40.884  54.120 -53.901  1.00  0.00    -0.351 N 
HETATM   20  H   UNL     1     -40.462  54.514 -53.063  1.00  0.00     0.163 HD
HETATM   21  O   UNL     1     -42.790  53.984 -55.155  1.00  0.00    -0.268 OA
BRANCH  19  22
HETATM   22  C   UNL     1     -40.129  53.193 -54.704  1.00  0.00     0.187 C 
BRANCH  22  23
HETATM   23  C   UNL     1     -39.954  51.933 -53.945  1.00  0.00     0.070 A 
HETATM   24  O   UNL     1     -39.701  52.050 -52.608  1.00  0.00    -0.325 OA
HETATM   25  C   UNL     1     -39.577  50.791 -52.116  1.00  0.00     0.142 A 
HETATM   26  C   UNL     1     -39.742  49.864 -53.118  1.00  0.00     0.027 A 
HETATM   27  C   UNL     1     -39.984  50.600 -54.302  1.00  0.00     0.036 A 
ENDBRANCH  22  23
ENDBRANCH  19  22
ENDBRANCH   2  18
TORSDOF 8
ENDMDL
MODEL 3
REMARK VINA RESULT:      -6.8      2.296      5.594
REMARK  8 active torsions:
REMARK  status: ('A' for Active; 'I' for Inactive)
REMARK    1  A    between atoms: C_4  and  O_5 
REMARK    2  A    between atoms: O_5  and  C_6 
REMARK    3  A    between atoms: C_6  and  C_7 
REMARK    4  A    between atoms: C_7  and  N_8 
REMARK    5  A    between atoms: N_8  and  C_9 
REMARK    6  A    between atoms: C_10  and  C_11 
REMARK       I    between atoms: C_11  and  N_12 
REMARK    7  A    between atoms: N_12  and  C_13 
REMARK    8  A    between atoms: C_13  and  C_14 
ROOT
HETATM    1  C   UNL     1     -41.834  57.340 -51.291  1.00  0.00     0.024 A 
HETATM    2  C   UNL     1     -41.762  57.403 -52.701  1.00  0.00     0.053 A 
HETATM    3  C   UNL     1     -40.800  58.222 -53.320  1.00  0.00     0.019 A 
HETATM    4  C   UNL     1     -39.929  59.001 -52.561  1.00  0.00     0.001 A 
HETATM    5  C   UNL     1     -40.013  58.973 -51.173  1.00  0.00     0.002 A 
HETATM    6  C   UNL     1     -40.952  58.149 -50.547  1.00  0.00     0.024 A 
ENDROOT
BRANCH   1   7
HETATM    7  N   UNL     1     -42.681  56.464 -50.574  1.00  0.00    -0.290 NA
HETATM    8  H   UNL     1     -43.136  56.944 -49.798  1.00  0.00     0.127 HD
BRANCH   7   9
HETATM    9  C   UNL     1     -42.048  55.212 -50.106  1.00  0.00     0.119 C 
BRANCH   9  10
HETATM   10  C   UNL     1     -42.058  54.087 -51.150  1.00  0.00     0.190 C 
BRANCH  10  11
HETATM   11  O   UNL     1     -40.847  54.080 -51.909  1.00  0.00    -0.350 OA
BRANCH  11  12
HETATM   12  C   UNL     1     -40.473  52.910 -52.512  1.00  0.00     0.068 A 
HETATM   13  C   UNL     1     -40.669  52.571 -53.851  1.00  0.00     0.037 A 
HETATM   14  C   UNL     1     -40.247  51.326 -54.329  1.00  0.00     0.003 A 
HETATM   15  C   UNL     1     -39.626  50.417 -53.475  1.00  0.00     0.000 A 
HETATM   16  C   UNL     1     -39.433  50.748 -52.137  1.00  0.00     0.003 A 
HETATM   17  C   UNL     1     -39.860  51.988 -51.659  1.00  0.00     0.037 A 
ENDBRANCH  11  12
ENDBRANCH  10  11
ENDBRANCH   9  10
ENDBRANCH   7   9
ENDBRANCH   1   7
BRANCH   2  18
HETATM   18  C   UNL     1     -42.698  56.696 -53.624  1.00  0.00     0.253 C 
HETATM   19  N   UNL     1     -42.180  56.306 -54.832  1.00  0.00    -0.351 N 
HETATM   20  H   UNL     1     -41.210  56.533 -55.039  1.00  0.00     0.163 HD
HETATM   21  O   UNL     1     -43.850  56.457 -53.278  1.00  0.00    -0.268 OA
BRANCH  19  22
HETATM   22  C   UNL     1     -42.934  55.506 -55.762  1.00  0.00     0.187 C 
BRANCH  22  23
HETATM   23  C   UNL     1     -42.850  56.125 -57.106  1.00  0.00     0.070 A 
HETATM   24  O   UNL     1     -42.371  57.403 -57.165  1.00  0.00    -0.325 OA
HETATM   25  C   UNL     1     -42.379  57.769 -58.472  1.00  0.00     0.142 A 
HETATM   26  C   UNL     1     -42.861  56.747 -59.255  1.00  0.00     0.027 A 
HETATM   27  C   UNL     1     -43.168  55.684 -58.374  1.00  0.00     0.036 A 
ENDBRANCH  22  23
ENDBRANCH  19  22
ENDBRANCH   2  18
TORSDOF 8
ENDMDL
MODEL 4
REMARK VINA RESULT:      -6.8      2.863      3.899
REMARK  8 active torsions:
REMARK  status: ('A' for Active; 'I' for Inactive)
REMARK    1  A    between atoms: C_4  and  O_5 
REMARK    2  A    between atoms: O_5  and  C_6 
REMARK    3  A    between atoms: C_6  and  C_7 
REMARK    4  A    between atoms: C_7  and  N_8 
REMARK    5  A    between atoms: N_8  and  C_9 
REMARK    6  A    between atoms: C_10  and  C_11 
REMARK       I    between atoms: C_11  and  N_12 
REMARK    7  A    between atoms: N_12  and  C_13 
REMARK    8  A    between atoms: C_13  and  C_14 
ROOT
HETATM    1  C   UNL     1     -42.435  54.263 -53.465  1.00  0.00     0.024 A 
HETATM    2  C   UNL     1     -42.073  54.847 -54.699  1.00  0.00     0.053 A 
HETATM    3  C   UNL     1     -40.887  54.450 -55.343  1.00  0.00     0.019 A 
HETATM    4  C   UNL     1     -40.042  53.505 -54.766  1.00  0.00     0.001 A 
HETATM    5  C   UNL     1     -40.371  52.948 -53.536  1.00  0.00     0.002 A 
HETATM    6  C   UNL     1     -41.556  53.321 -52.895  1.00  0.00     0.024 A 
ENDROOT
BRANCH   1   7
HETATM    7  N   UNL     1     -43.658  54.504 -52.796  1.00  0.00    -0.290 NA
HETATM    8  H   UNL     1     -44.147  55.303 -53.199  1.00  0.00     0.127 HD
BRANCH   7   9
HETATM    9  C   UNL     1     -43.561  54.646 -51.327  1.00  0.00     0.119 C 
BRANCH   9  10
HETATM   10  C   UNL     1     -43.758  56.086 -50.831  1.00  0.00     0.190 C 
BRANCH  10  11
HETATM   11  O   UNL     1     -42.527  56.810 -50.854  1.00  0.00    -0.350 OA
BRANCH  11  12
HETATM   12  C   UNL     1     -42.316  57.688 -51.883  1.00  0.00     0.068 A 
HETATM   13  C   UNL     1     -43.240  58.599 -52.394  1.00  0.00     0.037 A 
HETATM   14  C   UNL     1     -42.891  59.428 -53.464  1.00  0.00     0.003 A 
HETATM   15  C   UNL     1     -41.617  59.353 -54.027  1.00  0.00     0.000 A 
HETATM   16  C   UNL     1     -40.694  58.442 -53.524  1.00  0.00     0.003 A 
HETATM   17  C   UNL     1     -41.045  57.610 -52.460  1.00  0.00     0.037 A 
ENDBRANCH  11  12
ENDBRANCH  10  11
ENDBRANCH   9  10
ENDBRANCH   7   9
ENDBRANCH   1   7
BRANCH   2  18
HETATM   18  C   UNL     1     -42.840  55.938 -55.371  1.00  0.00     0.253 C 
HETATM   19  N   UNL     1     -42.304  56.428 -56.534  1.00  0.00    -0.351 N 
HETATM   20  H   UNL     1     -41.419  56.045 -56.860  1.00  0.00     0.163 HD
HETATM   21  O   UNL     1     -43.906  56.326 -54.907  1.00  0.00    -0.268 OA
BRANCH  19  22
HETATM   22  C   UNL     1     -43.002  57.389 -57.348  1.00  0.00     0.187 C 
BRANCH  22  23
HETATM   23  C   UNL     1     -43.612  56.687 -58.502  1.00  0.00     0.070 A 
HETATM   24  O   UNL     1     -44.867  57.082 -58.867  1.00  0.00    -0.325 OA
HETATM   25  C   UNL     1     -45.229  56.319 -59.930  1.00  0.00     0.142 A 
HETATM   26  C   UNL     1     -44.227  55.435 -60.252  1.00  0.00     0.027 A 
HETATM   27  C   UNL     1     -43.181  55.670 -59.328  1.00  0.00     0.036 A 
ENDBRANCH  22  23
ENDBRANCH  19  22
ENDBRANCH   2  18
TORSDOF 8
ENDMDL
MODEL 5
REMARK VINA RESULT:      -6.7      2.657      5.169
REMARK  8 active torsions:
REMARK  status: ('A' for Active; 'I' for Inactive)
REMARK    1  A    between atoms: C_4  and  O_5 
REMARK    2  A    between atoms: O_5  and  C_6 
REMARK    3  A    between atoms: C_6  and  C_7 
REMARK    4  A    between atoms: C_7  and  N_8 
REMARK    5  A    between atoms: N_8  and  C_9 
REMARK    6  A    between atoms: C_10  and  C_11 
REMARK       I    between atoms: C_11  and  N_12 
REMARK    7  A    between atoms: N_12  and  C_13 
REMARK    8  A    between atoms: C_13  and  C_14 
ROOT
HETATM    1  C   UNL     1     -41.246  52.993 -53.803  1.00  0.00     0.024 A 
HETATM    2  C   UNL     1     -41.039  53.430 -52.475  1.00  0.00     0.053 A 
HETATM    3  C   UNL     1     -40.103  52.770 -51.657  1.00  0.00     0.019 A 
HETATM    4  C   UNL     1     -39.393  51.668 -52.127  1.00  0.00     0.001 A 
HETATM    5  C   UNL     1     -39.613  51.209 -53.421  1.00  0.00     0.002 A 
HETATM    6  C   UNL     1     -40.527  51.867 -54.249  1.00  0.00     0.024 A 
ENDROOT
BRANCH   1   7
HETATM    7  N   UNL     1     -42.072  53.656 -54.741  1.00  0.00    -0.290 NA
HETATM    8  H   UNL     1     -42.466  52.999 -55.414  1.00  0.00     0.127 HD
BRANCH   7   9
HETATM    9  C   UNL     1     -41.447  54.798 -55.441  1.00  0.00     0.119 C 
BRANCH   9  10
HETATM   10  C   UNL     1     -42.170  56.133 -55.214  1.00  0.00     0.190 C 
BRANCH  10  11
HETATM   11  O   UNL     1     -43.260  56.288 -56.126  1.00  0.00    -0.350 OA
BRANCH  11  12
HETATM   12  C   UNL     1     -42.967  56.536 -57.439  1.00  0.00     0.068 A 
HETATM   13  C   UNL     1     -43.230  55.691 -58.518  1.00  0.00     0.037 A 
HETATM   14  C   UNL     1     -42.860  56.069 -59.813  1.00  0.00     0.003 A 
HETATM   15  C   UNL     1     -42.229  57.292 -60.036  1.00  0.00     0.000 A 
HETATM   16  C   UNL     1     -41.960  58.135 -58.964  1.00  0.00     0.003 A 
HETATM   17  C   UNL     1     -42.323  57.755 -57.670  1.00  0.00     0.037 A 
ENDBRANCH  11  12
ENDBRANCH  10  11
ENDBRANCH   9  10
ENDBRANCH   7   9
ENDBRANCH   1   7
BRANCH   2  18
HETATM   18  C   UNL     1     -41.804  54.533 -51.823  1.00  0.00     0.253 C 
HETATM   19  N   UNL     1     -41.059  55.500 -51.197  1.00  0.00    -0.351 N 
HETATM   20  H   UNL     1     -40.046  55.405 -51.193  1.00  0.00     0.163 HD
HETATM   21  O   UNL     1     -43.027  54.568 -51.892  1.00  0.00    -0.268 OA
BRANCH  19  22
HETATM   22  C   UNL     1     -41.662  56.682 -50.639  1.00  0.00     0.187 C 
BRANCH  22  23
HETATM   23  C   UNL     1     -41.661  57.752 -51.665  1.00  0.00     0.070 A 
HETATM   24  O   UNL     1     -42.879  58.164 -52.124  1.00  0.00    -0.325 OA
HETATM   25  C   UNL     1     -42.648  59.135 -53.044  1.00  0.00     0.142 A 
HETATM   26  C   UNL     1     -41.298  59.350 -53.188  1.00  0.00     0.027 A 
HETATM   27  C   UNL     1     -40.657  58.455 -52.299  1.00  0.00     0.036 A 
ENDBRANCH  22  23
ENDBRANCH  19  22
ENDBRANCH   2  18
TORSDOF 8
ENDMDL
MODEL 6
REMARK VINA RESULT:      -6.7      1.907      5.456
REMARK  8 active torsions:
REMARK  status: ('A' for Active; 'I' for Inactive)
REMARK    1  A    between atoms: C_4  and  O_5 
REMARK    2  A    between atoms: O_5  and  C_6 
REMARK    3  A    between atoms: C_6  and  C_7 
REMARK    4  A    between atoms: C_7  and  N_8 
REMARK    5  A    between atoms: N_8  and  C_9 
REMARK    6  A    between atoms: C_10  and  C_11 
REMARK       I    between atoms: C_11  and  N_12 
REMARK    7  A    between atoms: N_12  and  C_13 
REMARK    8  A    between atoms: C_13  and  C_14 
ROOT
HETATM    1  C   UNL     1     -42.433  55.230 -52.012  1.00  0.00     0.024 A 
HETATM    2  C   UNL     1     -41.875  56.442 -51.546  1.00  0.00     0.053 A 
HETATM    3  C   UNL     1     -41.276  56.496 -50.274  1.00  0.00     0.019 A 
HETATM    4  C   UNL     1     -41.248  55.374 -49.448  1.00  0.00     0.001 A 
HETATM    5  C   UNL     1     -41.823  54.186 -49.883  1.00  0.00     0.002 A 
HETATM    6  C   UNL     1     -42.406  54.115 -51.152  1.00  0.00     0.024 A 
ENDROOT
BRANCH   1   7
HETATM    7  N   UNL     1     -42.951  55.040 -53.314  1.00  0.00    -0.290 NA
HETATM    8  H   UNL     1     -43.969  55.098 -53.318  1.00  0.00     0.127 HD
BRANCH   7   9
HETATM    9  C   UNL     1     -42.503  53.809 -54.001  1.00  0.00     0.119 C 
BRANCH   9  10
HETATM   10  C   UNL     1     -41.148  53.955 -54.708  1.00  0.00     0.190 C 
BRANCH  10  11
HETATM   11  O   UNL     1     -40.075  53.566 -53.846  1.00  0.00    -0.350 OA
BRANCH  11  12
HETATM   12  C   UNL     1     -39.950  52.239 -53.536  1.00  0.00     0.068 A 
HETATM   13  C   UNL     1     -40.090  51.167 -54.418  1.00  0.00     0.037 A 
HETATM   14  C   UNL     1     -39.950  49.854 -53.957  1.00  0.00     0.003 A 
HETATM   15  C   UNL     1     -39.667  49.606 -52.614  1.00  0.00     0.000 A 
HETATM   16  C   UNL     1     -39.533  50.671 -51.729  1.00  0.00     0.003 A 
HETATM   17  C   UNL     1     -39.679  51.981 -52.190  1.00  0.00     0.037 A 
ENDBRANCH  11  12
ENDBRANCH  10  11
ENDBRANCH   9  10
ENDBRANCH   7   9
ENDBRANCH   1   7
BRANCH   2  18
HETATM   18  C   UNL     1     -41.928  57.734 -52.291  1.00  0.00     0.253 C 
HETATM   19  N   UNL     1     -41.477  57.707 -53.585  1.00  0.00    -0.351 N 
HETATM   20  H   UNL     1     -41.119  56.830 -53.956  1.00  0.00     0.163 HD
HETATM   21  O   UNL     1     -42.389  58.739 -51.761  1.00  0.00    -0.268 OA
BRANCH  19  22
HETATM   22  C   UNL     1     -41.589  58.849 -54.455  1.00  0.00     0.187 C 
BRANCH  22  23
HETATM   23  C   UNL     1     -42.274  58.437 -55.703  1.00  0.00     0.070 A 
HETATM   24  O   UNL     1     -42.551  57.107 -55.841  1.00  0.00    -0.325 OA
HETATM   25  C   UNL     1     -43.170  56.953 -57.039  1.00  0.00     0.142 A 
HETATM   26  C   UNL     1     -43.291  58.165 -57.678  1.00  0.00     0.027 A 
HETATM   27  C   UNL     1     -42.709  59.125 -56.817  1.00  0.00     0.036 A 
ENDBRANCH  22  23
ENDBRANCH  19  22
ENDBRANCH   2  18
TORSDOF 8
ENDMDL
MODEL 7
REMARK VINA RESULT:      -6.6      2.264      5.640
REMARK  8 active torsions:
REMARK  status: ('A' for Active; 'I' for Inactive)
REMARK    1  A    between atoms: C_4  and  O_5 
REMARK    2  A    between atoms: O_5  and  C_6 
REMARK    3  A    between atoms: C_6  and  C_7 
REMARK    4  A    between atoms: C_7  and  N_8 
REMARK    5  A    between atoms: N_8  and  C_9 
REMARK    6  A    between atoms: C_10  and  C_11 
REMARK       I    between atoms: C_11  and  N_12 
REMARK    7  A    between atoms: N_12  and  C_13 
REMARK    8  A    between atoms: C_13  and  C_14 
ROOT
HETATM    1  C   UNL     1     -43.129  56.417 -51.843  1.00  0.00     0.024 A 
HETATM    2  C   UNL     1     -42.732  55.218 -52.477  1.00  0.00     0.053 A 
HETATM    3  C   UNL     1     -43.199  54.920 -53.771  1.00  0.00     0.019 A 
HETATM    4  C   UNL     1     -44.076  55.778 -54.431  1.00  0.00     0.001 A 
HETATM    5  C   UNL     1     -44.499  56.944 -53.803  1.00  0.00     0.002 A 
HETATM    6  C   UNL     1     -44.029  57.260 -52.525  1.00  0.00     0.024 A 
ENDROOT
BRANCH   1   7
HETATM    7  N   UNL     1     -42.627  56.865 -50.599  1.00  0.00    -0.290 NA
HETATM    8  H   UNL     1     -43.282  57.501 -50.145  1.00  0.00     0.127 HD
BRANCH   7   9
HETATM    9  C   UNL     1     -41.274  57.459 -50.639  1.00  0.00     0.119 C 
BRANCH   9  10
HETATM   10  C   UNL     1     -41.272  58.994 -50.604  1.00  0.00     0.190 C 
BRANCH  10  11
HETATM   11  O   UNL     1     -40.651  59.533 -51.774  1.00  0.00    -0.350 OA
BRANCH  11  12
HETATM   12  C   UNL     1     -41.416  59.675 -52.900  1.00  0.00     0.068 A 
HETATM   13  C   UNL     1     -41.234  59.010 -54.112  1.00  0.00     0.037 A 
HETATM   14  C   UNL     1     -42.088  59.267 -55.190  1.00  0.00     0.003 A 
HETATM   15  C   UNL     1     -43.128  60.185 -55.060  1.00  0.00     0.000 A 
HETATM   16  C   UNL     1     -43.311  60.855 -53.855  1.00  0.00     0.003 A 
HETATM   17  C   UNL     1     -42.454  60.604 -52.782  1.00  0.00     0.037 A 
ENDBRANCH  11  12
ENDBRANCH  10  11
ENDBRANCH   9  10
ENDBRANCH   7   9
ENDBRANCH   1   7
BRANCH   2  18
HETATM   18  C   UNL     1     -41.878  54.172 -51.842  1.00  0.00     0.253 C 
HETATM   19  N   UNL     1     -40.788  53.758 -52.563  1.00  0.00    -0.351 N 
HETATM   20  H   UNL     1     -40.634  54.163 -53.484  1.00  0.00     0.163 HD
HETATM   21  O   UNL     1     -42.139  53.753 -50.719  1.00  0.00    -0.268 OA
BRANCH  19  22
HETATM   22  C   UNL     1     -39.813  52.851 -52.016  1.00  0.00     0.187 C 
BRANCH  22  23
HETATM   23  C   UNL     1     -39.809  51.608 -52.824  1.00  0.00     0.070 A 
HETATM   24  O   UNL     1     -39.547  50.444 -52.159  1.00  0.00    -0.325 OA
HETATM   25  C   UNL     1     -39.592  49.444 -53.076  1.00  0.00     0.142 A 
HETATM   26  C   UNL     1     -39.874  49.948 -54.324  1.00  0.00     0.027 A 
HETATM   27  C   UNL     1     -40.012  51.347 -54.163  1.00  0.00     0.036 A 
ENDBRANCH  22  23
ENDBRANCH  19  22
ENDBRANCH   2  18
TORSDOF 8
ENDMDL
MODEL 8
REMARK VINA RESULT:      -6.6      1.652      3.745
REMARK  8 active torsions:
REMARK  status: ('A' for Active; 'I' for Inactive)
REMARK    1  A    between atoms: C_4  and  O_5 
REMARK    2  A    between atoms: O_5  and  C_6 
REMARK    3  A    between atoms: C_6  and  C_7 
REMARK    4  A    between atoms: C_7  and  N_8 
REMARK    5  A    between atoms: N_8  and  C_9 
REMARK    6  A    between atoms: C_10  and  C_11 
REMARK       I    between atoms: C_11  and  N_12 
REMARK    7  A    between atoms: N_12  and  C_13 
REMARK    8  A    between atoms: C_13  and  C_14 
ROOT
HETATM    1  C   UNL     1     -40.487  53.075 -53.349  1.00  0.00     0.024 A 
HETATM    2  C   UNL     1     -40.182  52.776 -52.002  1.00  0.00     0.053 A 
HETATM    3  C   UNL     1     -39.704  51.498 -51.658  1.00  0.00     0.019 A 
HETATM    4  C   UNL     1     -39.555  50.506 -52.624  1.00  0.00     0.001 A 
HETATM    5  C   UNL     1     -39.884  50.779 -53.947  1.00  0.00     0.002 A 
HETATM    6  C   UNL     1     -40.342  52.050 -54.304  1.00  0.00     0.024 A 
ENDROOT
BRANCH   1   7
HETATM    7  N   UNL     1     -40.859  54.358 -53.817  1.00  0.00    -0.290 NA
HETATM    8  H   UNL     1     -40.809  55.051 -53.070  1.00  0.00     0.127 HD
BRANCH   7   9
HETATM    9  C   UNL     1     -42.170  54.429 -54.498  1.00  0.00     0.119 C 
BRANCH   9  10
HETATM   10  C   UNL     1     -43.306  54.939 -53.600  1.00  0.00     0.190 C 
BRANCH  10  11
HETATM   11  O   UNL     1     -44.006  56.018 -54.222  1.00  0.00    -0.350 OA
BRANCH  11  12
HETATM   12  C   UNL     1     -44.277  57.128 -53.468  1.00  0.00     0.068 A 
HETATM   13  C   UNL     1     -44.422  58.433 -53.940  1.00  0.00     0.037 A 
HETATM   14  C   UNL     1     -44.684  59.477 -53.047  1.00  0.00     0.003 A 
HETATM   15  C   UNL     1     -44.804  59.223 -51.682  1.00  0.00     0.000 A 
HETATM   16  C   UNL     1     -44.655  57.925 -51.206  1.00  0.00     0.003 A 
HETATM   17  C   UNL     1     -44.387  56.883 -52.096  1.00  0.00     0.037 A 
ENDBRANCH  11  12
ENDBRANCH  10  11
ENDBRANCH   9  10
ENDBRANCH   7   9
ENDBRANCH   1   7
BRANCH   2  18
HETATM   18  C   UNL     1     -40.391  53.717 -50.863  1.00  0.00     0.253 C 
HETATM   19  N   UNL     1     -40.677  55.016 -51.193  1.00  0.00    -0.351 N 
HETATM   20  H   UNL     1     -40.711  55.270 -52.178  1.00  0.00     0.163 HD
HETATM   21  O   UNL     1     -40.341  53.314 -49.706  1.00  0.00    -0.268 OA
BRANCH  19  22
HETATM   22  C   UNL     1     -41.025  55.996 -50.197  1.00  0.00     0.187 C 
BRANCH  22  23
HETATM   23  C   UNL     1     -41.021  57.340 -50.824  1.00  0.00     0.070 A 
HETATM   24  O   UNL     1     -40.965  57.381 -52.188  1.00  0.00    -0.325 OA
HETATM   25  C   UNL     1     -40.972  58.691 -52.545  1.00  0.00     0.142 A 
HETATM   26  C   UNL     1     -41.026  59.494 -51.430  1.00  0.00     0.027 A 
HETATM   27  C   UNL     1     -41.056  58.622 -50.316  1.00  0.00     0.036 A 
ENDBRANCH  22  23
ENDBRANCH  19  22
ENDBRANCH   2  18
TORSDOF 8
ENDMDL
MODEL 9
REMARK VINA RESULT:      -6.6      2.337      5.160
REMARK  8 active torsions:
REMARK  status: ('A' for Active; 'I' for Inactive)
REMARK    1  A    between atoms: C_4  and  O_5 
REMARK    2  A    between atoms: O_5  and  C_6 
REMARK    3  A    between atoms: C_6  and  C_7 
REMARK    4  A    between atoms: C_7  and  N_8 
REMARK    5  A    between atoms: N_8  and  C_9 
REMARK    6  A    between atoms: C_10  and  C_11 
REMARK       I    between atoms: C_11  and  N_12 
REMARK    7  A    between atoms: N_12  and  C_13 
REMARK    8  A    between atoms: C_13  and  C_14 
ROOT
HETATM    1  C   UNL     1     -40.283  52.436 -53.520  1.00  0.00     0.024 A 
HETATM    2  C   UNL     1     -40.088  52.234 -52.135  1.00  0.00     0.053 A 
HETATM    3  C   UNL     1     -39.711  50.965 -51.657  1.00  0.00     0.019 A 
HETATM    4  C   UNL     1     -39.554  49.890 -52.529  1.00  0.00     0.001 A 
HETATM    5  C   UNL     1     -39.775  50.070 -53.889  1.00  0.00     0.002 A 
HETATM    6  C   UNL     1     -40.132  51.330 -54.378  1.00  0.00     0.024 A 
ENDROOT
BRANCH   1   7
HETATM    7  N   UNL     1     -40.546  53.694 -54.113  1.00  0.00    -0.290 NA
HETATM    8  H   UNL     1     -40.345  54.456 -53.465  1.00  0.00     0.127 HD
BRANCH   7   9
HETATM    9  C   UNL     1     -41.898  53.851 -54.690  1.00  0.00     0.119 C 
BRANCH   9  10
HETATM   10  C   UNL     1     -42.094  55.168 -55.454  1.00  0.00     0.190 C 
BRANCH  10  11
HETATM   11  O   UNL     1     -43.035  55.010 -56.518  1.00  0.00    -0.350 OA
BRANCH  11  12
HETATM   12  C   UNL     1     -42.941  55.855 -57.590  1.00  0.00     0.068 A 
HETATM   13  C   UNL     1     -43.248  55.548 -58.915  1.00  0.00     0.037 A 
HETATM   14  C   UNL     1     -43.089  56.512 -59.916  1.00  0.00     0.003 A 
HETATM   15  C   UNL     1     -42.625  57.788 -59.597  1.00  0.00     0.000 A 
HETATM   16  C   UNL     1     -42.312  58.098 -58.277  1.00  0.00     0.003 A 
HETATM   17  C   UNL     1     -42.465  57.133 -57.280  1.00  0.00     0.037 A 
ENDBRANCH  11  12
ENDBRANCH  10  11
ENDBRANCH   9  10
ENDBRANCH   7   9
ENDBRANCH   1   7
BRANCH   2  18
HETATM   18  C   UNL     1     -40.319  53.275 -51.091  1.00  0.00     0.253 C 
HETATM   19  N   UNL     1     -41.610  53.716 -50.949  1.00  0.00    -0.351 N 
HETATM   20  H   UNL     1     -42.323  53.333 -51.565  1.00  0.00     0.163 HD
HETATM   21  O   UNL     1     -39.394  53.668 -50.388  1.00  0.00    -0.268 OA
BRANCH  19  22
HETATM   22  C   UNL     1     -41.994  54.622 -49.898  1.00  0.00     0.187 C 
BRANCH  22  23
HETATM   23  C   UNL     1     -42.085  55.992 -50.456  1.00  0.00     0.070 A 
HETATM   24  O   UNL     1     -40.993  56.796 -50.291  1.00  0.00    -0.325 OA
HETATM   25  C   UNL     1     -41.288  57.989 -50.868  1.00  0.00     0.142 A 
HETATM   26  C   UNL     1     -42.557  57.966 -51.399  1.00  0.00     0.027 A 
HETATM   27  C   UNL     1     -43.075  56.677 -51.131  1.00  0.00     0.036 A 
ENDBRANCH  22  23
ENDBRANCH  19  22
ENDBRANCH   2  18
TORSDOF 8
ENDMDL
MODEL 10
REMARK VINA RESULT:      -6.6      2.476      5.177
REMARK  8 active torsions:
REMARK  status: ('A' for Active; 'I' for Inactive)
REMARK    1  A    between atoms: C_4  and  O_5 
REMARK    2  A    between atoms: O_5  and  C_6 
REMARK    3  A    between atoms: C_6  and  C_7 
REMARK    4  A    between atoms: C_7  and  N_8 
REMARK    5  A    between atoms: N_8  and  C_9 
REMARK    6  A    between atoms: C_10  and  C_11 
REMARK       I    between atoms: C_11  and  N_12 
REMARK    7  A    between atoms: N_12  and  C_13 
REMARK    8  A    between atoms: C_13  and  C_14 
ROOT
HETATM    1  C   UNL     1     -41.243  53.314 -53.475  1.00  0.00     0.024 A 
HETATM    2  C   UNL     1     -40.749  53.380 -52.153  1.00  0.00     0.053 A 
HETATM    3  C   UNL     1     -39.824  52.421 -51.699  1.00  0.00     0.019 A 
HETATM    4  C   UNL     1     -39.407  51.383 -52.528  1.00  0.00     0.001 A 
HETATM    5  C   UNL     1     -39.911  51.289 -53.821  1.00  0.00     0.002 A 
HETATM    6  C   UNL     1     -40.816  52.246 -54.288  1.00  0.00     0.024 A 
ENDROOT
BRANCH   1   7
HETATM    7  N   UNL     1     -42.080  54.291 -54.063  1.00  0.00    -0.290 NA
HETATM    8  H   UNL     1     -42.887  53.861 -54.516  1.00  0.00     0.127 HD
BRANCH   7   9
HETATM    9  C   UNL     1     -41.408  55.226 -54.990  1.00  0.00     0.119 C 
BRANCH   9  10
HETATM   10  C   UNL     1     -42.078  56.605 -55.071  1.00  0.00     0.190 C 
BRANCH  10  11
HETATM   11  O   UNL     1     -43.129  56.609 -56.040  1.00  0.00    -0.350 OA
BRANCH  11  12
HETATM   12  C   UNL     1     -42.797  56.850 -57.346  1.00  0.00     0.068 A 
HETATM   13  C   UNL     1     -42.221  58.016 -57.850  1.00  0.00     0.037 A 
HETATM   14  C   UNL     1     -41.949  58.131 -59.217  1.00  0.00     0.003 A 
HETATM   15  C   UNL     1     -42.248  57.082 -60.085  1.00  0.00     0.000 A 
HETATM   16  C   UNL     1     -42.829  55.919 -59.588  1.00  0.00     0.003 A 
HETATM   17  C   UNL     1     -43.106  55.808 -58.224  1.00  0.00     0.037 A 
ENDBRANCH  11  12
ENDBRANCH  10  11
ENDBRANCH   9  10
ENDBRANCH   7   9
ENDBRANCH   1   7
BRANCH   2  18
HETATM   18  C   UNL     1     -41.191  54.382 -51.138  1.00  0.00     0.253 C 
HETATM   19  N   UNL     1     -41.133  55.697 -51.519  1.00  0.00    -0.351 N 
HETATM   20  H   UNL     1     -40.779  55.918 -52.447  1.00  0.00     0.163 HD
HETATM   21  O   UNL     1     -41.614  54.017 -50.047  1.00  0.00    -0.268 OA
BRANCH  19  22
HETATM   22  C   UNL     1     -41.647  56.755 -50.687  1.00  0.00     0.187 C 
BRANCH  22  23
HETATM   23  C   UNL     1     -42.822  57.362 -51.355  1.00  0.00     0.070 A 
HETATM   24  O   UNL     1     -42.602  58.507 -52.066  1.00  0.00    -0.325 OA
HETATM   25  C   UNL     1     -43.797  58.887 -52.586  1.00  0.00     0.142 A 
HETATM   26  C   UNL     1     -44.785  58.006 -52.216  1.00  0.00     0.027 A 
HETATM   27  C   UNL     1     -44.158  57.020 -51.418  1.00  0.00     0.036 A 
ENDBRANCH  22  23
ENDBRANCH  19  22
ENDBRANCH   2  18
TORSDOF 8
ENDMDL
