MODEL 1
REMARK VINA RESULT:      -8.0      0.000      0.000
REMARK  6 active torsions:
REMARK  status: ('A' for Active; 'I' for Inactive)
REMARK    1  A    between atoms: C_2  and  N_3 
REMARK    2  A    between atoms: C_2  and  C_25 
REMARK       I    between atoms: N_3  and  C_4 
REMARK    3  A    between atoms: C_4  and  C_5 
REMARK    4  A    between atoms: C_5  and  N_6 
REMARK    5  A    between atoms: C_10  and  N_11 
REMARK       I    between atoms: N_11  and  C_12 
REMARK       I    between atoms: C_12  and  N_13 
REMARK    6  A    between atoms: N_13  and  C_14 
ROOT
HETATM    1  N   UNL     1     -43.032  59.113 -55.941  1.00  0.00    -0.063 N 
HETATM    2  H   UNL     1     -43.919  59.405 -56.365  1.00  0.00     0.280 HD
HETATM    3  C   UNL     1     -42.084  58.775 -57.075  1.00  0.00     0.237 C 
HETATM    4  C   UNL     1     -42.738  57.703 -57.932  1.00  0.00     0.053 C 
HETATM    5  C   UNL     1     -43.040  56.431 -57.125  1.00  0.00     0.089 C 
HETATM    6  C   UNL     1     -43.949  56.805 -55.945  1.00  0.00     0.053 C 
HETATM    7  C   UNL     1     -43.326  57.902 -55.084  1.00  0.00     0.237 C 
ENDROOT
BRANCH   1   8
HETATM    8  C   UNL     1     -42.560  60.328 -55.131  1.00  0.00     0.337 C 
BRANCH   8   9
HETATM    9  C   UNL     1     -41.818  60.026 -53.824  1.00  0.00     0.244 C 
HETATM   10  N   UNL     1     -42.569  60.209 -52.687  1.00  0.00    -0.351 N 
HETATM   11  H   UNL     1     -43.511  60.582 -52.724  1.00  0.00     0.163 HD
HETATM   12  O   UNL     1     -40.653  59.642 -53.805  1.00  0.00    -0.272 OA
BRANCH  10  13
HETATM   13  C   UNL     1     -42.020  60.018 -51.350  1.00  0.00     0.120 C 
HETATM   14  C   UNL     1     -42.818  60.791 -50.303  1.00  0.00     0.038 C 
BRANCH  13  15
HETATM   15  C   UNL     1     -41.992  58.539 -51.047  1.00  0.00     0.005 A 
HETATM   16  S   UNL     1     -43.363  57.535 -51.318  1.00  0.00    -0.104 SA
HETATM   17  C   UNL     1     -42.545  56.146 -50.752  1.00  0.00     0.050 A 
HETATM   18  C   UNL     1     -41.259  56.432 -50.353  1.00  0.00     0.008 A 
HETATM   19  C   UNL     1     -40.940  57.810 -50.523  1.00  0.00     0.017 A 
ENDBRANCH  13  15
ENDBRANCH  10  13
ENDBRANCH   8   9
ENDBRANCH   1   8
BRANCH   5  20
HETATM   20  N   UNL     1     -41.898  55.660 -56.617  1.00  0.00    -0.338 N 
HETATM   21  C   UNL     1     -41.970  54.655 -55.668  1.00  0.00     0.321 C 
HETATM   22  N   UNL     1     -40.709  54.260 -55.280  1.00  0.00    -0.309 N 
HETATM   23  O   UNL     1     -43.030  54.177 -55.294  1.00  0.00    -0.247 OA
HETATM   24  H   UNL     1     -39.944  54.560 -55.866  1.00  0.00     0.170 HD
HETATM   25  H   UNL     1     -41.048  56.203 -56.516  1.00  0.00     0.164 HD
BRANCH  22  26
HETATM   26  C   UNL     1     -40.378  53.339 -54.264  1.00  0.00     0.036 A 
HETATM   27  C   UNL     1     -39.961  52.027 -54.508  1.00  0.00     0.032 A 
HETATM   28  C   UNL     1     -39.663  51.170 -53.445  1.00  0.00     0.044 A 
HETATM   29  C   UNL     1     -39.786  51.624 -52.138  1.00  0.00     0.116 A 
HETATM   30  F   UNL     1     -39.501  50.802 -51.121  1.00  0.00    -0.206 F 
HETATM   31  C   UNL     1     -40.206  52.920 -51.874  1.00  0.00     0.044 A 
HETATM   32  C   UNL     1     -40.504  53.777 -52.937  1.00  0.00     0.032 A 
ENDBRANCH  22  26
ENDBRANCH   5  20
TORSDOF 6
ENDMDL
MODEL 2
REMARK VINA RESULT:      -7.8      2.052      4.546
REMARK  6 active torsions:
REMARK  status: ('A' for Active; 'I' for Inactive)
REMARK    1  A    between atoms: C_2  and  N_3 
REMARK    2  A    between atoms: C_2  and  C_25 
REMARK       I    between atoms: N_3  and  C_4 
REMARK    3  A    between atoms: C_4  and  C_5 
REMARK    4  A    between atoms: C_5  and  N_6 
REMARK    5  A    between atoms: C_10  and  N_11 
REMARK       I    between atoms: N_11  and  C_12 
REMARK       I    between atoms: C_12  and  N_13 
REMARK    6  A    between atoms: N_13  and  C_14 
ROOT
HETATM    1  N   UNL     1     -42.671  59.878 -52.411  1.00  0.00    -0.063 N 
HETATM    2  H   UNL     1     -43.019  60.341 -51.564  1.00  0.00     0.280 HD
HETATM    3  C   UNL     1     -43.595  58.709 -52.692  1.00  0.00     0.237 C 
HETATM    4  C   UNL     1     -43.612  57.814 -51.463  1.00  0.00     0.053 C 
HETATM    5  C   UNL     1     -42.212  57.284 -51.123  1.00  0.00     0.089 C 
HETATM    6  C   UNL     1     -41.275  58.482 -50.904  1.00  0.00     0.053 C 
HETATM    7  C   UNL     1     -41.263  59.412 -52.115  1.00  0.00     0.237 C 
ENDROOT
BRANCH   1   8
HETATM    8  C   UNL     1     -42.737  60.949 -53.507  1.00  0.00     0.337 C 
BRANCH   8   9
HETATM    9  C   UNL     1     -43.271  60.493 -54.871  1.00  0.00     0.244 C 
HETATM   10  N   UNL     1     -42.354  59.825 -55.646  1.00  0.00    -0.351 N 
HETATM   11  H   UNL     1     -41.390  59.713 -55.356  1.00  0.00     0.163 HD
HETATM   12  O   UNL     1     -44.427  60.702 -55.225  1.00  0.00    -0.272 OA
BRANCH  10  13
HETATM   13  C   UNL     1     -42.665  59.357 -56.992  1.00  0.00     0.120 C 
HETATM   14  C   UNL     1     -41.650  59.874 -58.010  1.00  0.00     0.038 C 
BRANCH  13  15
HETATM   15  C   UNL     1     -42.720  57.849 -56.979  1.00  0.00     0.005 A 
HETATM   16  S   UNL     1     -42.183  56.937 -55.622  1.00  0.00    -0.104 SA
HETATM   17  C   UNL     1     -42.556  55.454 -56.383  1.00  0.00     0.050 A 
HETATM   18  C   UNL     1     -43.069  55.637 -57.647  1.00  0.00     0.008 A 
HETATM   19  C   UNL     1     -43.164  57.017 -57.991  1.00  0.00     0.017 A 
ENDBRANCH  13  15
ENDBRANCH  10  13
ENDBRANCH   8   9
ENDBRANCH   1   8
BRANCH   5  20
HETATM   20  N   UNL     1     -41.583  56.360 -52.075  1.00  0.00    -0.338 N 
HETATM   21  C   UNL     1     -41.560  54.981 -51.957  1.00  0.00     0.321 C 
HETATM   22  N   UNL     1     -40.740  54.424 -52.914  1.00  0.00    -0.309 N 
HETATM   23  O   UNL     1     -42.234  54.380 -51.135  1.00  0.00    -0.247 OA
HETATM   24  H   UNL     1     -40.466  55.025 -53.677  1.00  0.00     0.170 HD
HETATM   25  H   UNL     1     -40.721  56.710 -52.478  1.00  0.00     0.164 HD
BRANCH  22  26
HETATM   26  C   UNL     1     -40.385  53.065 -53.046  1.00  0.00     0.036 A 
HETATM   27  C   UNL     1     -40.530  52.334 -54.230  1.00  0.00     0.032 A 
HETATM   28  C   UNL     1     -40.166  50.985 -54.277  1.00  0.00     0.044 A 
HETATM   29  C   UNL     1     -39.661  50.367 -53.139  1.00  0.00     0.116 A 
HETATM   30  F   UNL     1     -39.313  49.075 -53.187  1.00  0.00    -0.206 F 
HETATM   31  C   UNL     1     -39.516  51.073 -51.953  1.00  0.00     0.044 A 
HETATM   32  C   UNL     1     -39.880  52.422 -51.906  1.00  0.00     0.032 A 
ENDBRANCH  22  26
ENDBRANCH   5  20
TORSDOF 6
ENDMDL
MODEL 3
REMARK VINA RESULT:      -7.7      2.799      5.581
REMARK  6 active torsions:
REMARK  status: ('A' for Active; 'I' for Inactive)
REMARK    1  A    between atoms: C_2  and  N_3 
REMARK    2  A    between atoms: C_2  and  C_25 
REMARK       I    between atoms: N_3  and  C_4 
REMARK    3  A    between atoms: C_4  and  C_5 
REMARK    4  A    between atoms: C_5  and  N_6 
REMARK    5  A    between atoms: C_10  and  N_11 
REMARK       I    between atoms: N_11  and  C_12 
REMARK       I    between atoms: C_12  and  N_13 
REMARK    6  A    between atoms: N_13  and  C_14 
ROOT
HETATM    1  N   UNL     1     -43.810  58.722 -53.706  1.00  0.00    -0.063 N 
HETATM    2  H   UNL     1     -44.340  59.275 -53.023  1.00  0.00     0.280 HD
HETATM    3  C   UNL     1     -44.306  57.292 -53.604  1.00  0.00     0.237 C 
HETATM    4  C   UNL     1     -44.125  56.832 -52.166  1.00  0.00     0.053 C 
HETATM    5  C   UNL     1     -42.655  56.892 -51.727  1.00  0.00     0.089 C 
HETATM    6  C   UNL     1     -42.153  58.334 -51.897  1.00  0.00     0.053 C 
HETATM    7  C   UNL     1     -42.350  58.831 -53.328  1.00  0.00     0.237 C 
ENDROOT
BRANCH   1   8
HETATM    8  C   UNL     1     -44.133  59.354 -55.065  1.00  0.00     0.337 C 
BRANCH   8   9
HETATM    9  C   UNL     1     -43.451  58.725 -56.286  1.00  0.00     0.244 C 
HETATM   10  N   UNL     1     -44.210  57.786 -56.942  1.00  0.00    -0.351 N 
HETATM   11  H   UNL     1     -45.116  57.493 -56.593  1.00  0.00     0.163 HD
HETATM   12  O   UNL     1     -42.323  59.049 -56.646  1.00  0.00    -0.272 OA
BRANCH  10  13
HETATM   13  C   UNL     1     -43.711  57.046 -58.095  1.00  0.00     0.120 C 
HETATM   14  C   UNL     1     -43.029  55.747 -57.673  1.00  0.00     0.038 C 
BRANCH  13  15
HETATM   15  C   UNL     1     -44.862  56.788 -59.038  1.00  0.00     0.005 A 
HETATM   16  S   UNL     1     -46.303  57.726 -58.982  1.00  0.00    -0.104 SA
HETATM   17  C   UNL     1     -47.012  56.842 -60.260  1.00  0.00     0.050 A 
HETATM   18  C   UNL     1     -46.181  55.845 -60.720  1.00  0.00     0.008 A 
HETATM   19  C   UNL     1     -44.942  55.813 -60.016  1.00  0.00     0.017 A 
ENDBRANCH  13  15
ENDBRANCH  10  13
ENDBRANCH   8   9
ENDBRANCH   1   8
BRANCH   5  20
HETATM   20  N   UNL     1     -41.709  55.982 -52.384  1.00  0.00    -0.338 N 
HETATM   21  C   UNL     1     -41.756  54.600 -52.325  1.00  0.00     0.321 C 
HETATM   22  N   UNL     1     -40.628  54.050 -52.894  1.00  0.00    -0.309 N 
HETATM   23  O   UNL     1     -42.712  53.992 -51.869  1.00  0.00    -0.247 OA
HETATM   24  H   UNL     1     -40.062  54.667 -53.457  1.00  0.00     0.170 HD
HETATM   25  H   UNL     1     -40.753  56.319 -52.392  1.00  0.00     0.164 HD
BRANCH  22  26
HETATM   26  C   UNL     1     -40.268  52.686 -52.929  1.00  0.00     0.036 A 
HETATM   27  C   UNL     1     -40.332  51.893 -54.080  1.00  0.00     0.032 A 
HETATM   28  C   UNL     1     -39.970  50.544 -54.030  1.00  0.00     0.044 A 
HETATM   29  C   UNL     1     -39.549  49.987 -52.829  1.00  0.00     0.116 A 
HETATM   30  F   UNL     1     -39.202  48.695 -52.783  1.00  0.00    -0.206 F 
HETATM   31  C   UNL     1     -39.486  50.755 -51.674  1.00  0.00     0.044 A 
HETATM   32  C   UNL     1     -39.847  52.104 -51.724  1.00  0.00     0.032 A 
ENDBRANCH  22  26
ENDBRANCH   5  20
TORSDOF 6
ENDMDL
MODEL 4
REMARK VINA RESULT:      -7.7      2.886      5.490
REMARK  6 active torsions:
REMARK  status: ('A' for Active; 'I' for Inactive)
REMARK    1  A    between atoms: C_2  and  N_3 
REMARK    2  A    between atoms: C_2  and  C_25 
REMARK       I    between atoms: N_3  and  C_4 
REMARK    3  A    between atoms: C_4  and  C_5 
REMARK    4  A    between atoms: C_5  and  N_6 
REMARK    5  A    between atoms: C_10  and  N_11 
REMARK       I    between atoms: N_11  and  C_12 
REMARK       I    between atoms: C_12  and  N_13 
REMARK    6  A    between atoms: N_13  and  C_14 
ROOT
HETATM    1  N   UNL     1     -42.958  59.035 -54.866  1.00  0.00    -0.063 N 
HETATM    2  H   UNL     1     -43.598  59.616 -54.313  1.00  0.00     0.280 HD
HETATM    3  C   UNL     1     -43.624  57.685 -55.049  1.00  0.00     0.237 C 
HETATM    4  C   UNL     1     -43.933  57.121 -53.672  1.00  0.00     0.053 C 
HETATM    5  C   UNL     1     -42.663  56.950 -52.826  1.00  0.00     0.089 C 
HETATM    6  C   UNL     1     -41.968  58.315 -52.705  1.00  0.00     0.053 C 
HETATM    7  C   UNL     1     -41.673  58.916 -54.078  1.00  0.00     0.237 C 
ENDROOT
BRANCH   1   8
HETATM    8  C   UNL     1     -42.787  59.784 -56.194  1.00  0.00     0.337 C 
BRANCH   8   9
HETATM    9  C   UNL     1     -43.901  59.590 -57.231  1.00  0.00     0.244 C 
HETATM   10  N   UNL     1     -43.523  58.880 -58.345  1.00  0.00    -0.351 N 
HETATM   11  H   UNL     1     -42.566  58.578 -58.488  1.00  0.00     0.163 HD
HETATM   12  O   UNL     1     -45.035  60.028 -57.064  1.00  0.00    -0.272 OA
BRANCH  10  13
HETATM   13  C   UNL     1     -44.432  58.637 -59.460  1.00  0.00     0.120 C 
HETATM   14  C   UNL     1     -43.967  59.352 -60.726  1.00  0.00     0.038 C 
BRANCH  13  15
HETATM   15  C   UNL     1     -44.546  57.147 -59.673  1.00  0.00     0.005 A 
HETATM   16  S   UNL     1     -46.014  56.418 -60.199  1.00  0.00    -0.104 SA
HETATM   17  C   UNL     1     -45.328  54.854 -60.173  1.00  0.00     0.050 A 
HETATM   18  C   UNL     1     -44.014  54.873 -59.765  1.00  0.00     0.008 A 
HETATM   19  C   UNL     1     -43.563  56.194 -59.476  1.00  0.00     0.017 A 
ENDBRANCH  13  15
ENDBRANCH  10  13
ENDBRANCH   8   9
ENDBRANCH   1   8
BRANCH   5  20
HETATM   20  N   UNL     1     -41.677  55.956 -53.270  1.00  0.00    -0.338 N 
HETATM   21  C   UNL     1     -41.757  54.593 -53.043  1.00  0.00     0.321 C 
HETATM   22  N   UNL     1     -40.592  53.966 -53.427  1.00  0.00    -0.309 N 
HETATM   23  O   UNL     1     -42.764  54.055 -52.608  1.00  0.00    -0.247 OA
HETATM   24  H   UNL     1     -39.962  54.502 -54.005  1.00  0.00     0.170 HD
HETATM   25  H   UNL     1     -40.718  56.282 -53.227  1.00  0.00     0.164 HD
BRANCH  22  26
HETATM   26  C   UNL     1     -40.258  52.606 -53.256  1.00  0.00     0.036 A 
HETATM   27  C   UNL     1     -40.326  51.653 -54.277  1.00  0.00     0.032 A 
HETATM   28  C   UNL     1     -39.991  50.320 -54.024  1.00  0.00     0.044 A 
HETATM   29  C   UNL     1     -39.591  49.939 -52.749  1.00  0.00     0.116 A 
HETATM   30  F   UNL     1     -39.271  48.662 -52.509  1.00  0.00    -0.206 F 
HETATM   31  C   UNL     1     -39.525  50.868 -51.720  1.00  0.00     0.044 A 
HETATM   32  C   UNL     1     -39.860  52.201 -51.972  1.00  0.00     0.032 A 
ENDBRANCH  22  26
ENDBRANCH   5  20
TORSDOF 6
ENDMDL
MODEL 5
REMARK VINA RESULT:      -7.5      2.353      4.972
REMARK  6 active torsions:
REMARK  status: ('A' for Active; 'I' for Inactive)
REMARK    1  A    between atoms: C_2  and  N_3 
REMARK    2  A    between atoms: C_2  and  C_25 
REMARK       I    between atoms: N_3  and  C_4 
REMARK    3  A    between atoms: C_4  and  C_5 
REMARK    4  A    between atoms: C_5  and  N_6 
REMARK    5  A    between atoms: C_10  and  N_11 
REMARK       I    between atoms: N_11  and  C_12 
REMARK       I    between atoms: C_12  and  N_13 
REMARK    6  A    between atoms: N_13  and  C_14 
ROOT
HETATM    1  N   UNL     1     -43.012  59.483 -53.600  1.00  0.00    -0.063 N 
HETATM    2  H   UNL     1     -43.818  59.903 -53.123  1.00  0.00     0.280 HD
HETATM    3  C   UNL     1     -43.503  58.217 -54.275  1.00  0.00     0.237 C 
HETATM    4  C   UNL     1     -44.123  57.325 -53.212  1.00  0.00     0.053 C 
HETATM    5  C   UNL     1     -43.114  56.956 -52.116  1.00  0.00     0.089 C 
HETATM    6  C   UNL     1     -42.580  58.252 -51.486  1.00  0.00     0.053 C 
HETATM    7  C   UNL     1     -41.977  59.179 -52.540  1.00  0.00     0.237 C 
ENDROOT
BRANCH   1   8
HETATM    8  C   UNL     1     -42.552  60.541 -54.611  1.00  0.00     0.337 C 
BRANCH   8   9
HETATM    9  C   UNL     1     -43.176  60.460 -56.009  1.00  0.00     0.244 C 
HETATM   10  N   UNL     1     -42.334  59.977 -56.982  1.00  0.00    -0.351 N 
HETATM   11  H   UNL     1     -41.362  59.763 -56.788  1.00  0.00     0.163 HD
HETATM   12  O   UNL     1     -44.337  60.792 -56.229  1.00  0.00    -0.272 OA
BRANCH  10  13
HETATM   13  C   UNL     1     -42.735  59.873 -58.380  1.00  0.00     0.120 C 
HETATM   14  C   UNL     1     -41.842  60.724 -59.281  1.00  0.00     0.038 C 
BRANCH  13  15
HETATM   15  C   UNL     1     -42.706  58.419 -58.783  1.00  0.00     0.005 A 
HETATM   16  S   UNL     1     -43.086  57.164 -57.669  1.00  0.00    -0.104 SA
HETATM   17  C   UNL     1     -42.822  55.949 -58.840  1.00  0.00     0.050 A 
HETATM   18  C   UNL     1     -42.443  56.475 -60.054  1.00  0.00     0.008 A 
HETATM   19  C   UNL     1     -42.375  57.898 -60.022  1.00  0.00     0.017 A 
ENDBRANCH  13  15
ENDBRANCH  10  13
ENDBRANCH   8   9
ENDBRANCH   1   8
BRANCH   5  20
HETATM   20  N   UNL     1     -41.974  56.111 -52.495  1.00  0.00    -0.338 N 
HETATM   21  C   UNL     1     -42.010  54.735 -52.633  1.00  0.00     0.321 C 
HETATM   22  N   UNL     1     -40.742  54.230 -52.819  1.00  0.00    -0.309 N 
HETATM   23  O   UNL     1     -43.054  54.100 -52.638  1.00  0.00    -0.247 OA
HETATM   24  H   UNL     1     -40.022  54.898 -53.053  1.00  0.00     0.170 HD
HETATM   25  H   UNL     1     -41.088  56.420 -52.111  1.00  0.00     0.164 HD
BRANCH  22  26
HETATM   26  C   UNL     1     -40.365  52.873 -52.895  1.00  0.00     0.036 A 
HETATM   27  C   UNL     1     -40.408  52.118 -54.071  1.00  0.00     0.032 A 
HETATM   28  C   UNL     1     -40.030  50.771 -54.061  1.00  0.00     0.044 A 
HETATM   29  C   UNL     1     -39.615  50.180 -52.875  1.00  0.00     0.116 A 
HETATM   30  F   UNL     1     -39.254  48.891 -52.867  1.00  0.00    -0.206 F 
HETATM   31  C   UNL     1     -39.574  50.910 -51.695  1.00  0.00     0.044 A 
HETATM   32  C   UNL     1     -39.951  52.256 -51.704  1.00  0.00     0.032 A 
ENDBRANCH  22  26
ENDBRANCH   5  20
TORSDOF 6
ENDMDL
MODEL 6
REMARK VINA RESULT:      -7.4      5.075      7.888
REMARK  6 active torsions:
REMARK  status: ('A' for Active; 'I' for Inactive)
REMARK    1  A    between atoms: C_2  and  N_3 
REMARK    2  A    between atoms: C_2  and  C_25 
REMARK       I    between atoms: N_3  and  C_4 
REMARK    3  A    between atoms: C_4  and  C_5 
REMARK    4  A    between atoms: C_5  and  N_6 
REMARK    5  A    between atoms: C_10  and  N_11 
REMARK       I    between atoms: N_11  and  C_12 
REMARK       I    between atoms: C_12  and  N_13 
REMARK    6  A    between atoms: N_13  and  C_14 
ROOT
HETATM    1  N   UNL     1     -42.528  57.094 -54.947  1.00  0.00    -0.063 N 
HETATM    2  H   UNL     1     -41.505  57.018 -54.978  1.00  0.00     0.280 HD
HETATM    3  C   UNL     1     -43.088  55.733 -55.312  1.00  0.00     0.237 C 
HETATM    4  C   UNL     1     -42.540  55.347 -56.676  1.00  0.00     0.053 C 
HETATM    5  C   UNL     1     -42.932  56.363 -57.758  1.00  0.00     0.089 C 
HETATM    6  C   UNL     1     -42.411  57.747 -57.341  1.00  0.00     0.053 C 
HETATM    7  C   UNL     1     -42.926  58.146 -55.959  1.00  0.00     0.237 C 
ENDROOT
BRANCH   1   8
HETATM    8  C   UNL     1     -42.854  57.490 -53.501  1.00  0.00     0.337 C 
BRANCH   8   9
HETATM    9  C   UNL     1     -41.966  56.874 -52.413  1.00  0.00     0.244 C 
HETATM   10  N   UNL     1     -41.964  55.500 -52.390  1.00  0.00    -0.351 N 
HETATM   11  H   UNL     1     -42.560  54.954 -53.002  1.00  0.00     0.163 HD
HETATM   12  O   UNL     1     -41.308  57.561 -51.638  1.00  0.00    -0.272 OA
BRANCH  10  13
HETATM   13  C   UNL     1     -41.218  54.738 -51.395  1.00  0.00     0.120 C 
HETATM   14  C   UNL     1     -42.096  54.368 -50.201  1.00  0.00     0.038 C 
BRANCH  13  15
HETATM   15  C   UNL     1     -40.639  53.513 -52.060  1.00  0.00     0.005 A 
HETATM   16  S   UNL     1     -39.882  52.263 -51.151  1.00  0.00    -0.104 SA
HETATM   17  C   UNL     1     -39.538  51.354 -52.555  1.00  0.00     0.050 A 
HETATM   18  C   UNL     1     -39.978  51.983 -53.698  1.00  0.00     0.008 A 
HETATM   19  C   UNL     1     -40.612  53.227 -53.414  1.00  0.00     0.017 A 
ENDBRANCH  13  15
ENDBRANCH  10  13
ENDBRANCH   8   9
ENDBRANCH   1   8
BRANCH   5  20
HETATM   20  N   UNL     1     -44.356  56.478 -58.102  1.00  0.00    -0.338 N 
HETATM   21  C   UNL     1     -44.854  56.783 -59.356  1.00  0.00     0.321 C 
HETATM   22  N   UNL     1     -46.215  56.992 -59.302  1.00  0.00    -0.309 N 
HETATM   23  O   UNL     1     -44.153  56.802 -60.356  1.00  0.00    -0.247 OA
HETATM   24  H   UNL     1     -46.684  56.684 -58.464  1.00  0.00     0.170 HD
HETATM   25  H   UNL     1     -44.923  56.890 -57.369  1.00  0.00     0.164 HD
BRANCH  22  26
HETATM   26  C   UNL     1     -47.055  57.421 -60.351  1.00  0.00     0.036 A 
HETATM   27  C   UNL     1     -47.371  58.761 -60.597  1.00  0.00     0.032 A 
HETATM   28  C   UNL     1     -48.224  59.104 -61.651  1.00  0.00     0.044 A 
HETATM   29  C   UNL     1     -48.762  58.108 -62.455  1.00  0.00     0.116 A 
HETATM   30  F   UNL     1     -49.578  58.439 -63.463  1.00  0.00    -0.206 F 
HETATM   31  C   UNL     1     -48.467  56.772 -62.223  1.00  0.00     0.044 A 
HETATM   32  C   UNL     1     -47.614  56.427 -61.170  1.00  0.00     0.032 A 
ENDBRANCH  22  26
ENDBRANCH   5  20
TORSDOF 6
ENDMDL
MODEL 7
REMARK VINA RESULT:      -7.3      4.590      8.798
REMARK  6 active torsions:
REMARK  status: ('A' for Active; 'I' for Inactive)
REMARK    1  A    between atoms: C_2  and  N_3 
REMARK    2  A    between atoms: C_2  and  C_25 
REMARK       I    between atoms: N_3  and  C_4 
REMARK    3  A    between atoms: C_4  and  C_5 
REMARK    4  A    between atoms: C_5  and  N_6 
REMARK    5  A    between atoms: C_10  and  N_11 
REMARK       I    between atoms: N_11  and  C_12 
REMARK       I    between atoms: C_12  and  N_13 
REMARK    6  A    between atoms: N_13  and  C_14 
ROOT
HETATM    1  N   UNL     1     -43.230  57.062 -53.304  1.00  0.00    -0.063 N 
HETATM    2  H   UNL     1     -42.781  57.370 -54.174  1.00  0.00     0.280 HD
HETATM    3  C   UNL     1     -44.687  57.474 -53.382  1.00  0.00     0.237 C 
HETATM    4  C   UNL     1     -44.741  58.977 -53.604  1.00  0.00     0.053 C 
HETATM    5  C   UNL     1     -44.055  59.748 -52.467  1.00  0.00     0.089 C 
HETATM    6  C   UNL     1     -42.599  59.272 -52.362  1.00  0.00     0.053 C 
HETATM    7  C   UNL     1     -42.517  57.759 -52.167  1.00  0.00     0.237 C 
ENDROOT
BRANCH   1   8
HETATM    8  C   UNL     1     -43.056  55.538 -53.285  1.00  0.00     0.337 C 
BRANCH   8   9
HETATM    9  C   UNL     1     -41.620  55.020 -53.134  1.00  0.00     0.244 C 
HETATM   10  N   UNL     1     -41.469  54.024 -52.200  1.00  0.00    -0.351 N 
HETATM   11  H   UNL     1     -42.239  53.717 -51.617  1.00  0.00     0.163 HD
HETATM   12  O   UNL     1     -40.691  55.460 -53.806  1.00  0.00    -0.272 OA
BRANCH  10  13
HETATM   13  C   UNL     1     -40.170  53.441 -51.884  1.00  0.00     0.120 C 
HETATM   14  C   UNL     1     -39.977  53.291 -50.376  1.00  0.00     0.038 C 
BRANCH  13  15
HETATM   15  C   UNL     1     -40.051  52.114 -52.594  1.00  0.00     0.005 A 
HETATM   16  S   UNL     1     -39.526  50.695 -51.775  1.00  0.00    -0.104 SA
HETATM   17  C   UNL     1     -39.659  49.745 -53.188  1.00  0.00     0.050 A 
HETATM   18  C   UNL     1     -40.084  50.485 -54.269  1.00  0.00     0.008 A 
HETATM   19  C   UNL     1     -40.310  51.850 -53.927  1.00  0.00     0.017 A 
ENDBRANCH  13  15
ENDBRANCH  10  13
ENDBRANCH   8   9
ENDBRANCH   1   8
BRANCH   5  20
HETATM   20  N   UNL     1     -44.670  59.687 -51.134  1.00  0.00    -0.338 N 
HETATM   21  C   UNL     1     -44.869  60.768 -50.294  1.00  0.00     0.321 C 
HETATM   22  N   UNL     1     -45.299  60.349 -49.054  1.00  0.00    -0.309 N 
HETATM   23  O   UNL     1     -44.721  61.924 -50.662  1.00  0.00    -0.247 OA
HETATM   24  H   UNL     1     -45.623  59.396 -48.989  1.00  0.00     0.170 HD
HETATM   25  H   UNL     1     -44.433  58.851 -50.612  1.00  0.00     0.164 HD
BRANCH  22  26
HETATM   26  C   UNL     1     -45.507  61.146 -47.909  1.00  0.00     0.036 A 
HETATM   27  C   UNL     1     -44.771  61.017 -46.727  1.00  0.00     0.032 A 
HETATM   28  C   UNL     1     -45.047  61.837 -45.629  1.00  0.00     0.044 A 
HETATM   29  C   UNL     1     -46.062  62.782 -45.712  1.00  0.00     0.116 A 
HETATM   30  F   UNL     1     -46.325  63.567 -44.660  1.00  0.00    -0.206 F 
HETATM   31  C   UNL     1     -46.810  62.920 -46.873  1.00  0.00     0.044 A 
HETATM   32  C   UNL     1     -46.534  62.101 -47.971  1.00  0.00     0.032 A 
ENDBRANCH  22  26
ENDBRANCH   5  20
TORSDOF 6
ENDMDL
MODEL 8
REMARK VINA RESULT:      -7.3      5.032      9.222
REMARK  6 active torsions:
REMARK  status: ('A' for Active; 'I' for Inactive)
REMARK    1  A    between atoms: C_2  and  N_3 
REMARK    2  A    between atoms: C_2  and  C_25 
REMARK       I    between atoms: N_3  and  C_4 
REMARK    3  A    between atoms: C_4  and  C_5 
REMARK    4  A    between atoms: C_5  and  N_6 
REMARK    5  A    between atoms: C_10  and  N_11 
REMARK       I    between atoms: N_11  and  C_12 
REMARK       I    between atoms: C_12  and  N_13 
REMARK    6  A    between atoms: N_13  and  C_14 
ROOT
HETATM    1  N   UNL     1     -43.478  58.543 -52.374  1.00  0.00    -0.063 N 
HETATM    2  H   UNL     1     -44.012  58.609 -53.248  1.00  0.00     0.280 HD
HETATM    3  C   UNL     1     -44.277  57.669 -51.427  1.00  0.00     0.237 C 
HETATM    4  C   UNL     1     -45.655  58.290 -51.261  1.00  0.00     0.053 C 
HETATM    5  C   UNL     1     -45.575  59.714 -50.692  1.00  0.00     0.089 C 
HETATM    6  C   UNL     1     -44.710  60.568 -51.632  1.00  0.00     0.053 C 
HETATM    7  C   UNL     1     -43.328  59.949 -51.838  1.00  0.00     0.237 C 
ENDROOT
BRANCH   1   8
HETATM    8  C   UNL     1     -42.143  57.901 -52.772  1.00  0.00     0.337 C 
BRANCH   8   9
HETATM    9  C   UNL     1     -42.227  56.546 -53.485  1.00  0.00     0.244 C 
HETATM   10  N   UNL     1     -41.230  55.662 -53.148  1.00  0.00    -0.351 N 
HETATM   11  H   UNL     1     -40.469  55.925 -52.532  1.00  0.00     0.163 HD
HETATM   12  O   UNL     1     -43.122  56.279 -54.281  1.00  0.00    -0.272 OA
BRANCH  10  13
HETATM   13  C   UNL     1     -41.118  54.343 -53.760  1.00  0.00     0.120 C 
HETATM   14  C   UNL     1     -40.163  54.359 -54.951  1.00  0.00     0.038 C 
BRANCH  13  15
HETATM   15  C   UNL     1     -40.674  53.359 -52.705  1.00  0.00     0.005 A 
HETATM   16  S   UNL     1     -41.055  53.582 -51.042  1.00  0.00    -0.104 SA
HETATM   17  C   UNL     1     -40.239  52.151 -50.590  1.00  0.00     0.050 A 
HETATM   18  C   UNL     1     -39.677  51.514 -51.673  1.00  0.00     0.008 A 
HETATM   19  C   UNL     1     -39.926  52.210 -52.892  1.00  0.00     0.017 A 
ENDBRANCH  13  15
ENDBRANCH  10  13
ENDBRANCH   8   9
ENDBRANCH   1   8
BRANCH   5  20
HETATM   20  N   UNL     1     -45.080  59.874 -49.319  1.00  0.00    -0.338 N 
HETATM   21  C   UNL     1     -45.508  60.835 -48.420  1.00  0.00     0.321 C 
HETATM   22  N   UNL     1     -44.722  60.828 -47.289  1.00  0.00    -0.309 N 
HETATM   23  O   UNL     1     -46.488  61.536 -48.622  1.00  0.00    -0.247 OA
HETATM   24  H   UNL     1     -44.126  60.024 -47.160  1.00  0.00     0.170 HD
HETATM   25  H   UNL     1     -44.089  59.687 -49.216  1.00  0.00     0.164 HD
BRANCH  22  26
HETATM   26  C   UNL     1     -44.783  61.726 -46.202  1.00  0.00     0.036 A 
HETATM   27  C   UNL     1     -45.218  63.051 -46.310  1.00  0.00     0.032 A 
HETATM   28  C   UNL     1     -45.237  63.883 -45.186  1.00  0.00     0.044 A 
HETATM   29  C   UNL     1     -44.817  63.390 -43.956  1.00  0.00     0.116 A 
HETATM   30  F   UNL     1     -44.835  64.188 -42.882  1.00  0.00    -0.206 F 
HETATM   31  C   UNL     1     -44.374  62.081 -43.830  1.00  0.00     0.044 A 
HETATM   32  C   UNL     1     -44.356  61.249 -44.953  1.00  0.00     0.032 A 
ENDBRANCH  22  26
ENDBRANCH   5  20
TORSDOF 6
ENDMDL
MODEL 9
REMARK VINA RESULT:      -7.2      3.322      6.797
REMARK  6 active torsions:
REMARK  status: ('A' for Active; 'I' for Inactive)
REMARK    1  A    between atoms: C_2  and  N_3 
REMARK    2  A    between atoms: C_2  and  C_25 
REMARK       I    between atoms: N_3  and  C_4 
REMARK    3  A    between atoms: C_4  and  C_5 
REMARK    4  A    between atoms: C_5  and  N_6 
REMARK    5  A    between atoms: C_10  and  N_11 
REMARK       I    between atoms: N_11  and  C_12 
REMARK       I    between atoms: C_12  and  N_13 
REMARK    6  A    between atoms: N_13  and  C_14 
ROOT
HETATM    1  N   UNL     1     -42.179  57.229 -51.768  1.00  0.00    -0.063 N 
HETATM    2  H   UNL     1     -42.495  57.807 -50.981  1.00  0.00     0.280 HD
HETATM    3  C   UNL     1     -40.924  57.876 -52.321  1.00  0.00     0.237 C 
HETATM    4  C   UNL     1     -41.260  59.308 -52.705  1.00  0.00     0.053 C 
HETATM    5  C   UNL     1     -42.372  59.370 -53.762  1.00  0.00     0.089 C 
HETATM    6  C   UNL     1     -43.614  58.655 -53.209  1.00  0.00     0.053 C 
HETATM    7  C   UNL     1     -43.294  57.221 -52.789  1.00  0.00     0.237 C 
ENDROOT
BRANCH   1   8
HETATM    8  C   UNL     1     -41.903  55.848 -51.161  1.00  0.00     0.337 C 
BRANCH   8   9
HETATM    9  C   UNL     1     -42.044  54.650 -52.108  1.00  0.00     0.244 C 
HETATM   10  N   UNL     1     -40.952  54.430 -52.914  1.00  0.00    -0.351 N 
HETATM   11  H   UNL     1     -40.157  55.059 -52.920  1.00  0.00     0.163 HD
HETATM   12  O   UNL     1     -43.048  53.945 -52.128  1.00  0.00    -0.272 OA
BRANCH  10  13
HETATM   13  C   UNL     1     -40.921  53.367 -53.912  1.00  0.00     0.120 C 
HETATM   14  C   UNL     1     -40.133  53.787 -55.151  1.00  0.00     0.038 C 
BRANCH  13  15
HETATM   15  C   UNL     1     -40.341  52.126 -53.277  1.00  0.00     0.005 A 
HETATM   16  S   UNL     1     -39.791  52.118 -51.647  1.00  0.00    -0.104 SA
HETATM   17  C   UNL     1     -39.326  50.477 -51.738  1.00  0.00     0.050 A 
HETATM   18  C   UNL     1     -39.570  49.940 -52.982  1.00  0.00     0.008 A 
HETATM   19  C   UNL     1     -40.154  50.890 -53.870  1.00  0.00     0.017 A 
ENDBRANCH  13  15
ENDBRANCH  10  13
ENDBRANCH   8   9
ENDBRANCH   1   8
BRANCH   5  20
HETATM   20  N   UNL     1     -42.074  58.834 -55.097  1.00  0.00    -0.338 N 
HETATM   21  C   UNL     1     -43.016  58.422 -56.023  1.00  0.00     0.321 C 
HETATM   22  N   UNL     1     -42.409  57.807 -57.095  1.00  0.00    -0.309 N 
HETATM   23  O   UNL     1     -44.210  58.643 -55.890  1.00  0.00    -0.247 OA
HETATM   24  H   UNL     1     -41.412  57.937 -57.183  1.00  0.00     0.170 HD
HETATM   25  H   UNL     1     -41.245  58.252 -55.129  1.00  0.00     0.164 HD
BRANCH  22  26
HETATM   26  C   UNL     1     -43.041  57.168 -58.183  1.00  0.00     0.036 A 
HETATM   27  C   UNL     1     -43.280  55.791 -58.245  1.00  0.00     0.032 A 
HETATM   28  C   UNL     1     -43.900  55.231 -59.366  1.00  0.00     0.044 A 
HETATM   29  C   UNL     1     -44.277  56.047 -60.425  1.00  0.00     0.116 A 
HETATM   30  F   UNL     1     -44.871  55.508 -61.497  1.00  0.00    -0.206 F 
HETATM   31  C   UNL     1     -44.042  57.414 -60.387  1.00  0.00     0.044 A 
HETATM   32  C   UNL     1     -43.422  57.975 -59.266  1.00  0.00     0.032 A 
ENDBRANCH  22  26
ENDBRANCH   5  20
TORSDOF 6
ENDMDL
MODEL 10
REMARK VINA RESULT:      -7.2      3.571      7.696
REMARK  6 active torsions:
REMARK  status: ('A' for Active; 'I' for Inactive)
REMARK    1  A    between atoms: C_2  and  N_3 
REMARK    2  A    between atoms: C_2  and  C_25 
REMARK       I    between atoms: N_3  and  C_4 
REMARK    3  A    between atoms: C_4  and  C_5 
REMARK    4  A    between atoms: C_5  and  N_6 
REMARK    5  A    between atoms: C_10  and  N_11 
REMARK       I    between atoms: N_11  and  C_12 
REMARK       I    between atoms: C_12  and  N_13 
REMARK    6  A    between atoms: N_13  and  C_14 
ROOT
HETATM    1  N   UNL     1     -42.115  57.044 -50.462  1.00  0.00    -0.063 N 
HETATM    2  H   UNL     1     -42.425  57.396 -49.549  1.00  0.00     0.280 HD
HETATM    3  C   UNL     1     -40.776  57.690 -50.759  1.00  0.00     0.237 C 
HETATM    4  C   UNL     1     -40.958  59.198 -50.709  1.00  0.00     0.053 C 
HETATM    5  C   UNL     1     -41.994  59.683 -51.735  1.00  0.00     0.089 C 
HETATM    6  C   UNL     1     -43.326  58.970 -51.458  1.00  0.00     0.053 C 
HETATM    7  C   UNL     1     -43.163  57.452 -51.474  1.00  0.00     0.237 C 
ENDROOT
BRANCH   1   8
HETATM    8  C   UNL     1     -42.002  55.524 -50.285  1.00  0.00     0.337 C 
BRANCH   8   9
HETATM    9  C   UNL     1     -42.173  54.679 -51.554  1.00  0.00     0.244 C 
HETATM   10  N   UNL     1     -41.041  54.575 -52.325  1.00  0.00    -0.351 N 
HETATM   11  H   UNL     1     -40.191  55.079 -52.098  1.00  0.00     0.163 HD
HETATM   12  O   UNL     1     -43.235  54.135 -51.841  1.00  0.00    -0.272 OA
BRANCH  10  13
HETATM   13  C   UNL     1     -41.024  53.852 -53.592  1.00  0.00     0.120 C 
HETATM   14  C   UNL     1     -40.222  54.603 -54.653  1.00  0.00     0.038 C 
BRANCH  13  15
HETATM   15  C   UNL     1     -40.467  52.469 -53.351  1.00  0.00     0.005 A 
HETATM   16  S   UNL     1     -39.770  52.026 -51.841  1.00  0.00    -0.104 SA
HETATM   17  C   UNL     1     -39.421  50.446 -52.386  1.00  0.00     0.050 A 
HETATM   18  C   UNL     1     -39.813  50.252 -53.692  1.00  0.00     0.008 A 
HETATM   19  C   UNL     1     -40.416  51.418 -54.248  1.00  0.00     0.017 A 
ENDBRANCH  13  15
ENDBRANCH  10  13
ENDBRANCH   8   9
ENDBRANCH   1   8
BRANCH   5  20
HETATM   20  N   UNL     1     -41.665  59.534 -53.158  1.00  0.00    -0.338 N 
HETATM   21  C   UNL     1     -42.307  60.179 -54.200  1.00  0.00     0.321 C 
HETATM   22  N   UNL     1     -41.882  59.687 -55.414  1.00  0.00    -0.309 N 
HETATM   23  O   UNL     1     -43.099  61.092 -54.021  1.00  0.00    -0.247 OA
HETATM   24  H   UNL     1     -41.042  59.127 -55.403  1.00  0.00     0.170 HD
HETATM   25  H   UNL     1     -41.390  58.593 -53.419  1.00  0.00     0.164 HD
BRANCH  22  26
HETATM   26  C   UNL     1     -42.379  60.020 -56.692  1.00  0.00     0.036 A 
HETATM   27  C   UNL     1     -43.534  59.460 -57.248  1.00  0.00     0.032 A 
HETATM   28  C   UNL     1     -43.955  59.834 -58.528  1.00  0.00     0.044 A 
HETATM   29  C   UNL     1     -43.218  60.762 -59.253  1.00  0.00     0.116 A 
HETATM   30  F   UNL     1     -43.623  61.118 -60.478  1.00  0.00    -0.206 F 
HETATM   31  C   UNL     1     -42.065  61.323 -58.722  1.00  0.00     0.044 A 
HETATM   32  C   UNL     1     -41.644  60.951 -57.442  1.00  0.00     0.032 A 
ENDBRANCH  22  26
ENDBRANCH   5  20
TORSDOF 6
ENDMDL
