MODEL 1
REMARK VINA RESULT:      -8.6      0.000      0.000
REMARK  7 active torsions:
REMARK  status: ('A' for Active; 'I' for Inactive)
REMARK    1  A    between atoms: C_2  and  N_3 
REMARK    2  A    between atoms: C_2  and  C_26 
REMARK       I    between atoms: N_3  and  C_4 
REMARK    3  A    between atoms: C_4  and  C_5 
REMARK    4  A    between atoms: C_8  and  C_9 
REMARK       I    between atoms: C_9  and  N_10 
REMARK    5  A    between atoms: N_10  and  C_11 
REMARK    6  A    between atoms: N_20  and  C_21 
REMARK    7  A    between atoms: C_28  and  O_29 
ROOT
HETATM    1  C   UNL     1     -44.069  56.854 -51.791  1.00  0.00     0.098 A 
HETATM    2  C   UNL     1     -43.708  56.913 -53.240  1.00  0.00     0.206 A 
HETATM    3  O   UNL     1     -43.068  55.999 -53.765  1.00  0.00    -0.286 OA
HETATM    4  C   UNL     1     -44.122  58.107 -54.039  1.00  0.00     0.098 A 
HETATM    5  C   UNL     1     -44.790  59.071 -53.382  1.00  0.00     0.112 A 
HETATM    6  N   UNL     1     -45.122  59.001 -52.044  1.00  0.00    -0.360 N 
HETATM    7  C   UNL     1     -44.732  57.910 -51.292  1.00  0.00     0.112 A 
ENDROOT
BRANCH   1   8
HETATM    8  C   UNL     1     -43.728  55.719 -50.886  1.00  0.00     0.257 C 
HETATM    9  N   UNL     1     -42.402  55.378 -50.861  1.00  0.00    -0.348 N 
HETATM   10  H   UNL     1     -41.766  55.871 -51.486  1.00  0.00     0.163 HD
HETATM   11  O   UNL     1     -44.583  55.143 -50.221  1.00  0.00    -0.267 OA
BRANCH   9  12
HETATM   12  C   UNL     1     -41.857  54.288 -50.069  1.00  0.00     0.114 C 
HETATM   13  C   UNL     1     -40.978  54.799 -48.924  1.00  0.00     0.037 C 
BRANCH  12  14
HETATM   14  C   UNL     1     -41.073  53.341 -50.966  1.00  0.00    -0.033 A 
HETATM   15  C   UNL     1     -41.004  53.574 -52.353  1.00  0.00     0.046 A 
HETATM   16  C   UNL     1     -40.284  52.713 -53.185  1.00  0.00     0.068 A 
HETATM   17  C   UNL     1     -39.615  51.620 -52.630  1.00  0.00     0.037 A 
HETATM   18  C   UNL     1     -39.672  51.375 -51.261  1.00  0.00     0.003 A 
HETATM   19  C   UNL     1     -40.402  52.227 -50.434  1.00  0.00     0.009 A 
BRANCH  16  20
HETATM   20  O   UNL     1     -40.150  52.829 -54.543  1.00  0.00    -0.356 OA
HETATM   21  C   UNL     1     -40.181  54.144 -55.082  1.00  0.00     0.210 C 
ENDBRANCH  16  20
ENDBRANCH  12  14
ENDBRANCH   9  12
ENDBRANCH   1   8
BRANCH   4  22
HETATM   22  C   UNL     1     -43.839  58.281 -55.493  1.00  0.00     0.257 C 
HETATM   23  N   UNL     1     -44.010  57.150 -56.250  1.00  0.00    -0.352 N 
HETATM   24  H   UNL     1     -44.402  56.329 -55.789  1.00  0.00     0.163 HD
HETATM   25  O   UNL     1     -43.489  59.361 -55.956  1.00  0.00    -0.267 OA
BRANCH  23  26
HETATM   26  C   UNL     1     -43.997  57.132 -57.711  1.00  0.00     0.084 C 
HETATM   27  C   UNL     1     -43.389  55.799 -58.165  1.00  0.00     0.025 C 
HETATM   28  C   UNL     1     -43.418  55.522 -59.667  1.00  0.00     0.002 C 
HETATM   29  C   UNL     1     -44.816  55.178 -60.170  1.00  0.00     0.000 C 
HETATM   30  C   UNL     1     -45.674  56.378 -60.556  1.00  0.00     0.000 C 
HETATM   31  C   UNL     1     -45.508  57.641 -59.717  1.00  0.00     0.002 C 
HETATM   32  C   UNL     1     -45.424  57.401 -58.213  1.00  0.00     0.025 C 
ENDBRANCH  23  26
ENDBRANCH   4  22
BRANCH   6  33
HETATM   33  C   UNL     1     -45.680  60.185 -51.376  1.00  0.00     0.089 A 
HETATM   34  C   UNL     1     -45.547  60.387 -49.889  1.00  0.00     0.028 A 
HETATM   35  C   UNL     1     -44.806  61.286 -50.832  1.00  0.00     0.028 A 
ENDBRANCH   6  33
TORSDOF 7
ENDMDL
MODEL 2
REMARK VINA RESULT:      -8.3      1.208      1.826
REMARK  7 active torsions:
REMARK  status: ('A' for Active; 'I' for Inactive)
REMARK    1  A    between atoms: C_2  and  N_3 
REMARK    2  A    between atoms: C_2  and  C_26 
REMARK       I    between atoms: N_3  and  C_4 
REMARK    3  A    between atoms: C_4  and  C_5 
REMARK    4  A    between atoms: C_8  and  C_9 
REMARK       I    between atoms: C_9  and  N_10 
REMARK    5  A    between atoms: N_10  and  C_11 
REMARK    6  A    between atoms: N_20  and  C_21 
REMARK    7  A    between atoms: C_28  and  O_29 
ROOT
HETATM    1  C   UNL     1     -44.333  57.639 -52.427  1.00  0.00     0.098 A 
HETATM    2  C   UNL     1     -44.133  57.600 -53.907  1.00  0.00     0.206 A 
HETATM    3  O   UNL     1     -43.562  56.645 -54.438  1.00  0.00    -0.286 OA
HETATM    4  C   UNL     1     -44.625  58.745 -54.732  1.00  0.00     0.098 A 
HETATM    5  C   UNL     1     -45.209  59.760 -54.071  1.00  0.00     0.112 A 
HETATM    6  N   UNL     1     -45.392  59.780 -52.703  1.00  0.00    -0.360 N 
HETATM    7  C   UNL     1     -44.929  58.735 -51.928  1.00  0.00     0.112 A 
ENDROOT
BRANCH   1   8
HETATM    8  C   UNL     1     -43.902  56.560 -51.492  1.00  0.00     0.257 C 
HETATM    9  N   UNL     1     -42.660  56.042 -51.739  1.00  0.00    -0.348 N 
HETATM   10  H   UNL     1     -42.151  56.380 -52.555  1.00  0.00     0.163 HD
HETATM   11  O   UNL     1     -44.621  56.174 -50.575  1.00  0.00    -0.267 OA
BRANCH   9  12
HETATM   12  C   UNL     1     -42.056  54.968 -50.968  1.00  0.00     0.114 C 
HETATM   13  C   UNL     1     -41.071  55.499 -49.924  1.00  0.00     0.037 C 
BRANCH  12  14
HETATM   14  C   UNL     1     -41.369  53.984 -51.904  1.00  0.00    -0.033 A 
HETATM   15  C   UNL     1     -40.514  52.994 -51.385  1.00  0.00     0.046 A 
HETATM   16  C   UNL     1     -39.880  52.083 -52.235  1.00  0.00     0.068 A 
HETATM   17  C   UNL     1     -40.111  52.150 -53.610  1.00  0.00     0.037 A 
HETATM   18  C   UNL     1     -40.954  53.124 -54.141  1.00  0.00     0.003 A 
HETATM   19  C   UNL     1     -41.575  54.040 -53.293  1.00  0.00     0.009 A 
BRANCH  16  20
HETATM   20  O   UNL     1     -39.025  51.085 -51.853  1.00  0.00    -0.356 OA
HETATM   21  C   UNL     1     -39.572  50.034 -51.067  1.00  0.00     0.210 C 
ENDBRANCH  16  20
ENDBRANCH  12  14
ENDBRANCH   9  12
ENDBRANCH   1   8
BRANCH   4  22
HETATM   22  C   UNL     1     -44.502  58.822 -56.216  1.00  0.00     0.257 C 
HETATM   23  N   UNL     1     -44.957  57.715 -56.887  1.00  0.00    -0.352 N 
HETATM   24  H   UNL     1     -45.422  56.991 -56.340  1.00  0.00     0.163 HD
HETATM   25  O   UNL     1     -44.034  59.808 -56.775  1.00  0.00    -0.267 OA
BRANCH  23  26
HETATM   26  C   UNL     1     -45.132  57.649 -58.336  1.00  0.00     0.084 C 
HETATM   27  C   UNL     1     -44.245  56.519 -58.872  1.00  0.00     0.025 C 
HETATM   28  C   UNL     1     -44.393  56.191 -60.356  1.00  0.00     0.002 C 
HETATM   29  C   UNL     1     -45.694  55.460 -60.665  1.00  0.00     0.000 C 
HETATM   30  C   UNL     1     -46.894  56.364 -60.928  1.00  0.00     0.000 C 
HETATM   31  C   UNL     1     -46.975  57.652 -60.116  1.00  0.00     0.002 C 
HETATM   32  C   UNL     1     -46.631  57.498 -58.639  1.00  0.00     0.025 C 
ENDBRANCH  23  26
ENDBRANCH   4  22
BRANCH   6  33
HETATM   33  C   UNL     1     -45.864  61.013 -52.057  1.00  0.00     0.089 A 
HETATM   34  C   UNL     1     -45.996  61.117 -50.559  1.00  0.00     0.028 A 
HETATM   35  C   UNL     1     -44.943  61.910 -51.271  1.00  0.00     0.028 A 
ENDBRANCH   6  33
TORSDOF 7
ENDMDL
MODEL 3
REMARK VINA RESULT:      -8.0      2.613      7.878
REMARK  7 active torsions:
REMARK  status: ('A' for Active; 'I' for Inactive)
REMARK    1  A    between atoms: C_2  and  N_3 
REMARK    2  A    between atoms: C_2  and  C_26 
REMARK       I    between atoms: N_3  and  C_4 
REMARK    3  A    between atoms: C_4  and  C_5 
REMARK    4  A    between atoms: C_8  and  C_9 
REMARK       I    between atoms: C_9  and  N_10 
REMARK    5  A    between atoms: N_10  and  C_11 
REMARK    6  A    between atoms: N_20  and  C_21 
REMARK    7  A    between atoms: C_28  and  O_29 
ROOT
HETATM    1  C   UNL     1     -42.023  58.840 -54.791  1.00  0.00     0.098 A 
HETATM    2  C   UNL     1     -42.311  57.387 -54.600  1.00  0.00     0.206 A 
HETATM    3  O   UNL     1     -42.801  56.719 -55.513  1.00  0.00    -0.286 OA
HETATM    4  C   UNL     1     -42.010  56.760 -53.276  1.00  0.00     0.098 A 
HETATM    5  C   UNL     1     -41.506  57.566 -52.326  1.00  0.00     0.112 A 
HETATM    6  N   UNL     1     -41.239  58.907 -52.519  1.00  0.00    -0.360 N 
HETATM    7  C   UNL     1     -41.527  59.501 -53.732  1.00  0.00     0.112 A 
ENDROOT
BRANCH   1   8
HETATM    8  C   UNL     1     -42.264  59.585 -56.061  1.00  0.00     0.257 C 
HETATM    9  N   UNL     1     -43.510  59.416 -56.602  1.00  0.00    -0.348 N 
HETATM   10  H   UNL     1     -44.151  58.768 -56.144  1.00  0.00     0.163 HD
HETATM   11  O   UNL     1     -41.399  60.290 -56.572  1.00  0.00    -0.267 OA
BRANCH   9  12
HETATM   12  C   UNL     1     -43.948  60.027 -57.846  1.00  0.00     0.114 C 
HETATM   13  C   UNL     1     -44.861  61.231 -57.599  1.00  0.00     0.037 C 
BRANCH  12  14
HETATM   14  C   UNL     1     -44.648  58.990 -58.712  1.00  0.00    -0.033 A 
HETATM   15  C   UNL     1     -43.934  57.881 -59.204  1.00  0.00     0.046 A 
HETATM   16  C   UNL     1     -44.568  56.921 -59.997  1.00  0.00     0.068 A 
HETATM   17  C   UNL     1     -45.926  57.059 -60.291  1.00  0.00     0.037 A 
HETATM   18  C   UNL     1     -46.647  58.150 -59.813  1.00  0.00     0.003 A 
HETATM   19  C   UNL     1     -46.011  59.114 -59.033  1.00  0.00     0.009 A 
BRANCH  16  20
HETATM   20  O   UNL     1     -43.982  55.808 -60.538  1.00  0.00    -0.356 OA
HETATM   21  C   UNL     1     -44.551  54.551 -60.196  1.00  0.00     0.210 C 
ENDBRANCH  16  20
ENDBRANCH  12  14
ENDBRANCH   9  12
ENDBRANCH   1   8
BRANCH   4  22
HETATM   22  C   UNL     1     -42.236  55.320 -52.961  1.00  0.00     0.257 C 
HETATM   23  N   UNL     1     -41.306  54.463 -53.494  1.00  0.00    -0.352 N 
HETATM   24  H   UNL     1     -40.501  54.876 -53.965  1.00  0.00     0.163 HD
HETATM   25  O   UNL     1     -43.181  54.951 -52.273  1.00  0.00    -0.267 OA
BRANCH  23  26
HETATM   26  C   UNL     1     -41.202  53.048 -53.147  1.00  0.00     0.084 C 
HETATM   27  C   UNL     1     -40.900  52.265 -54.431  1.00  0.00     0.025 C 
HETATM   28  C   UNL     1     -40.611  50.775 -54.260  1.00  0.00     0.002 C 
HETATM   29  C   UNL     1     -39.237  50.514 -53.651  1.00  0.00     0.000 C 
HETATM   30  C   UNL     1     -39.199  50.513 -52.126  1.00  0.00     0.000 C 
HETATM   31  C   UNL     1     -40.119  51.501 -51.415  1.00  0.00     0.002 C 
HETATM   32  C   UNL     1     -40.157  52.895 -52.031  1.00  0.00     0.025 C 
ENDBRANCH  23  26
ENDBRANCH   4  22
BRANCH   6  33
HETATM   33  C   UNL     1     -40.873  59.742 -51.367  1.00  0.00     0.089 A 
HETATM   34  C   UNL     1     -40.823  59.180 -49.970  1.00  0.00     0.028 A 
HETATM   35  C   UNL     1     -39.554  59.590 -50.653  1.00  0.00     0.028 A 
ENDBRANCH   6  33
TORSDOF 7
ENDMDL
MODEL 4
REMARK VINA RESULT:      -7.8      1.973      7.622
REMARK  7 active torsions:
REMARK  status: ('A' for Active; 'I' for Inactive)
REMARK    1  A    between atoms: C_2  and  N_3 
REMARK    2  A    between atoms: C_2  and  C_26 
REMARK       I    between atoms: N_3  and  C_4 
REMARK    3  A    between atoms: C_4  and  C_5 
REMARK    4  A    between atoms: C_8  and  C_9 
REMARK       I    between atoms: C_9  and  N_10 
REMARK    5  A    between atoms: N_10  and  C_11 
REMARK    6  A    between atoms: N_20  and  C_21 
REMARK    7  A    between atoms: C_28  and  O_29 
ROOT
HETATM    1  C   UNL     1     -43.969  58.757 -54.495  1.00  0.00     0.098 A 
HETATM    2  C   UNL     1     -43.766  57.309 -54.186  1.00  0.00     0.206 A 
HETATM    3  O   UNL     1     -43.924  56.453 -55.058  1.00  0.00    -0.286 OA
HETATM    4  C   UNL     1     -43.382  56.915 -52.796  1.00  0.00     0.098 A 
HETATM    5  C   UNL     1     -43.259  57.909 -51.898  1.00  0.00     0.112 A 
HETATM    6  N   UNL     1     -43.444  59.243 -52.199  1.00  0.00    -0.360 N 
HETATM    7  C   UNL     1     -43.813  59.619 -53.476  1.00  0.00     0.112 A 
ENDROOT
BRANCH   1   8
HETATM    8  C   UNL     1     -44.341  59.284 -55.840  1.00  0.00     0.257 C 
HETATM    9  N   UNL     1     -45.264  58.537 -56.519  1.00  0.00    -0.348 N 
HETATM   10  H   UNL     1     -45.585  57.666 -56.096  1.00  0.00     0.163 HD
HETATM   11  O   UNL     1     -43.845  60.312 -56.291  1.00  0.00    -0.267 OA
BRANCH   9  12
HETATM   12  C   UNL     1     -45.748  58.854 -57.852  1.00  0.00     0.114 C 
HETATM   13  C   UNL     1     -47.229  59.241 -57.844  1.00  0.00     0.037 C 
BRANCH  12  14
HETATM   14  C   UNL     1     -45.506  57.675 -58.783  1.00  0.00    -0.033 A 
HETATM   15  C   UNL     1     -46.450  57.353 -59.777  1.00  0.00     0.046 A 
HETATM   16  C   UNL     1     -46.236  56.275 -60.640  1.00  0.00     0.068 A 
HETATM   17  C   UNL     1     -45.067  55.520 -60.521  1.00  0.00     0.037 A 
HETATM   18  C   UNL     1     -44.124  55.824 -59.543  1.00  0.00     0.003 A 
HETATM   19  C   UNL     1     -44.345  56.891 -58.675  1.00  0.00     0.009 A 
BRANCH  16  20
HETATM   20  O   UNL     1     -47.078  55.860 -61.636  1.00  0.00    -0.356 OA
HETATM   21  C   UNL     1     -48.136  56.741 -61.993  1.00  0.00     0.210 C 
ENDBRANCH  16  20
ENDBRANCH  12  14
ENDBRANCH   9  12
ENDBRANCH   1   8
BRANCH   4  22
HETATM   22  C   UNL     1     -43.135  55.510 -52.361  1.00  0.00     0.257 C 
HETATM   23  N   UNL     1     -42.367  54.769 -53.223  1.00  0.00    -0.352 N 
HETATM   24  H   UNL     1     -41.954  55.254 -54.020  1.00  0.00     0.163 HD
HETATM   25  O   UNL     1     -43.586  55.072 -51.308  1.00  0.00    -0.267 OA
BRANCH  23  26
HETATM   26  C   UNL     1     -41.823  53.450 -52.910  1.00  0.00     0.084 C 
HETATM   27  C   UNL     1     -41.455  52.761 -54.229  1.00  0.00     0.025 C 
HETATM   28  C   UNL     1     -40.733  51.421 -54.112  1.00  0.00     0.002 C 
HETATM   29  C   UNL     1     -39.283  51.576 -53.667  1.00  0.00     0.000 C 
HETATM   30  C   UNL     1     -39.075  51.617 -52.156  1.00  0.00     0.000 C 
HETATM   31  C   UNL     1     -40.154  52.313 -51.332  1.00  0.00     0.002 C 
HETATM   32  C   UNL     1     -40.659  53.626 -51.922  1.00  0.00     0.025 C 
ENDBRANCH  23  26
ENDBRANCH   4  22
BRANCH   6  33
HETATM   33  C   UNL     1     -43.477  60.230 -51.112  1.00  0.00     0.089 A 
HETATM   34  C   UNL     1     -42.215  60.700 -50.435  1.00  0.00     0.028 A 
HETATM   35  C   UNL     1     -42.993  61.646 -51.298  1.00  0.00     0.028 A 
ENDBRANCH   6  33
TORSDOF 7
ENDMDL
MODEL 5
REMARK VINA RESULT:      -7.5      2.043      2.589
REMARK  7 active torsions:
REMARK  status: ('A' for Active; 'I' for Inactive)
REMARK    1  A    between atoms: C_2  and  N_3 
REMARK    2  A    between atoms: C_2  and  C_26 
REMARK       I    between atoms: N_3  and  C_4 
REMARK    3  A    between atoms: C_4  and  C_5 
REMARK    4  A    between atoms: C_8  and  C_9 
REMARK       I    between atoms: C_9  and  N_10 
REMARK    5  A    between atoms: N_10  and  C_11 
REMARK    6  A    between atoms: N_20  and  C_21 
REMARK    7  A    between atoms: C_28  and  O_29 
ROOT
HETATM    1  C   UNL     1     -41.897  58.122 -52.953  1.00  0.00     0.098 A 
HETATM    2  C   UNL     1     -42.006  57.798 -54.408  1.00  0.00     0.206 A 
HETATM    3  O   UNL     1     -41.690  56.683 -54.828  1.00  0.00    -0.286 OA
HETATM    4  C   UNL     1     -42.491  58.855 -55.348  1.00  0.00     0.098 A 
HETATM    5  C   UNL     1     -42.786  60.052 -54.811  1.00  0.00     0.112 A 
HETATM    6  N   UNL     1     -42.686  60.335 -53.464  1.00  0.00    -0.360 N 
HETATM    7  C   UNL     1     -42.226  59.372 -52.588  1.00  0.00     0.112 A 
ENDROOT
BRANCH   1   8
HETATM    8  C   UNL     1     -41.441  57.159 -51.910  1.00  0.00     0.257 C 
HETATM    9  N   UNL     1     -41.760  55.850 -52.151  1.00  0.00    -0.348 N 
HETATM   10  H   UNL     1     -42.321  55.635 -52.976  1.00  0.00     0.163 HD
HETATM   11  O   UNL     1     -40.827  57.528 -50.913  1.00  0.00    -0.267 OA
BRANCH   9  12
HETATM   12  C   UNL     1     -41.435  54.753 -51.256  1.00  0.00     0.114 C 
HETATM   13  C   UNL     1     -40.531  55.204 -50.106  1.00  0.00     0.037 C 
BRANCH  12  14
HETATM   14  C   UNL     1     -40.784  53.623 -52.039  1.00  0.00    -0.033 A 
HETATM   15  C   UNL     1     -40.216  52.528 -51.361  1.00  0.00     0.046 A 
HETATM   16  C   UNL     1     -39.618  51.482 -52.070  1.00  0.00     0.068 A 
HETATM   17  C   UNL     1     -39.601  51.520 -53.466  1.00  0.00     0.037 A 
HETATM   18  C   UNL     1     -40.158  52.596 -54.153  1.00  0.00     0.003 A 
HETATM   19  C   UNL     1     -40.741  53.644 -53.444  1.00  0.00     0.009 A 
BRANCH  16  20
HETATM   20  O   UNL     1     -39.028  50.373 -51.527  1.00  0.00    -0.356 OA
HETATM   21  C   UNL     1     -39.788  49.641 -50.574  1.00  0.00     0.210 C 
ENDBRANCH  16  20
ENDBRANCH  12  14
ENDBRANCH   9  12
ENDBRANCH   1   8
BRANCH   4  22
HETATM   22  C   UNL     1     -42.659  58.656 -56.816  1.00  0.00     0.257 C 
HETATM   23  N   UNL     1     -43.551  57.673 -57.164  1.00  0.00    -0.352 N 
HETATM   24  H   UNL     1     -44.087  57.237 -56.414  1.00  0.00     0.163 HD
HETATM   25  O   UNL     1     -42.044  59.333 -57.633  1.00  0.00    -0.267 OA
BRANCH  23  26
HETATM   26  C   UNL     1     -44.032  57.446 -58.525  1.00  0.00     0.084 C 
HETATM   27  C   UNL     1     -43.591  56.043 -58.958  1.00  0.00     0.025 C 
HETATM   28  C   UNL     1     -44.120  55.555 -60.304  1.00  0.00     0.002 C 
HETATM   29  C   UNL     1     -45.600  55.190 -60.252  1.00  0.00     0.000 C 
HETATM   30  C   UNL     1     -46.558  56.351 -60.498  1.00  0.00     0.000 C 
HETATM   31  C   UNL     1     -46.140  57.714 -59.957  1.00  0.00     0.002 C 
HETATM   32  C   UNL     1     -45.549  57.689 -58.551  1.00  0.00     0.025 C 
ENDBRANCH  23  26
ENDBRANCH   4  22
BRANCH   6  33
HETATM   33  C   UNL     1     -42.845  61.722 -53.005  1.00  0.00     0.089 A 
HETATM   34  C   UNL     1     -43.848  62.652 -53.638  1.00  0.00     0.028 A 
HETATM   35  C   UNL     1     -44.057  62.177 -52.232  1.00  0.00     0.028 A 
ENDBRANCH   6  33
TORSDOF 7
ENDMDL
MODEL 6
REMARK VINA RESULT:      -7.5      1.497      2.337
REMARK  7 active torsions:
REMARK  status: ('A' for Active; 'I' for Inactive)
REMARK    1  A    between atoms: C_2  and  N_3 
REMARK    2  A    between atoms: C_2  and  C_26 
REMARK       I    between atoms: N_3  and  C_4 
REMARK    3  A    between atoms: C_4  and  C_5 
REMARK    4  A    between atoms: C_8  and  C_9 
REMARK       I    between atoms: C_9  and  N_10 
REMARK    5  A    between atoms: N_10  and  C_11 
REMARK    6  A    between atoms: N_20  and  C_21 
REMARK    7  A    between atoms: C_28  and  O_29 
ROOT
HETATM    1  C   UNL     1     -44.178  57.434 -52.235  1.00  0.00     0.098 A 
HETATM    2  C   UNL     1     -43.732  57.509 -53.660  1.00  0.00     0.206 A 
HETATM    3  O   UNL     1     -42.989  56.645 -54.131  1.00  0.00    -0.286 OA
HETATM    4  C   UNL     1     -44.189  58.658 -54.499  1.00  0.00     0.098 A 
HETATM    5  C   UNL     1     -44.972  59.571 -53.899  1.00  0.00     0.112 A 
HETATM    6  N   UNL     1     -45.381  59.486 -52.584  1.00  0.00    -0.360 N 
HETATM    7  C   UNL     1     -44.954  58.437 -51.793  1.00  0.00     0.112 A 
ENDROOT
BRANCH   1   8
HETATM    8  C   UNL     1     -43.805  56.338 -51.295  1.00  0.00     0.257 C 
HETATM    9  N   UNL     1     -42.536  55.849 -51.450  1.00  0.00    -0.348 N 
HETATM   10  H   UNL     1     -41.967  56.218 -52.212  1.00  0.00     0.163 HD
HETATM   11  O   UNL     1     -44.590  55.915 -50.452  1.00  0.00    -0.267 OA
BRANCH   9  12
HETATM   12  C   UNL     1     -41.977  54.767 -50.658  1.00  0.00     0.114 C 
HETATM   13  C   UNL     1     -41.062  55.286 -49.547  1.00  0.00     0.037 C 
BRANCH  12  14
HETATM   14  C   UNL     1     -41.228  53.799 -51.563  1.00  0.00    -0.033 A 
HETATM   15  C   UNL     1     -40.544  52.699 -51.010  1.00  0.00     0.046 A 
HETATM   16  C   UNL     1     -39.856  51.802 -51.832  1.00  0.00     0.068 A 
HETATM   17  C   UNL     1     -39.861  51.994 -53.215  1.00  0.00     0.037 A 
HETATM   18  C   UNL     1     -40.532  53.077 -53.778  1.00  0.00     0.003 A 
HETATM   19  C   UNL     1     -41.206  53.978 -52.956  1.00  0.00     0.009 A 
BRANCH  16  20
HETATM   20  O   UNL     1     -39.151  50.705 -51.415  1.00  0.00    -0.356 OA
HETATM   21  C   UNL     1     -39.838  49.776 -50.587  1.00  0.00     0.210 C 
ENDBRANCH  16  20
ENDBRANCH  12  14
ENDBRANCH   9  12
ENDBRANCH   1   8
BRANCH   4  22
HETATM   22  C   UNL     1     -43.829  58.841 -55.935  1.00  0.00     0.257 C 
HETATM   23  N   UNL     1     -43.679  57.676 -56.643  1.00  0.00    -0.352 N 
HETATM   24  H   UNL     1     -43.917  56.804 -56.170  1.00  0.00     0.163 HD
HETATM   25  O   UNL     1     -43.689  59.956 -56.427  1.00  0.00    -0.267 OA
BRANCH  23  26
HETATM   26  C   UNL     1     -43.539  57.611 -58.095  1.00  0.00     0.084 C 
HETATM   27  C   UNL     1     -44.651  58.463 -58.719  1.00  0.00     0.025 C 
HETATM   28  C   UNL     1     -44.593  58.644 -60.234  1.00  0.00     0.002 C 
HETATM   29  C   UNL     1     -43.479  59.591 -60.666  1.00  0.00     0.000 C 
HETATM   30  C   UNL     1     -42.118  58.933 -60.872  1.00  0.00     0.000 C 
HETATM   31  C   UNL     1     -41.757  57.791 -59.929  1.00  0.00     0.002 C 
HETATM   32  C   UNL     1     -42.109  58.036 -58.465  1.00  0.00     0.025 C 
ENDBRANCH  23  26
ENDBRANCH   4  22
BRANCH   6  33
HETATM   33  C   UNL     1     -46.073  60.627 -51.968  1.00  0.00     0.089 A 
HETATM   34  C   UNL     1     -45.860  60.992 -50.522  1.00  0.00     0.028 A 
HETATM   35  C   UNL     1     -45.353  61.899 -51.601  1.00  0.00     0.028 A 
ENDBRANCH   6  33
TORSDOF 7
ENDMDL
MODEL 7
REMARK VINA RESULT:      -7.4      2.093      8.294
REMARK  7 active torsions:
REMARK  status: ('A' for Active; 'I' for Inactive)
REMARK    1  A    between atoms: C_2  and  N_3 
REMARK    2  A    between atoms: C_2  and  C_26 
REMARK       I    between atoms: N_3  and  C_4 
REMARK    3  A    between atoms: C_4  and  C_5 
REMARK    4  A    between atoms: C_8  and  C_9 
REMARK       I    between atoms: C_9  and  N_10 
REMARK    5  A    between atoms: N_10  and  C_11 
REMARK    6  A    between atoms: N_20  and  C_21 
REMARK    7  A    between atoms: C_28  and  O_29 
ROOT
HETATM    1  C   UNL     1     -43.501  56.397 -53.601  1.00  0.00     0.098 A 
HETATM    2  C   UNL     1     -44.315  57.500 -53.005  1.00  0.00     0.206 A 
HETATM    3  O   UNL     1     -44.838  58.353 -53.726  1.00  0.00    -0.286 OA
HETATM    4  C   UNL     1     -44.472  57.560 -51.520  1.00  0.00     0.098 A 
HETATM    5  C   UNL     1     -43.845  56.609 -50.807  1.00  0.00     0.112 A 
HETATM    6  N   UNL     1     -43.101  55.592 -51.371  1.00  0.00    -0.360 N 
HETATM    7  C   UNL     1     -42.936  55.534 -52.740  1.00  0.00     0.112 A 
ENDROOT
BRANCH   1   8
HETATM    8  C   UNL     1     -43.276  56.215 -55.063  1.00  0.00     0.257 C 
HETATM    9  N   UNL     1     -43.170  57.376 -55.782  1.00  0.00    -0.348 N 
HETATM   10  H   UNL     1     -43.305  58.259 -55.291  1.00  0.00     0.163 HD
HETATM   11  O   UNL     1     -43.195  55.100 -55.571  1.00  0.00    -0.267 OA
BRANCH   9  12
HETATM   12  C   UNL     1     -42.975  57.429 -57.220  1.00  0.00     0.114 C 
HETATM   13  C   UNL     1     -42.186  58.671 -57.643  1.00  0.00     0.037 C 
BRANCH  12  14
HETATM   14  C   UNL     1     -44.322  57.382 -57.926  1.00  0.00    -0.033 A 
HETATM   15  C   UNL     1     -44.500  56.563 -59.058  1.00  0.00     0.046 A 
HETATM   16  C   UNL     1     -45.734  56.509 -59.712  1.00  0.00     0.068 A 
HETATM   17  C   UNL     1     -46.803  57.266 -59.226  1.00  0.00     0.037 A 
HETATM   18  C   UNL     1     -46.644  58.082 -58.109  1.00  0.00     0.003 A 
HETATM   19  C   UNL     1     -45.409  58.144 -57.466  1.00  0.00     0.009 A 
BRANCH  16  20
HETATM   20  O   UNL     1     -46.027  55.761 -60.820  1.00  0.00    -0.356 OA
HETATM   21  C   UNL     1     -45.007  54.895 -61.300  1.00  0.00     0.210 C 
ENDBRANCH  16  20
ENDBRANCH  12  14
ENDBRANCH   9  12
ENDBRANCH   1   8
BRANCH   4  22
HETATM   22  C   UNL     1     -45.269  58.597 -50.804  1.00  0.00     0.257 C 
HETATM   23  N   UNL     1     -44.555  59.702 -50.413  1.00  0.00    -0.352 N 
HETATM   24  H   UNL     1     -43.586  59.769 -50.724  1.00  0.00     0.163 HD
HETATM   25  O   UNL     1     -46.470  58.458 -50.595  1.00  0.00    -0.267 OA
BRANCH  23  26
HETATM   26  C   UNL     1     -45.159  60.926 -49.891  1.00  0.00     0.084 C 
HETATM   27  C   UNL     1     -44.491  61.250 -48.550  1.00  0.00     0.025 C 
HETATM   28  C   UNL     1     -44.882  62.578 -47.905  1.00  0.00     0.002 C 
HETATM   29  C   UNL     1     -44.269  63.777 -48.621  1.00  0.00     0.000 C 
HETATM   30  C   UNL     1     -45.084  64.311 -49.795  1.00  0.00     0.000 C 
HETATM   31  C   UNL     1     -45.833  63.283 -50.637  1.00  0.00     0.002 C 
HETATM   32  C   UNL     1     -45.037  62.023 -50.961  1.00  0.00     0.025 C 
ENDBRANCH  23  26
ENDBRANCH   4  22
BRANCH   6  33
HETATM   33  C   UNL     1     -42.299  54.718 -50.503  1.00  0.00     0.089 A 
HETATM   34  C   UNL     1     -41.086  53.990 -51.021  1.00  0.00     0.028 A 
HETATM   35  C   UNL     1     -40.920  55.102 -50.032  1.00  0.00     0.028 A 
ENDBRANCH   6  33
TORSDOF 7
ENDMDL
MODEL 8
REMARK VINA RESULT:      -7.2      2.554      6.693
REMARK  7 active torsions:
REMARK  status: ('A' for Active; 'I' for Inactive)
REMARK    1  A    between atoms: C_2  and  N_3 
REMARK    2  A    between atoms: C_2  and  C_26 
REMARK       I    between atoms: N_3  and  C_4 
REMARK    3  A    between atoms: C_4  and  C_5 
REMARK    4  A    between atoms: C_8  and  C_9 
REMARK       I    between atoms: C_9  and  N_10 
REMARK    5  A    between atoms: N_10  and  C_11 
REMARK    6  A    between atoms: N_20  and  C_21 
REMARK    7  A    between atoms: C_28  and  O_29 
ROOT
HETATM    1  C   UNL     1     -41.449  57.828 -51.148  1.00  0.00     0.098 A 
HETATM    2  C   UNL     1     -41.444  57.635 -52.630  1.00  0.00     0.206 A 
HETATM    3  O   UNL     1     -41.580  58.598 -53.387  1.00  0.00    -0.286 OA
HETATM    4  C   UNL     1     -41.286  56.253 -53.177  1.00  0.00     0.098 A 
HETATM    5  C   UNL     1     -41.174  55.258 -52.281  1.00  0.00     0.112 A 
HETATM    6  N   UNL     1     -41.175  55.450 -50.914  1.00  0.00    -0.360 N 
HETATM    7  C   UNL     1     -41.334  56.720 -50.395  1.00  0.00     0.112 A 
ENDROOT
BRANCH   1   8
HETATM    8  C   UNL     1     -41.586  59.151 -50.472  1.00  0.00     0.257 C 
HETATM    9  N   UNL     1     -42.809  59.750 -50.617  1.00  0.00    -0.348 N 
HETATM   10  H   UNL     1     -43.504  59.291 -51.205  1.00  0.00     0.163 HD
HETATM   11  O   UNL     1     -40.662  59.653 -49.840  1.00  0.00    -0.267 OA
BRANCH   9  12
HETATM   12  C   UNL     1     -43.149  61.050 -50.064  1.00  0.00     0.114 C 
HETATM   13  C   UNL     1     -44.508  61.031 -49.359  1.00  0.00     0.037 C 
BRANCH  12  14
HETATM   14  C   UNL     1     -43.130  62.100 -51.165  1.00  0.00    -0.033 A 
HETATM   15  C   UNL     1     -43.205  61.711 -52.516  1.00  0.00     0.046 A 
HETATM   16  C   UNL     1     -43.192  62.667 -53.535  1.00  0.00     0.068 A 
HETATM   17  C   UNL     1     -43.118  64.022 -53.205  1.00  0.00     0.037 A 
HETATM   18  C   UNL     1     -43.042  64.425 -51.874  1.00  0.00     0.003 A 
HETATM   19  C   UNL     1     -43.042  63.469 -50.860  1.00  0.00     0.009 A 
BRANCH  16  20
HETATM   20  O   UNL     1     -43.252  62.414 -54.879  1.00  0.00    -0.356 OA
HETATM   21  C   UNL     1     -43.090  61.061 -55.287  1.00  0.00     0.210 C 
ENDBRANCH  16  20
ENDBRANCH  12  14
ENDBRANCH   9  12
ENDBRANCH   1   8
BRANCH   4  22
HETATM   22  C   UNL     1     -41.249  55.928 -54.632  1.00  0.00     0.257 C 
HETATM   23  N   UNL     1     -42.167  56.604 -55.395  1.00  0.00    -0.352 N 
HETATM   24  H   UNL     1     -42.719  57.329 -54.935  1.00  0.00     0.163 HD
HETATM   25  O   UNL     1     -40.448  55.121 -55.092  1.00  0.00    -0.267 OA
BRANCH  23  26
HETATM   26  C   UNL     1     -42.176  56.608 -56.856  1.00  0.00     0.084 C 
HETATM   27  C   UNL     1     -43.183  55.553 -57.328  1.00  0.00     0.025 C 
HETATM   28  C   UNL     1     -43.448  55.497 -58.831  1.00  0.00     0.002 C 
HETATM   29  C   UNL     1     -44.288  56.672 -59.319  1.00  0.00     0.000 C 
HETATM   30  C   UNL     1     -43.496  57.923 -59.685  1.00  0.00     0.000 C 
HETATM   31  C   UNL     1     -42.265  58.229 -58.838  1.00  0.00     0.002 C 
HETATM   32  C   UNL     1     -42.459  58.039 -57.338  1.00  0.00     0.025 C 
ENDBRANCH  23  26
ENDBRANCH   4  22
BRANCH   6  33
HETATM   33  C   UNL     1     -41.241  54.285 -50.021  1.00  0.00     0.089 A 
HETATM   34  C   UNL     1     -40.482  53.019 -50.320  1.00  0.00     0.028 A 
HETATM   35  C   UNL     1     -40.078  53.871 -49.156  1.00  0.00     0.028 A 
ENDBRANCH   6  33
TORSDOF 7
ENDMDL
MODEL 9
REMARK VINA RESULT:      -7.2      2.500      6.768
REMARK  7 active torsions:
REMARK  status: ('A' for Active; 'I' for Inactive)
REMARK    1  A    between atoms: C_2  and  N_3 
REMARK    2  A    between atoms: C_2  and  C_26 
REMARK       I    between atoms: N_3  and  C_4 
REMARK    3  A    between atoms: C_4  and  C_5 
REMARK    4  A    between atoms: C_8  and  C_9 
REMARK       I    between atoms: C_9  and  N_10 
REMARK    5  A    between atoms: N_10  and  C_11 
REMARK    6  A    between atoms: N_20  and  C_21 
REMARK    7  A    between atoms: C_28  and  O_29 
ROOT
HETATM    1  C   UNL     1     -44.251  57.573 -52.325  1.00  0.00     0.098 A 
HETATM    2  C   UNL     1     -44.552  58.917 -51.745  1.00  0.00     0.206 A 
HETATM    3  O   UNL     1     -44.355  59.141 -50.549  1.00  0.00    -0.286 OA
HETATM    4  C   UNL     1     -45.111  59.979 -52.636  1.00  0.00     0.098 A 
HETATM    5  C   UNL     1     -45.323  59.641 -53.920  1.00  0.00     0.112 A 
HETATM    6  N   UNL     1     -45.034  58.397 -54.444  1.00  0.00    -0.360 N 
HETATM    7  C   UNL     1     -44.532  57.402 -53.628  1.00  0.00     0.112 A 
ENDROOT
BRANCH   1   8
HETATM    8  C   UNL     1     -43.682  56.432 -51.552  1.00  0.00     0.257 C 
HETATM    9  N   UNL     1     -42.392  56.101 -51.873  1.00  0.00    -0.348 N 
HETATM   10  H   UNL     1     -41.941  56.607 -52.635  1.00  0.00     0.163 HD
HETATM   11  O   UNL     1     -44.334  55.841 -50.697  1.00  0.00    -0.267 OA
BRANCH   9  12
HETATM   12  C   UNL     1     -41.655  55.009 -51.262  1.00  0.00     0.114 C 
HETATM   13  C   UNL     1     -40.562  55.516 -50.318  1.00  0.00     0.037 C 
BRANCH  12  14
HETATM   14  C   UNL     1     -41.060  54.119 -52.344  1.00  0.00    -0.033 A 
HETATM   15  C   UNL     1     -40.572  52.839 -52.019  1.00  0.00     0.046 A 
HETATM   16  C   UNL     1     -40.027  52.012 -53.005  1.00  0.00     0.068 A 
HETATM   17  C   UNL     1     -39.982  52.458 -54.327  1.00  0.00     0.037 A 
HETATM   18  C   UNL     1     -40.459  53.721 -54.667  1.00  0.00     0.003 A 
HETATM   19  C   UNL     1     -40.990  54.550 -53.680  1.00  0.00     0.009 A 
BRANCH  16  20
HETATM   20  O   UNL     1     -39.516  50.757 -52.812  1.00  0.00    -0.356 OA
HETATM   21  C   UNL     1     -39.639  49.840 -53.892  1.00  0.00     0.210 C 
ENDBRANCH  16  20
ENDBRANCH  12  14
ENDBRANCH   9  12
ENDBRANCH   1   8
BRANCH   4  22
HETATM   22  C   UNL     1     -45.439  61.362 -52.186  1.00  0.00     0.257 C 
HETATM   23  N   UNL     1     -46.191  61.430 -51.041  1.00  0.00    -0.352 N 
HETATM   24  H   UNL     1     -46.376  60.557 -50.547  1.00  0.00     0.163 HD
HETATM   25  O   UNL     1     -45.052  62.349 -52.802  1.00  0.00    -0.267 OA
BRANCH  23  26
HETATM   26  C   UNL     1     -46.452  62.664 -50.303  1.00  0.00     0.084 C 
HETATM   27  C   UNL     1     -47.787  63.238 -50.791  1.00  0.00     0.025 C 
HETATM   28  C   UNL     1     -48.312  64.458 -50.039  1.00  0.00     0.002 C 
HETATM   29  C   UNL     1     -48.849  64.104 -48.656  1.00  0.00     0.000 C 
HETATM   30  C   UNL     1     -47.805  64.091 -47.544  1.00  0.00     0.000 C 
HETATM   31  C   UNL     1     -46.410  63.597 -47.917  1.00  0.00     0.002 C 
HETATM   32  C   UNL     1     -46.388  62.354 -48.799  1.00  0.00     0.025 C 
ENDBRANCH  23  26
ENDBRANCH   4  22
BRANCH   6  33
HETATM   33  C   UNL     1     -45.480  58.067 -55.805  1.00  0.00     0.089 A 
HETATM   34  C   UNL     1     -45.668  59.133 -56.853  1.00  0.00     0.028 A 
HETATM   35  C   UNL     1     -44.554  58.141 -56.992  1.00  0.00     0.028 A 
ENDBRANCH   6  33
TORSDOF 7
ENDMDL
MODEL 10
REMARK VINA RESULT:      -7.2      2.373      5.928
REMARK  7 active torsions:
REMARK  status: ('A' for Active; 'I' for Inactive)
REMARK    1  A    between atoms: C_2  and  N_3 
REMARK    2  A    between atoms: C_2  and  C_26 
REMARK       I    between atoms: N_3  and  C_4 
REMARK    3  A    between atoms: C_4  and  C_5 
REMARK    4  A    between atoms: C_8  and  C_9 
REMARK       I    between atoms: C_9  and  N_10 
REMARK    5  A    between atoms: N_10  and  C_11 
REMARK    6  A    between atoms: N_20  and  C_21 
REMARK    7  A    between atoms: C_28  and  O_29 
ROOT
HETATM    1  C   UNL     1     -44.153  57.330 -52.543  1.00  0.00     0.098 A 
HETATM    2  C   UNL     1     -44.783  58.677 -52.394  1.00  0.00     0.206 A 
HETATM    3  O   UNL     1     -45.113  59.096 -51.283  1.00  0.00    -0.286 OA
HETATM    4  C   UNL     1     -45.022  59.500 -53.619  1.00  0.00     0.098 A 
HETATM    5  C   UNL     1     -44.661  58.956 -54.793  1.00  0.00     0.112 A 
HETATM    6  N   UNL     1     -44.074  57.713 -54.915  1.00  0.00    -0.360 N 
HETATM    7  C   UNL     1     -43.861  56.936 -53.794  1.00  0.00     0.112 A 
ENDROOT
BRANCH   1   8
HETATM    8  C   UNL     1     -43.849  56.415 -51.405  1.00  0.00     0.257 C 
HETATM    9  N   UNL     1     -42.612  55.830 -51.448  1.00  0.00    -0.348 N 
HETATM   10  H   UNL     1     -42.021  56.011 -52.259  1.00  0.00     0.163 HD
HETATM   11  O   UNL     1     -44.659  56.208 -50.507  1.00  0.00    -0.267 OA
BRANCH   9  12
HETATM   12  C   UNL     1     -42.121  54.887 -50.457  1.00  0.00     0.114 C 
HETATM   13  C   UNL     1     -41.311  55.583 -49.360  1.00  0.00     0.037 C 
BRANCH  12  14
HETATM   14  C   UNL     1     -41.290  53.809 -51.137  1.00  0.00    -0.033 A 
HETATM   15  C   UNL     1     -41.118  53.825 -52.535  1.00  0.00     0.046 A 
HETATM   16  C   UNL     1     -40.354  52.842 -53.169  1.00  0.00     0.068 A 
HETATM   17  C   UNL     1     -39.744  51.844 -52.405  1.00  0.00     0.037 A 
HETATM   18  C   UNL     1     -39.905  51.814 -51.022  1.00  0.00     0.003 A 
HETATM   19  C   UNL     1     -40.678  52.787 -50.392  1.00  0.00     0.009 A 
BRANCH  16  20
HETATM   20  O   UNL     1     -40.120  52.746 -54.515  1.00  0.00    -0.356 OA
HETATM   21  C   UNL     1     -40.219  53.945 -55.272  1.00  0.00     0.210 C 
ENDBRANCH  16  20
ENDBRANCH  12  14
ENDBRANCH   9  12
ENDBRANCH   1   8
BRANCH   4  22
HETATM   22  C   UNL     1     -45.628  60.863 -53.606  1.00  0.00     0.257 C 
HETATM   23  N   UNL     1     -46.748  60.987 -52.823  1.00  0.00    -0.352 N 
HETATM   24  H   UNL     1     -47.011  60.186 -52.249  1.00  0.00     0.163 HD
HETATM   25  O   UNL     1     -45.144  61.790 -54.248  1.00  0.00    -0.267 OA
BRANCH  23  26
HETATM   26  C   UNL     1     -47.380  62.261 -52.492  1.00  0.00     0.084 C 
HETATM   27  C   UNL     1     -48.858  62.177 -52.891  1.00  0.00     0.025 C 
HETATM   28  C   UNL     1     -49.732  63.365 -52.494  1.00  0.00     0.002 C 
HETATM   29  C   UNL     1     -50.028  63.396 -50.999  1.00  0.00     0.000 C 
HETATM   30  C   UNL     1     -48.982  64.113 -50.151  1.00  0.00     0.000 C 
HETATM   31  C   UNL     1     -47.528  63.969 -50.587  1.00  0.00     0.002 C 
HETATM   32  C   UNL     1     -47.123  62.560 -51.006  1.00  0.00     0.025 C 
ENDBRANCH  23  26
ENDBRANCH   4  22
BRANCH   6  33
HETATM   33  C   UNL     1     -43.893  57.128 -56.251  1.00  0.00     0.089 A 
HETATM   34  C   UNL     1     -43.710  57.992 -57.472  1.00  0.00     0.028 A 
HETATM   35  C   UNL     1     -42.569  57.162 -56.970  1.00  0.00     0.028 A 
ENDBRANCH   6  33
TORSDOF 7
ENDMDL
