MODEL 1
REMARK VINA RESULT:      -8.2      0.000      0.000
REMARK  5 active torsions:
REMARK  status: ('A' for Active; 'I' for Inactive)
REMARK    1  A    between atoms: C_2  and  O_3 
REMARK    2  A    between atoms: O_3  and  C_4 
REMARK    3  A    between atoms: C_5  and  C_6 
REMARK    4  A    between atoms: C_7  and  C_8 
REMARK       I    between atoms: C_8  and  N_9 
REMARK    5  A    between atoms: N_9  and  C_10 
ROOT
HETATM    1  C   UNL     1     -43.165  57.154 -51.708  1.00  0.00     0.041 C 
HETATM    2  C   UNL     1     -43.477  56.569 -52.883  1.00  0.00     0.099 C 
HETATM    3  C   UNL     1     -44.355  57.260 -53.914  1.00  0.00     0.025 C 
HETATM    4  N   UNL     1     -45.084  57.834 -54.768  1.00  0.00    -0.096 N 
ENDROOT
BRANCH   2   5
HETATM    5  C   UNL     1     -42.896  55.213 -53.184  1.00  0.00     0.265 C 
HETATM    6  N   UNL     1     -41.592  55.021 -52.757  1.00  0.00    -0.321 N 
HETATM    7  H   UNL     1     -41.219  55.701 -52.109  1.00  0.00     0.169 HD
HETATM    8  O   UNL     1     -43.607  54.350 -53.697  1.00  0.00    -0.267 OA
BRANCH   6   9
HETATM    9  C   UNL     1     -40.850  53.809 -52.821  1.00  0.00     0.047 A 
HETATM   10  C   UNL     1     -40.349  53.245 -54.016  1.00  0.00    -0.035 A 
HETATM   11  C   UNL     1     -40.395  53.906 -55.367  1.00  0.00     0.050 C 
HETATM   12  C   UNL     1     -39.703  51.993 -53.966  1.00  0.00     0.009 A 
HETATM   13  C   UNL     1     -39.484  51.339 -52.760  1.00  0.00     0.001 A 
HETATM   14  C   UNL     1     -39.901  51.930 -51.575  1.00  0.00     0.009 A 
HETATM   15  C   UNL     1     -40.579  53.161 -51.587  1.00  0.00    -0.035 A 
HETATM   16  C   UNL     1     -41.026  53.722 -50.260  1.00  0.00     0.050 C 
ENDBRANCH   6   9
ENDBRANCH   2   5
BRANCH   1  17
HETATM   17  C   UNL     1     -43.482  58.526 -51.234  1.00  0.00     0.002 A 
HETATM   18  C   UNL     1     -42.436  59.496 -51.188  1.00  0.00     0.079 A 
HETATM   19  C   UNL     1     -42.687  60.809 -50.760  1.00  0.00     0.047 A 
HETATM   20  C   UNL     1     -43.986  61.157 -50.447  1.00  0.00    -0.020 A 
HETATM   21  C   UNL     1     -45.001  60.218 -50.488  1.00  0.00     0.076 A 
HETATM   22  C   UNL     1     -44.538  62.452 -49.986  1.00  0.00     0.073 C 
HETATM   23  C   UNL     1     -44.773  58.901 -50.832  1.00  0.00     0.051 A 
HETATM   24  O   UNL     1     -46.235  60.734 -50.176  1.00  0.00    -0.345 OA
HETATM   25  C   UNL     1     -46.032  62.172 -50.215  1.00  0.00     0.129 C 
HETATM   26  C   UNL     1     -46.531  62.708 -51.559  1.00  0.00     0.040 C 
BRANCH  18  27
HETATM   27  O   UNL     1     -41.187  59.062 -51.564  1.00  0.00    -0.351 OA
BRANCH  27  28
HETATM   28  C   UNL     1     -40.305  58.652 -50.520  1.00  0.00     0.171 C 
HETATM   29  C   UNL     1     -39.071  59.533 -50.588  1.00  0.00     0.034 C 
ENDBRANCH  27  28
ENDBRANCH  18  27
ENDBRANCH   1  17
TORSDOF 5
ENDMDL
MODEL 2
REMARK VINA RESULT:      -8.0      1.072      1.978
REMARK  5 active torsions:
REMARK  status: ('A' for Active; 'I' for Inactive)
REMARK    1  A    between atoms: C_2  and  O_3 
REMARK    2  A    between atoms: O_3  and  C_4 
REMARK    3  A    between atoms: C_5  and  C_6 
REMARK    4  A    between atoms: C_7  and  C_8 
REMARK       I    between atoms: C_8  and  N_9 
REMARK    5  A    between atoms: N_9  and  C_10 
ROOT
HETATM    1  C   UNL     1     -43.019  57.415 -51.646  1.00  0.00     0.041 C 
HETATM    2  C   UNL     1     -42.605  56.901 -52.823  1.00  0.00     0.099 C 
HETATM    3  C   UNL     1     -42.350  57.782 -54.036  1.00  0.00     0.025 C 
HETATM    4  N   UNL     1     -42.139  58.512 -55.042  1.00  0.00    -0.096 N 
ENDROOT
BRANCH   2   5
HETATM    5  C   UNL     1     -42.354  55.419 -52.908  1.00  0.00     0.265 C 
HETATM    6  N   UNL     1     -41.034  55.033 -52.745  1.00  0.00    -0.321 N 
HETATM    7  H   UNL     1     -40.397  55.728 -52.379  1.00  0.00     0.169 HD
HETATM    8  O   UNL     1     -43.306  54.650 -53.029  1.00  0.00    -0.267 OA
BRANCH   6   9
HETATM    9  C   UNL     1     -40.543  53.699 -52.676  1.00  0.00     0.047 A 
HETATM   10  C   UNL     1     -40.362  52.980 -51.474  1.00  0.00    -0.035 A 
HETATM   11  C   UNL     1     -40.794  53.454 -50.112  1.00  0.00     0.050 C 
HETATM   12  C   UNL     1     -39.786  51.695 -51.523  1.00  0.00     0.009 A 
HETATM   13  C   UNL     1     -39.460  51.093 -52.732  1.00  0.00     0.001 A 
HETATM   14  C   UNL     1     -39.714  51.764 -53.921  1.00  0.00     0.009 A 
HETATM   15  C   UNL     1     -40.257  53.060 -53.912  1.00  0.00    -0.035 A 
HETATM   16  C   UNL     1     -40.474  53.733 -55.244  1.00  0.00     0.050 C 
ENDBRANCH   6   9
ENDBRANCH   2   5
BRANCH   1  17
HETATM   17  C   UNL     1     -43.198  58.838 -51.259  1.00  0.00     0.002 A 
HETATM   18  C   UNL     1     -42.088  59.545 -50.706  1.00  0.00     0.079 A 
HETATM   19  C   UNL     1     -42.202  60.894 -50.337  1.00  0.00     0.047 A 
HETATM   20  C   UNL     1     -43.397  61.539 -50.583  1.00  0.00    -0.020 A 
HETATM   21  C   UNL     1     -44.475  60.857 -51.116  1.00  0.00     0.076 A 
HETATM   22  C   UNL     1     -43.793  62.941 -50.313  1.00  0.00     0.073 C 
HETATM   23  C   UNL     1     -44.418  59.512 -51.420  1.00  0.00     0.051 A 
HETATM   24  O   UNL     1     -45.576  61.650 -51.324  1.00  0.00    -0.345 OA
HETATM   25  C   UNL     1     -45.065  63.002 -51.174  1.00  0.00     0.129 C 
HETATM   26  C   UNL     1     -44.806  63.593 -52.562  1.00  0.00     0.040 C 
BRANCH  18  27
HETATM   27  O   UNL     1     -40.928  58.825 -50.545  1.00  0.00    -0.351 OA
BRANCH  27  28
HETATM   28  C   UNL     1     -39.812  59.209 -51.346  1.00  0.00     0.171 C 
HETATM   29  C   UNL     1     -38.696  59.633 -50.410  1.00  0.00     0.034 C 
ENDBRANCH  27  28
ENDBRANCH  18  27
ENDBRANCH   1  17
TORSDOF 5
ENDMDL
MODEL 3
REMARK VINA RESULT:      -8.0      3.702      8.137
REMARK  5 active torsions:
REMARK  status: ('A' for Active; 'I' for Inactive)
REMARK    1  A    between atoms: C_2  and  O_3 
REMARK    2  A    between atoms: O_3  and  C_4 
REMARK    3  A    between atoms: C_5  and  C_6 
REMARK    4  A    between atoms: C_7  and  C_8 
REMARK       I    between atoms: C_8  and  N_9 
REMARK    5  A    between atoms: N_9  and  C_10 
ROOT
HETATM    1  C   UNL     1     -42.422  55.126 -54.546  1.00  0.00     0.041 C 
HETATM    2  C   UNL     1     -42.230  56.443 -54.772  1.00  0.00     0.099 C 
HETATM    3  C   UNL     1     -41.318  57.282 -53.891  1.00  0.00     0.025 C 
HETATM    4  N   UNL     1     -40.564  57.978 -53.159  1.00  0.00    -0.096 N 
ENDROOT
BRANCH   2   5
HETATM    5  C   UNL     1     -42.909  57.071 -55.960  1.00  0.00     0.265 C 
HETATM    6  N   UNL     1     -42.085  57.330 -57.043  1.00  0.00    -0.321 N 
HETATM    7  H   UNL     1     -41.173  56.894 -57.037  1.00  0.00     0.169 HD
HETATM    8  O   UNL     1     -44.127  57.240 -55.941  1.00  0.00    -0.267 OA
BRANCH   6   9
HETATM    9  C   UNL     1     -42.489  57.818 -58.317  1.00  0.00     0.047 A 
HETATM   10  C   UNL     1     -43.072  57.019 -59.326  1.00  0.00    -0.035 A 
HETATM   11  C   UNL     1     -43.486  55.581 -59.157  1.00  0.00     0.050 C 
HETATM   12  C   UNL     1     -43.351  57.594 -60.582  1.00  0.00     0.009 A 
HETATM   13  C   UNL     1     -43.133  58.945 -60.823  1.00  0.00     0.001 A 
HETATM   14  C   UNL     1     -42.638  59.752 -59.808  1.00  0.00     0.009 A 
HETATM   15  C   UNL     1     -42.316  59.207 -58.552  1.00  0.00    -0.035 A 
HETATM   16  C   UNL     1     -41.755  60.143 -57.511  1.00  0.00     0.050 C 
ENDBRANCH   6   9
ENDBRANCH   2   5
BRANCH   1  17
HETATM   17  C   UNL     1     -41.767  54.245 -53.546  1.00  0.00     0.002 A 
HETATM   18  C   UNL     1     -42.295  54.197 -52.221  1.00  0.00     0.079 A 
HETATM   19  C   UNL     1     -41.720  53.371 -51.243  1.00  0.00     0.047 A 
HETATM   20  C   UNL     1     -40.669  52.556 -51.613  1.00  0.00    -0.020 A 
HETATM   21  C   UNL     1     -40.153  52.602 -52.895  1.00  0.00     0.076 A 
HETATM   22  C   UNL     1     -39.888  51.588 -50.808  1.00  0.00     0.073 C 
HETATM   23  C   UNL     1     -40.648  53.458 -53.858  1.00  0.00     0.051 A 
HETATM   24  O   UNL     1     -39.131  51.709 -53.105  1.00  0.00    -0.345 OA
HETATM   25  C   UNL     1     -39.192  50.831 -51.950  1.00  0.00     0.129 C 
HETATM   26  C   UNL     1     -39.931  49.548 -52.339  1.00  0.00     0.040 C 
BRANCH  18  27
HETATM   27  O   UNL     1     -43.372  55.013 -51.966  1.00  0.00    -0.351 OA
BRANCH  27  28
HETATM   28  C   UNL     1     -43.221  55.973 -50.921  1.00  0.00     0.171 C 
HETATM   29  C   UNL     1     -44.031  57.199 -51.301  1.00  0.00     0.034 C 
ENDBRANCH  27  28
ENDBRANCH  18  27
ENDBRANCH   1  17
TORSDOF 5
ENDMDL
MODEL 4
REMARK VINA RESULT:      -7.9      2.146      8.494
REMARK  5 active torsions:
REMARK  status: ('A' for Active; 'I' for Inactive)
REMARK    1  A    between atoms: C_2  and  O_3 
REMARK    2  A    between atoms: O_3  and  C_4 
REMARK    3  A    between atoms: C_5  and  C_6 
REMARK    4  A    between atoms: C_7  and  C_8 
REMARK       I    between atoms: C_8  and  N_9 
REMARK    5  A    between atoms: N_9  and  C_10 
ROOT
HETATM    1  C   UNL     1     -43.159  55.625 -51.586  1.00  0.00     0.041 C 
HETATM    2  C   UNL     1     -42.993  56.961 -51.487  1.00  0.00     0.099 C 
HETATM    3  C   UNL     1     -41.614  57.601 -51.520  1.00  0.00     0.025 C 
HETATM    4  N   UNL     1     -40.471  58.132 -51.546  1.00  0.00    -0.096 N 
ENDROOT
BRANCH   2   5
HETATM    5  C   UNL     1     -44.219  57.828 -51.386  1.00  0.00     0.265 C 
HETATM    6  N   UNL     1     -44.030  59.160 -51.716  1.00  0.00    -0.321 N 
HETATM    7  H   UNL     1     -43.169  59.394 -52.191  1.00  0.00     0.169 HD
HETATM    8  O   UNL     1     -45.302  57.315 -51.108  1.00  0.00    -0.267 OA
BRANCH   6   9
HETATM    9  C   UNL     1     -45.036  60.162 -51.806  1.00  0.00     0.047 A 
HETATM   10  C   UNL     1     -45.498  60.925 -50.710  1.00  0.00    -0.035 A 
HETATM   11  C   UNL     1     -44.901  60.900 -49.328  1.00  0.00     0.050 C 
HETATM   12  C   UNL     1     -46.562  61.829 -50.903  1.00  0.00     0.009 A 
HETATM   13  C   UNL     1     -47.115  62.038 -52.160  1.00  0.00     0.001 A 
HETATM   14  C   UNL     1     -46.608  61.351 -53.255  1.00  0.00     0.009 A 
HETATM   15  C   UNL     1     -45.570  60.416 -53.097  1.00  0.00    -0.035 A 
HETATM   16  C   UNL     1     -45.095  59.689 -54.330  1.00  0.00     0.050 C 
ENDBRANCH   6   9
ENDBRANCH   2   5
BRANCH   1  17
HETATM   17  C   UNL     1     -42.140  54.573 -51.838  1.00  0.00     0.002 A 
HETATM   18  C   UNL     1     -41.570  53.888 -50.724  1.00  0.00     0.079 A 
HETATM   19  C   UNL     1     -40.613  52.878 -50.909  1.00  0.00     0.047 A 
HETATM   20  C   UNL     1     -40.285  52.519 -52.201  1.00  0.00    -0.020 A 
HETATM   21  C   UNL     1     -40.834  53.182 -53.283  1.00  0.00     0.076 A 
HETATM   22  C   UNL     1     -39.332  51.495 -52.689  1.00  0.00     0.073 C 
HETATM   23  C   UNL     1     -41.720  54.230 -53.132  1.00  0.00     0.051 A 
HETATM   24  O   UNL     1     -40.425  52.683 -54.495  1.00  0.00    -0.345 OA
HETATM   25  C   UNL     1     -39.787  51.423 -54.155  1.00  0.00     0.129 C 
HETATM   26  C   UNL     1     -40.775  50.281 -54.409  1.00  0.00     0.040 C 
BRANCH  18  27
HETATM   27  O   UNL     1     -41.997  54.289 -49.480  1.00  0.00    -0.351 OA
BRANCH  27  28
HETATM   28  C   UNL     1     -41.054  54.988 -48.668  1.00  0.00     0.171 C 
HETATM   29  C   UNL     1     -40.442  53.985 -47.707  1.00  0.00     0.034 C 
ENDBRANCH  27  28
ENDBRANCH  18  27
ENDBRANCH   1  17
TORSDOF 5
ENDMDL
MODEL 5
REMARK VINA RESULT:      -7.9      3.537      8.391
REMARK  5 active torsions:
REMARK  status: ('A' for Active; 'I' for Inactive)
REMARK    1  A    between atoms: C_2  and  O_3 
REMARK    2  A    between atoms: O_3  and  C_4 
REMARK    3  A    between atoms: C_5  and  C_6 
REMARK    4  A    between atoms: C_7  and  C_8 
REMARK       I    between atoms: C_8  and  N_9 
REMARK    5  A    between atoms: N_9  and  C_10 
ROOT
HETATM    1  C   UNL     1     -42.309  55.304 -55.201  1.00  0.00     0.041 C 
HETATM    2  C   UNL     1     -42.193  56.640 -55.357  1.00  0.00     0.099 C 
HETATM    3  C   UNL     1     -41.440  57.501 -54.356  1.00  0.00     0.025 C 
HETATM    4  N   UNL     1     -40.816  58.215 -53.526  1.00  0.00    -0.096 N 
ENDROOT
BRANCH   2   5
HETATM    5  C   UNL     1     -42.795  57.271 -56.585  1.00  0.00     0.265 C 
HETATM    6  N   UNL     1     -43.981  56.703 -57.020  1.00  0.00    -0.321 N 
HETATM    7  H   UNL     1     -44.448  56.074 -56.381  1.00  0.00     0.169 HD
HETATM    8  O   UNL     1     -42.270  58.271 -57.070  1.00  0.00    -0.267 OA
BRANCH   6   9
HETATM    9  C   UNL     1     -44.804  57.170 -58.083  1.00  0.00     0.047 A 
HETATM   10  C   UNL     1     -45.726  58.234 -57.966  1.00  0.00    -0.035 A 
HETATM   11  C   UNL     1     -45.870  59.122 -56.759  1.00  0.00     0.050 C 
HETATM   12  C   UNL     1     -46.551  58.551 -59.064  1.00  0.00     0.009 A 
HETATM   13  C   UNL     1     -46.425  57.889 -60.279  1.00  0.00     0.001 A 
HETATM   14  C   UNL     1     -45.463  56.898 -60.423  1.00  0.00     0.009 A 
HETATM   15  C   UNL     1     -44.644  56.531 -59.341  1.00  0.00    -0.035 A 
HETATM   16  C   UNL     1     -43.644  55.425 -59.570  1.00  0.00     0.050 C 
ENDBRANCH   6   9
ENDBRANCH   2   5
BRANCH   1  17
HETATM   17  C   UNL     1     -41.693  54.427 -54.173  1.00  0.00     0.002 A 
HETATM   18  C   UNL     1     -42.274  54.383 -52.870  1.00  0.00     0.079 A 
HETATM   19  C   UNL     1     -41.737  53.562 -51.867  1.00  0.00     0.047 A 
HETATM   20  C   UNL     1     -40.671  52.747 -52.191  1.00  0.00    -0.020 A 
HETATM   21  C   UNL     1     -40.104  52.789 -53.452  1.00  0.00     0.076 A 
HETATM   22  C   UNL     1     -39.921  51.784 -51.352  1.00  0.00     0.073 C 
HETATM   23  C   UNL     1     -40.561  53.641 -54.437  1.00  0.00     0.051 A 
HETATM   24  O   UNL     1     -39.073  51.897 -53.618  1.00  0.00    -0.345 OA
HETATM   25  C   UNL     1     -39.179  51.023 -52.462  1.00  0.00     0.129 C 
HETATM   26  C   UNL     1     -39.900  49.737 -52.876  1.00  0.00     0.040 C 
BRANCH  18  27
HETATM   27  O   UNL     1     -43.361  55.198 -52.661  1.00  0.00    -0.351 OA
BRANCH  27  28
HETATM   28  C   UNL     1     -43.376  55.958 -51.453  1.00  0.00     0.171 C 
HETATM   29  C   UNL     1     -44.129  57.247 -51.729  1.00  0.00     0.034 C 
ENDBRANCH  27  28
ENDBRANCH  18  27
ENDBRANCH   1  17
TORSDOF 5
ENDMDL
MODEL 6
REMARK VINA RESULT:      -7.7      2.468      8.312
REMARK  5 active torsions:
REMARK  status: ('A' for Active; 'I' for Inactive)
REMARK    1  A    between atoms: C_2  and  O_3 
REMARK    2  A    between atoms: O_3  and  C_4 
REMARK    3  A    between atoms: C_5  and  C_6 
REMARK    4  A    between atoms: C_7  and  C_8 
REMARK       I    between atoms: C_8  and  N_9 
REMARK    5  A    between atoms: N_9  and  C_10 
ROOT
HETATM    1  C   UNL     1     -43.155  55.534 -52.954  1.00  0.00     0.041 C 
HETATM    2  C   UNL     1     -43.001  56.843 -53.241  1.00  0.00     0.099 C 
HETATM    3  C   UNL     1     -41.625  57.482 -53.354  1.00  0.00     0.025 C 
HETATM    4  N   UNL     1     -40.485  58.011 -53.448  1.00  0.00    -0.096 N 
ENDROOT
BRANCH   2   5
HETATM    5  C   UNL     1     -44.233  57.670 -53.495  1.00  0.00     0.265 C 
HETATM    6  N   UNL     1     -44.196  58.958 -52.985  1.00  0.00    -0.321 N 
HETATM    7  H   UNL     1     -43.296  59.304 -52.685  1.00  0.00     0.169 HD
HETATM    8  O   UNL     1     -45.140  57.208 -54.185  1.00  0.00    -0.267 OA
BRANCH   6   9
HETATM    9  C   UNL     1     -45.177  59.972 -53.173  1.00  0.00     0.047 A 
HETATM   10  C   UNL     1     -45.317  60.733 -54.356  1.00  0.00    -0.035 A 
HETATM   11  C   UNL     1     -44.558  60.490 -55.633  1.00  0.00     0.050 C 
HETATM   12  C   UNL     1     -46.269  61.771 -54.395  1.00  0.00     0.009 A 
HETATM   13  C   UNL     1     -47.120  62.013 -53.324  1.00  0.00     0.001 A 
HETATM   14  C   UNL     1     -47.042  61.214 -52.192  1.00  0.00     0.009 A 
HETATM   15  C   UNL     1     -46.083  60.190 -52.102  1.00  0.00    -0.035 A 
HETATM   16  C   UNL     1     -46.042  59.385 -50.827  1.00  0.00     0.050 C 
ENDBRANCH   6   9
ENDBRANCH   2   5
BRANCH   1  17
HETATM   17  C   UNL     1     -42.117  54.482 -52.805  1.00  0.00     0.002 A 
HETATM   18  C   UNL     1     -41.777  54.032 -51.494  1.00  0.00     0.079 A 
HETATM   19  C   UNL     1     -40.812  53.031 -51.302  1.00  0.00     0.047 A 
HETATM   20  C   UNL     1     -40.246  52.446 -52.416  1.00  0.00    -0.020 A 
HETATM   21  C   UNL     1     -40.572  52.881 -53.688  1.00  0.00     0.076 A 
HETATM   22  C   UNL     1     -39.227  51.375 -52.514  1.00  0.00     0.073 C 
HETATM   23  C   UNL     1     -41.461  53.914 -53.908  1.00  0.00     0.051 A 
HETATM   24  O   UNL     1     -39.944  52.176 -54.684  1.00  0.00    -0.345 OA
HETATM   25  C   UNL     1     -39.394  51.019 -53.999  1.00  0.00     0.129 C 
HETATM   26  C   UNL     1     -40.326  49.824 -54.216  1.00  0.00     0.040 C 
BRANCH  18  27
HETATM   27  O   UNL     1     -42.430  54.646 -50.452  1.00  0.00    -0.351 OA
BRANCH  27  28
HETATM   28  C   UNL     1     -41.617  55.219 -49.429  1.00  0.00     0.171 C 
HETATM   29  C   UNL     1     -41.101  56.551 -49.942  1.00  0.00     0.034 C 
ENDBRANCH  27  28
ENDBRANCH  18  27
ENDBRANCH   1  17
TORSDOF 5
ENDMDL
MODEL 7
REMARK VINA RESULT:      -7.6      2.552      2.902
REMARK  5 active torsions:
REMARK  status: ('A' for Active; 'I' for Inactive)
REMARK    1  A    between atoms: C_2  and  O_3 
REMARK    2  A    between atoms: O_3  and  C_4 
REMARK    3  A    between atoms: C_5  and  C_6 
REMARK    4  A    between atoms: C_7  and  C_8 
REMARK       I    between atoms: C_8  and  N_9 
REMARK    5  A    between atoms: N_9  and  C_10 
ROOT
HETATM    1  C   UNL     1     -42.748  57.782 -53.904  1.00  0.00     0.041 C 
HETATM    2  C   UNL     1     -43.177  56.867 -53.009  1.00  0.00     0.099 C 
HETATM    3  C   UNL     1     -44.145  57.230 -51.894  1.00  0.00     0.025 C 
HETATM    4  N   UNL     1     -44.946  57.532 -50.969  1.00  0.00    -0.096 N 
ENDROOT
BRANCH   2   5
HETATM    5  C   UNL     1     -42.709  55.444 -53.161  1.00  0.00     0.265 C 
HETATM    6  N   UNL     1     -41.400  55.208 -52.775  1.00  0.00    -0.321 N 
HETATM    7  H   UNL     1     -40.945  55.933 -52.237  1.00  0.00     0.169 HD
HETATM    8  O   UNL     1     -43.506  54.581 -53.526  1.00  0.00    -0.267 OA
BRANCH   6   9
HETATM    9  C   UNL     1     -40.748  53.944 -52.718  1.00  0.00     0.047 A 
HETATM   10  C   UNL     1     -40.279  53.240 -53.849  1.00  0.00    -0.035 A 
HETATM   11  C   UNL     1     -40.263  53.778 -55.255  1.00  0.00     0.050 C 
HETATM   12  C   UNL     1     -39.727  51.955 -53.677  1.00  0.00     0.009 A 
HETATM   13  C   UNL     1     -39.569  51.398 -52.414  1.00  0.00     0.001 A 
HETATM   14  C   UNL     1     -39.953  52.122 -51.293  1.00  0.00     0.009 A 
HETATM   15  C   UNL     1     -40.538  53.393 -51.426  1.00  0.00    -0.035 A 
HETATM   16  C   UNL     1     -40.955  54.102 -50.162  1.00  0.00     0.050 C 
ENDBRANCH   6   9
ENDBRANCH   2   5
BRANCH   1  17
HETATM   17  C   UNL     1     -43.165  59.198 -54.064  1.00  0.00     0.002 A 
HETATM   18  C   UNL     1     -42.396  60.217 -53.426  1.00  0.00     0.079 A 
HETATM   19  C   UNL     1     -42.741  61.571 -53.556  1.00  0.00     0.047 A 
HETATM   20  C   UNL     1     -43.805  61.898 -54.373  1.00  0.00    -0.020 A 
HETATM   21  C   UNL     1     -44.553  60.913 -54.991  1.00  0.00     0.076 A 
HETATM   22  C   UNL     1     -44.377  63.224 -54.702  1.00  0.00     0.073 C 
HETATM   23  C   UNL     1     -44.286  59.570 -54.822  1.00  0.00     0.051 A 
HETATM   24  O   UNL     1     -45.555  61.408 -55.788  1.00  0.00    -0.345 OA
HETATM   25  C   UNL     1     -45.240  62.821 -55.908  1.00  0.00     0.129 C 
HETATM   26  C   UNL     1     -44.531  63.061 -57.243  1.00  0.00     0.040 C 
BRANCH  18  27
HETATM   27  O   UNL     1     -41.328  59.791 -52.672  1.00  0.00    -0.351 OA
BRANCH  27  28
HETATM   28  C   UNL     1     -41.463  59.877 -51.254  1.00  0.00     0.171 C 
HETATM   29  C   UNL     1     -40.894  58.603 -50.658  1.00  0.00     0.034 C 
ENDBRANCH  27  28
ENDBRANCH  18  27
ENDBRANCH   1  17
TORSDOF 5
ENDMDL
MODEL 8
REMARK VINA RESULT:      -7.5      3.794      5.341
REMARK  5 active torsions:
REMARK  status: ('A' for Active; 'I' for Inactive)
REMARK    1  A    between atoms: C_2  and  O_3 
REMARK    2  A    between atoms: O_3  and  C_4 
REMARK    3  A    between atoms: C_5  and  C_6 
REMARK    4  A    between atoms: C_7  and  C_8 
REMARK       I    between atoms: C_8  and  N_9 
REMARK    5  A    between atoms: N_9  and  C_10 
ROOT
HETATM    1  C   UNL     1     -42.242  57.051 -55.595  1.00  0.00     0.041 C 
HETATM    2  C   UNL     1     -43.019  56.652 -54.566  1.00  0.00     0.099 C 
HETATM    3  C   UNL     1     -44.239  57.447 -54.128  1.00  0.00     0.025 C 
HETATM    4  N   UNL     1     -45.250  58.107 -53.765  1.00  0.00    -0.096 N 
ENDROOT
BRANCH   2   5
HETATM    5  C   UNL     1     -42.679  55.360 -53.872  1.00  0.00     0.265 C 
HETATM    6  N   UNL     1     -41.414  55.307 -53.309  1.00  0.00    -0.321 N 
HETATM    7  H   UNL     1     -40.917  56.182 -53.220  1.00  0.00     0.169 HD
HETATM    8  O   UNL     1     -43.536  54.484 -53.771  1.00  0.00    -0.267 OA
BRANCH   6   9
HETATM    9  C   UNL     1     -40.885  54.252 -52.513  1.00  0.00     0.047 A 
HETATM   10  C   UNL     1     -40.381  53.039 -53.034  1.00  0.00    -0.035 A 
HETATM   11  C   UNL     1     -40.192  52.741 -54.497  1.00  0.00     0.050 C 
HETATM   12  C   UNL     1     -39.963  52.031 -52.142  1.00  0.00     0.009 A 
HETATM   13  C   UNL     1     -39.968  52.233 -50.767  1.00  0.00     0.001 A 
HETATM   14  C   UNL     1     -40.385  53.454 -50.256  1.00  0.00     0.009 A 
HETATM   15  C   UNL     1     -40.840  54.472 -51.111  1.00  0.00    -0.035 A 
HETATM   16  C   UNL     1     -41.304  55.759 -50.476  1.00  0.00     0.050 C 
ENDBRANCH   6   9
ENDBRANCH   2   5
BRANCH   1  17
HETATM   17  C   UNL     1     -42.438  58.192 -56.526  1.00  0.00     0.002 A 
HETATM   18  C   UNL     1     -41.991  59.488 -56.129  1.00  0.00     0.079 A 
HETATM   19  C   UNL     1     -42.142  60.595 -56.978  1.00  0.00     0.047 A 
HETATM   20  C   UNL     1     -42.676  60.388 -58.233  1.00  0.00    -0.020 A 
HETATM   21  C   UNL     1     -43.113  59.134 -58.620  1.00  0.00     0.076 A 
HETATM   22  C   UNL     1     -42.937  61.353 -59.326  1.00  0.00     0.073 C 
HETATM   23  C   UNL     1     -43.048  58.040 -57.781  1.00  0.00     0.051 A 
HETATM   24  O   UNL     1     -43.590  59.094 -59.907  1.00  0.00    -0.345 OA
HETATM   25  C   UNL     1     -43.160  60.359 -60.477  1.00  0.00     0.129 C 
HETATM   26  C   UNL     1     -41.895  60.127 -61.306  1.00  0.00     0.040 C 
BRANCH  18  27
HETATM   27  O   UNL     1     -41.431  59.581 -54.877  1.00  0.00    -0.351 OA
BRANCH  27  28
HETATM   28  C   UNL     1     -42.109  60.400 -53.926  1.00  0.00     0.171 C 
HETATM   29  C   UNL     1     -41.873  59.803 -52.551  1.00  0.00     0.034 C 
ENDBRANCH  27  28
ENDBRANCH  18  27
ENDBRANCH   1  17
TORSDOF 5
ENDMDL
MODEL 9
REMARK VINA RESULT:      -7.3      2.373      3.324
REMARK  5 active torsions:
REMARK  status: ('A' for Active; 'I' for Inactive)
REMARK    1  A    between atoms: C_2  and  O_3 
REMARK    2  A    between atoms: O_3  and  C_4 
REMARK    3  A    between atoms: C_5  and  C_6 
REMARK    4  A    between atoms: C_7  and  C_8 
REMARK       I    between atoms: C_8  and  N_9 
REMARK    5  A    between atoms: N_9  and  C_10 
ROOT
HETATM    1  C   UNL     1     -44.213  57.437 -53.662  1.00  0.00     0.041 C 
HETATM    2  C   UNL     1     -42.921  57.090 -53.487  1.00  0.00     0.099 C 
HETATM    3  C   UNL     1     -41.802  58.119 -53.525  1.00  0.00     0.025 C 
HETATM    4  N   UNL     1     -40.874  58.972 -53.558  1.00  0.00    -0.096 N 
ENDROOT
BRANCH   2   5
HETATM    5  C   UNL     1     -42.600  55.646 -53.204  1.00  0.00     0.265 C 
HETATM    6  N   UNL     1     -41.268  55.377 -52.940  1.00  0.00    -0.321 N 
HETATM    7  H   UNL     1     -40.671  56.170 -52.749  1.00  0.00     0.169 HD
HETATM    8  O   UNL     1     -43.514  54.825 -53.141  1.00  0.00    -0.267 OA
BRANCH   6   9
HETATM    9  C   UNL     1     -40.718  54.126 -52.542  1.00  0.00     0.047 A 
HETATM   10  C   UNL     1     -40.358  53.095 -53.438  1.00  0.00    -0.035 A 
HETATM   11  C   UNL     1     -40.360  53.216 -54.939  1.00  0.00     0.050 C 
HETATM   12  C   UNL     1     -39.905  51.864 -52.922  1.00  0.00     0.009 A 
HETATM   13  C   UNL     1     -39.737  51.670 -51.557  1.00  0.00     0.001 A 
HETATM   14  C   UNL     1     -40.011  52.709 -50.678  1.00  0.00     0.009 A 
HETATM   15  C   UNL     1     -40.496  53.940 -51.152  1.00  0.00    -0.035 A 
HETATM   16  C   UNL     1     -40.799  55.008 -50.131  1.00  0.00     0.050 C 
ENDBRANCH   6   9
ENDBRANCH   2   5
BRANCH   1  17
HETATM   17  C   UNL     1     -44.804  58.792 -53.808  1.00  0.00     0.002 A 
HETATM   18  C   UNL     1     -44.929  59.350 -55.116  1.00  0.00     0.079 A 
HETATM   19  C   UNL     1     -45.492  60.621 -55.309  1.00  0.00     0.047 A 
HETATM   20  C   UNL     1     -45.981  61.292 -54.207  1.00  0.00    -0.020 A 
HETATM   21  C   UNL     1     -45.859  60.756 -52.938  1.00  0.00     0.076 A 
HETATM   22  C   UNL     1     -46.628  62.621 -54.114  1.00  0.00     0.073 C 
HETATM   23  C   UNL     1     -45.243  59.543 -52.707  1.00  0.00     0.051 A 
HETATM   24  O   UNL     1     -46.422  61.537 -51.958  1.00  0.00    -0.345 OA
HETATM   25  C   UNL     1     -47.211  62.507 -52.697  1.00  0.00     0.129 C 
HETATM   26  C   UNL     1     -48.675  62.059 -52.698  1.00  0.00     0.040 C 
BRANCH  18  27
HETATM   27  O   UNL     1     -44.453  58.582 -56.152  1.00  0.00    -0.351 OA
BRANCH  27  28
HETATM   28  C   UNL     1     -43.324  59.086 -56.864  1.00  0.00     0.171 C 
HETATM   29  C   UNL     1     -42.432  57.907 -57.208  1.00  0.00     0.034 C 
ENDBRANCH  27  28
ENDBRANCH  18  27
ENDBRANCH   1  17
TORSDOF 5
ENDMDL
MODEL 10
REMARK VINA RESULT:      -7.3      1.914      3.033
REMARK  5 active torsions:
REMARK  status: ('A' for Active; 'I' for Inactive)
REMARK    1  A    between atoms: C_2  and  O_3 
REMARK    2  A    between atoms: O_3  and  C_4 
REMARK    3  A    between atoms: C_5  and  C_6 
REMARK    4  A    between atoms: C_7  and  C_8 
REMARK       I    between atoms: C_8  and  N_9 
REMARK    5  A    between atoms: N_9  and  C_10 
ROOT
HETATM    1  C   UNL     1     -43.538  57.940 -52.187  1.00  0.00     0.041 C 
HETATM    2  C   UNL     1     -42.318  57.373 -52.077  1.00  0.00     0.099 C 
HETATM    3  C   UNL     1     -41.076  58.196 -51.774  1.00  0.00     0.025 C 
HETATM    4  N   UNL     1     -40.046  58.879 -51.523  1.00  0.00    -0.096 N 
ENDROOT
BRANCH   2   5
HETATM    5  C   UNL     1     -42.209  55.878 -52.220  1.00  0.00     0.265 C 
HETATM    6  N   UNL     1     -40.958  55.409 -52.585  1.00  0.00    -0.321 N 
HETATM    7  H   UNL     1     -40.189  56.061 -52.517  1.00  0.00     0.169 HD
HETATM    8  O   UNL     1     -43.174  55.172 -51.936  1.00  0.00    -0.267 OA
BRANCH   6   9
HETATM    9  C   UNL     1     -40.560  54.046 -52.685  1.00  0.00     0.047 A 
HETATM   10  C   UNL     1     -40.164  53.252 -51.586  1.00  0.00    -0.035 A 
HETATM   11  C   UNL     1     -40.243  53.673 -50.143  1.00  0.00     0.050 C 
HETATM   12  C   UNL     1     -39.706  51.939 -51.818  1.00  0.00     0.009 A 
HETATM   13  C   UNL     1     -39.706  51.388 -53.094  1.00  0.00     0.001 A 
HETATM   14  C   UNL     1     -40.173  52.137 -54.165  1.00  0.00     0.009 A 
HETATM   15  C   UNL     1     -40.606  53.462 -53.978  1.00  0.00    -0.035 A 
HETATM   16  C   UNL     1     -41.071  54.220 -55.196  1.00  0.00     0.050 C 
ENDBRANCH   6   9
ENDBRANCH   2   5
BRANCH   1  17
HETATM   17  C   UNL     1     -43.936  59.352 -51.949  1.00  0.00     0.002 A 
HETATM   18  C   UNL     1     -44.321  60.154 -53.064  1.00  0.00     0.079 A 
HETATM   19  C   UNL     1     -44.718  61.489 -52.891  1.00  0.00     0.047 A 
HETATM   20  C   UNL     1     -44.789  61.988 -51.606  1.00  0.00    -0.020 A 
HETATM   21  C   UNL     1     -44.413  61.214 -50.524  1.00  0.00     0.076 A 
HETATM   22  C   UNL     1     -45.180  63.335 -51.130  1.00  0.00     0.073 C 
HETATM   23  C   UNL     1     -43.947  59.923 -50.667  1.00  0.00     0.051 A 
HETATM   24  O   UNL     1     -44.571  61.849 -49.317  1.00  0.00    -0.345 OA
HETATM   25  C   UNL     1     -45.374  63.016 -49.639  1.00  0.00     0.129 C 
HETATM   26  C   UNL     1     -46.835  62.727 -49.285  1.00  0.00     0.040 C 
BRANCH  18  27
HETATM   27  O   UNL     1     -44.260  59.550 -54.298  1.00  0.00    -0.351 OA
BRANCH  27  28
HETATM   28  C   UNL     1     -43.483  60.205 -55.300  1.00  0.00     0.171 C 
HETATM   29  C   UNL     1     -42.023  59.888 -55.030  1.00  0.00     0.034 C 
ENDBRANCH  27  28
ENDBRANCH  18  27
ENDBRANCH   1  17
TORSDOF 5
ENDMDL
