MODEL 1
REMARK VINA RESULT:      -9.9      0.000      0.000
REMARK  6 active torsions:
REMARK  status: ('A' for Active; 'I' for Inactive)
REMARK    1  A    between atoms: C_8  and  C_9 
REMARK    2  A    between atoms: C_9  and  C_10 
REMARK    3  A    between atoms: C_10  and  N_11 
REMARK       I    between atoms: N_11  and  C_12 
REMARK    4  A    between atoms: C_12  and  C_13 
REMARK    5  A    between atoms: C_18  and  C_19 
REMARK    6  A    between atoms: C_29  and  C_30 
ROOT
HETATM    1  C   UNL     1     -44.619  59.181 -51.089  1.00  0.00     0.148 A 
HETATM    2  N   UNL     1     -43.804  59.470 -52.130  1.00  0.00    -0.165 NA
HETATM    3  N   UNL     1     -43.476  58.255 -52.615  1.00  0.00    -0.240 N 
HETATM    4  C   UNL     1     -44.134  57.225 -52.012  1.00  0.00     0.123 A 
HETATM    5  N   UNL     1     -44.001  55.952 -52.423  1.00  0.00    -0.366 N 
HETATM    6  C   UNL     1     -43.206  55.558 -53.575  1.00  0.00     0.118 C 
HETATM    7  C   UNL     1     -42.747  56.752 -54.432  1.00  0.00     0.066 C 
HETATM    8  C   UNL     1     -42.526  58.087 -53.695  1.00  0.00     0.221 C 
HETATM    9  C   UNL     1     -44.854  57.782 -50.992  1.00  0.00     0.088 A 
HETATM   10  H   UNL     1     -44.455  55.188 -51.925  1.00  0.00     0.161 HD
ENDROOT
BRANCH   1  11
HETATM   11  C   UNL     1     -45.176  60.202 -50.190  1.00  0.00     0.272 C 
HETATM   12  N   UNL     1     -44.329  60.593 -49.176  1.00  0.00    -0.355 N 
HETATM   13  H   UNL     1     -43.370  60.264 -49.245  1.00  0.00     0.162 HD
HETATM   14  O   UNL     1     -46.302  60.669 -50.340  1.00  0.00    -0.266 OA
BRANCH  12  15
HETATM   15  C   UNL     1     -44.703  61.657 -48.269  1.00  0.00     0.127 C 
BRANCH  15  16
HETATM   16  C   UNL     1     -45.054  61.173 -46.864  1.00  0.00     0.060 C 
BRANCH  16  17
HETATM   17  C   UNL     1     -45.372  62.293 -45.922  1.00  0.00    -0.029 A 
HETATM   18  C   UNL     1     -44.725  62.595 -44.682  1.00  0.00    -0.002 A 
HETATM   19  C   UNL     1     -43.659  62.013 -43.962  1.00  0.00     0.014 A 
HETATM   20  C   UNL     1     -45.354  63.718 -44.144  1.00  0.00     0.042 A 
HETATM   21  C   UNL     1     -43.270  62.570 -42.739  1.00  0.00     0.001 A 
HETATM   22  C   UNL     1     -43.921  63.691 -42.228  1.00  0.00     0.002 A 
HETATM   23  C   UNL     1     -44.976  64.288 -42.923  1.00  0.00     0.030 A 
HETATM   24  N   UNL     1     -46.345  64.087 -45.022  1.00  0.00    -0.365 N 
HETATM   25  H   UNL     1     -46.966  64.873 -44.888  1.00  0.00     0.165 HD
HETATM   26  C   UNL     1     -46.369  63.235 -46.093  1.00  0.00     0.096 A 
ENDBRANCH  16  17
ENDBRANCH  15  16
ENDBRANCH  12  15
ENDBRANCH   1  11
BRANCH   8  27
HETATM   27  C   UNL     1     -41.114  58.269 -53.189  1.00  0.00     0.409 C 
HETATM   28  F   UNL     1     -40.970  58.014 -51.875  1.00  0.00    -0.169 F 
HETATM   29  F   UNL     1     -40.273  57.429 -53.849  1.00  0.00    -0.169 F 
HETATM   30  F   UNL     1     -40.645  59.519 -53.414  1.00  0.00    -0.169 F 
ENDBRANCH   8  27
BRANCH   6  31
HETATM   31  C   UNL     1     -42.126  54.572 -53.166  1.00  0.00    -0.033 A 
HETATM   32  C   UNL     1     -41.697  53.602 -54.094  1.00  0.00     0.049 A 
HETATM   33  C   UNL     1     -40.795  52.644 -53.678  1.00  0.00     0.105 A 
HETATM   34  C   UNL     1     -40.287  52.630 -52.401  1.00  0.00     0.105 A 
HETATM   35  O   UNL     1     -40.329  51.612 -54.432  1.00  0.00    -0.323 OA
HETATM   36  O   UNL     1     -39.434  51.592 -52.192  1.00  0.00    -0.323 OA
HETATM   37  C   UNL     1     -40.654  53.573 -51.470  1.00  0.00     0.040 A 
HETATM   38  C   UNL     1     -39.511  50.919 -53.465  1.00  0.00     0.352 A 
HETATM   39  C   UNL     1     -41.588  54.540 -51.856  1.00  0.00     0.012 A 
ENDBRANCH   6  31
TORSDOF 6
ENDMDL
MODEL 2
REMARK VINA RESULT:      -9.6      7.404     11.105
REMARK  6 active torsions:
REMARK  status: ('A' for Active; 'I' for Inactive)
REMARK    1  A    between atoms: C_8  and  C_9 
REMARK    2  A    between atoms: C_9  and  C_10 
REMARK    3  A    between atoms: C_10  and  N_11 
REMARK       I    between atoms: N_11  and  C_12 
REMARK    4  A    between atoms: C_12  and  C_13 
REMARK    5  A    between atoms: C_18  and  C_19 
REMARK    6  A    between atoms: C_29  and  C_30 
ROOT
HETATM    1  C   UNL     1     -43.472  57.381 -55.672  1.00  0.00     0.148 A 
HETATM    2  N   UNL     1     -42.686  57.335 -56.773  1.00  0.00    -0.165 NA
HETATM    3  N   UNL     1     -43.484  57.818 -57.747  1.00  0.00    -0.240 N 
HETATM    4  C   UNL     1     -44.686  58.276 -57.297  1.00  0.00     0.123 A 
HETATM    5  N   UNL     1     -45.575  58.872 -58.110  1.00  0.00    -0.366 N 
HETATM    6  C   UNL     1     -45.321  59.146 -59.515  1.00  0.00     0.118 C 
HETATM    7  C   UNL     1     -43.852  58.928 -59.920  1.00  0.00     0.066 C 
HETATM    8  C   UNL     1     -43.070  57.858 -59.134  1.00  0.00     0.221 C 
HETATM    9  C   UNL     1     -44.731  57.974 -55.964  1.00  0.00     0.088 A 
HETATM   10  H   UNL     1     -46.492  59.156 -57.769  1.00  0.00     0.161 HD
ENDROOT
BRANCH   1  11
HETATM   11  C   UNL     1     -43.054  56.875 -54.357  1.00  0.00     0.272 C 
HETATM   12  N   UNL     1     -42.930  55.505 -54.285  1.00  0.00    -0.355 N 
HETATM   13  H   UNL     1     -42.983  55.005 -55.168  1.00  0.00     0.162 HD
HETATM   14  O   UNL     1     -42.826  57.620 -53.407  1.00  0.00    -0.266 OA
BRANCH  12  15
HETATM   15  C   UNL     1     -42.437  54.869 -53.082  1.00  0.00     0.127 C 
BRANCH  15  16
HETATM   16  C   UNL     1     -40.924  54.665 -53.069  1.00  0.00     0.060 C 
BRANCH  16  17
HETATM   17  C   UNL     1     -40.505  53.445 -52.308  1.00  0.00    -0.029 A 
HETATM   18  C   UNL     1     -40.198  52.153 -52.841  1.00  0.00    -0.002 A 
HETATM   19  C   UNL     1     -40.174  51.606 -54.141  1.00  0.00     0.014 A 
HETATM   20  C   UNL     1     -39.865  51.326 -51.767  1.00  0.00     0.042 A 
HETATM   21  C   UNL     1     -39.824  50.262 -54.317  1.00  0.00     0.001 A 
HETATM   22  C   UNL     1     -39.499  49.463 -53.223  1.00  0.00     0.002 A 
HETATM   23  C   UNL     1     -39.512  49.981 -51.925  1.00  0.00     0.030 A 
HETATM   24  N   UNL     1     -39.964  52.085 -50.626  1.00  0.00    -0.365 N 
HETATM   25  H   UNL     1     -39.780  51.743 -49.692  1.00  0.00     0.165 HD
HETATM   26  C   UNL     1     -40.354  53.359 -50.937  1.00  0.00     0.096 A 
ENDBRANCH  16  17
ENDBRANCH  15  16
ENDBRANCH  12  15
ENDBRANCH   1  11
BRANCH   8  27
HETATM   27  C   UNL     1     -43.149  56.480 -59.748  1.00  0.00     0.409 C 
HETATM   28  F   UNL     1     -43.875  55.605 -59.029  1.00  0.00    -0.169 F 
HETATM   29  F   UNL     1     -43.723  56.554 -60.979  1.00  0.00    -0.169 F 
HETATM   30  F   UNL     1     -41.926  55.933 -59.940  1.00  0.00    -0.169 F 
ENDBRANCH   8  27
BRANCH   6  31
HETATM   31  C   UNL     1     -46.364  58.468 -60.387  1.00  0.00    -0.033 A 
HETATM   32  C   UNL     1     -47.159  59.256 -61.243  1.00  0.00     0.049 A 
HETATM   33  C   UNL     1     -48.175  58.645 -61.950  1.00  0.00     0.105 A 
HETATM   34  C   UNL     1     -48.410  57.295 -61.862  1.00  0.00     0.105 A 
HETATM   35  O   UNL     1     -49.060  59.273 -62.769  1.00  0.00    -0.323 OA
HETATM   36  O   UNL     1     -49.469  56.901 -62.618  1.00  0.00    -0.323 OA
HETATM   37  C   UNL     1     -47.643  56.480 -61.063  1.00  0.00     0.040 A 
HETATM   38  C   UNL     1     -49.911  58.169 -63.144  1.00  0.00     0.352 A 
HETATM   39  C   UNL     1     -46.623  57.077 -60.314  1.00  0.00     0.012 A 
ENDBRANCH   6  31
TORSDOF 6
ENDMDL
MODEL 3
REMARK VINA RESULT:      -9.5      6.164      9.265
REMARK  6 active torsions:
REMARK  status: ('A' for Active; 'I' for Inactive)
REMARK    1  A    between atoms: C_8  and  C_9 
REMARK    2  A    between atoms: C_9  and  C_10 
REMARK    3  A    between atoms: C_10  and  N_11 
REMARK       I    between atoms: N_11  and  C_12 
REMARK    4  A    between atoms: C_12  and  C_13 
REMARK    5  A    between atoms: C_18  and  C_19 
REMARK    6  A    between atoms: C_29  and  C_30 
ROOT
HETATM    1  C   UNL     1     -44.175  57.598 -54.745  1.00  0.00     0.148 A 
HETATM    2  N   UNL     1     -44.036  57.528 -53.400  1.00  0.00    -0.165 NA
HETATM    3  N   UNL     1     -42.972  56.715 -53.239  1.00  0.00    -0.240 N 
HETATM    4  C   UNL     1     -42.363  56.367 -54.407  1.00  0.00     0.123 A 
HETATM    5  N   UNL     1     -41.236  55.635 -54.437  1.00  0.00    -0.366 N 
HETATM    6  C   UNL     1     -40.526  55.203 -53.244  1.00  0.00     0.118 C 
HETATM    7  C   UNL     1     -41.036  55.878 -51.957  1.00  0.00     0.066 C 
HETATM    8  C   UNL     1     -42.523  56.283 -51.932  1.00  0.00     0.221 C 
HETATM    9  C   UNL     1     -43.137  56.888 -55.407  1.00  0.00     0.088 A 
HETATM   10  H   UNL     1     -40.826  55.335 -55.320  1.00  0.00     0.161 HD
ENDROOT
BRANCH   1  11
HETATM   11  C   UNL     1     -45.270  58.321 -55.408  1.00  0.00     0.272 C 
HETATM   12  N   UNL     1     -46.027  57.552 -56.264  1.00  0.00    -0.355 N 
HETATM   13  H   UNL     1     -45.859  56.550 -56.230  1.00  0.00     0.162 HD
HETATM   14  O   UNL     1     -45.490  59.512 -55.205  1.00  0.00    -0.266 OA
BRANCH  12  15
HETATM   15  C   UNL     1     -47.195  58.103 -56.917  1.00  0.00     0.127 C 
BRANCH  15  16
HETATM   16  C   UNL     1     -46.936  58.575 -58.346  1.00  0.00     0.060 C 
BRANCH  16  17
HETATM   17  C   UNL     1     -45.945  57.720 -59.074  1.00  0.00    -0.029 A 
HETATM   18  C   UNL     1     -44.535  57.936 -59.192  1.00  0.00    -0.002 A 
HETATM   19  C   UNL     1     -43.648  58.925 -58.717  1.00  0.00     0.014 A 
HETATM   20  C   UNL     1     -44.016  56.894 -59.961  1.00  0.00     0.042 A 
HETATM   21  C   UNL     1     -42.287  58.838 -59.030  1.00  0.00     0.001 A 
HETATM   22  C   UNL     1     -41.801  57.786 -59.803  1.00  0.00     0.002 A 
HETATM   23  C   UNL     1     -42.657  56.791 -60.282  1.00  0.00     0.030 A 
HETATM   24  N   UNL     1     -45.067  56.075 -60.297  1.00  0.00    -0.365 N 
HETATM   25  H   UNL     1     -44.985  55.236 -60.855  1.00  0.00     0.165 HD
HETATM   26  C   UNL     1     -46.233  56.564 -59.774  1.00  0.00     0.096 A 
ENDBRANCH  16  17
ENDBRANCH  15  16
ENDBRANCH  12  15
ENDBRANCH   1  11
BRANCH   8  27
HETATM   27  C   UNL     1     -43.432  55.205 -51.390  1.00  0.00     0.409 C 
HETATM   28  F   UNL     1     -43.871  54.343 -52.325  1.00  0.00    -0.169 F 
HETATM   29  F   UNL     1     -42.773  54.471 -50.453  1.00  0.00    -0.169 F 
HETATM   30  F   UNL     1     -44.519  55.716 -50.766  1.00  0.00    -0.169 F 
ENDBRANCH   8  27
BRANCH   6  31
HETATM   31  C   UNL     1     -40.417  53.689 -53.208  1.00  0.00    -0.033 A 
HETATM   32  C   UNL     1     -40.192  53.048 -51.974  1.00  0.00     0.049 A 
HETATM   33  C   UNL     1     -39.987  51.682 -51.966  1.00  0.00     0.105 A 
HETATM   34  C   UNL     1     -40.024  50.937 -53.119  1.00  0.00     0.105 A 
HETATM   35  O   UNL     1     -39.702  50.928 -50.870  1.00  0.00    -0.323 OA
HETATM   36  O   UNL     1     -39.774  49.619 -52.894  1.00  0.00    -0.323 OA
HETATM   37  C   UNL     1     -40.269  51.513 -54.343  1.00  0.00     0.040 A 
HETATM   38  C   UNL     1     -39.514  49.632 -51.475  1.00  0.00     0.352 A 
HETATM   39  C   UNL     1     -40.453  52.900 -54.384  1.00  0.00     0.012 A 
ENDBRANCH   6  31
TORSDOF 6
ENDMDL
MODEL 4
REMARK VINA RESULT:      -9.4      6.875     10.703
REMARK  6 active torsions:
REMARK  status: ('A' for Active; 'I' for Inactive)
REMARK    1  A    between atoms: C_8  and  C_9 
REMARK    2  A    between atoms: C_9  and  C_10 
REMARK    3  A    between atoms: C_10  and  N_11 
REMARK       I    between atoms: N_11  and  C_12 
REMARK    4  A    between atoms: C_12  and  C_13 
REMARK    5  A    between atoms: C_18  and  C_19 
REMARK    6  A    between atoms: C_29  and  C_30 
ROOT
HETATM    1  C   UNL     1     -43.013  56.079 -55.816  1.00  0.00     0.148 A 
HETATM    2  N   UNL     1     -42.832  55.389 -56.967  1.00  0.00    -0.165 NA
HETATM    3  N   UNL     1     -42.792  56.355 -57.906  1.00  0.00    -0.240 N 
HETATM    4  C   UNL     1     -42.818  57.620 -57.398  1.00  0.00     0.123 A 
HETATM    5  N   UNL     1     -42.698  58.708 -58.178  1.00  0.00    -0.366 N 
HETATM    6  C   UNL     1     -42.464  58.647 -59.611  1.00  0.00     0.118 C 
HETATM    7  C   UNL     1     -42.108  57.234 -60.109  1.00  0.00     0.066 C 
HETATM    8  C   UNL     1     -42.705  56.053 -59.320  1.00  0.00     0.221 C 
HETATM    9  C   UNL     1     -43.001  57.481 -56.050  1.00  0.00     0.088 A 
HETATM   10  H   UNL     1     -42.778  59.646 -57.788  1.00  0.00     0.161 HD
ENDROOT
BRANCH   1  11
HETATM   11  C   UNL     1     -43.198  55.435 -54.507  1.00  0.00     0.272 C 
HETATM   12  N   UNL     1     -42.563  56.072 -53.463  1.00  0.00    -0.355 N 
HETATM   13  H   UNL     1     -42.175  56.989 -53.670  1.00  0.00     0.162 HD
HETATM   14  O   UNL     1     -43.870  54.417 -54.363  1.00  0.00    -0.266 OA
BRANCH  12  15
HETATM   15  C   UNL     1     -42.730  55.608 -52.103  1.00  0.00     0.127 C 
BRANCH  15  16
HETATM   16  C   UNL     1     -41.429  55.562 -51.304  1.00  0.00     0.060 C 
BRANCH  16  17
HETATM   17  C   UNL     1     -40.913  54.170 -51.107  1.00  0.00    -0.029 A 
HETATM   18  C   UNL     1     -40.491  53.250 -52.119  1.00  0.00    -0.002 A 
HETATM   19  C   UNL     1     -40.410  53.306 -53.527  1.00  0.00     0.014 A 
HETATM   20  C   UNL     1     -40.096  52.075 -51.478  1.00  0.00     0.042 A 
HETATM   21  C   UNL     1     -39.945  52.192 -54.235  1.00  0.00     0.001 A 
HETATM   22  C   UNL     1     -39.561  51.033 -53.565  1.00  0.00     0.002 A 
HETATM   23  C   UNL     1     -39.628  50.953 -52.171  1.00  0.00     0.030 A 
HETATM   24  N   UNL     1     -40.269  52.272 -50.129  1.00  0.00    -0.365 N 
HETATM   25  H   UNL     1     -40.063  51.584 -49.418  1.00  0.00     0.165 HD
HETATM   26  C   UNL     1     -40.766  53.525 -49.893  1.00  0.00     0.096 A 
ENDBRANCH  16  17
ENDBRANCH  15  16
ENDBRANCH  12  15
ENDBRANCH   1  11
BRANCH   8  27
HETATM   27  C   UNL     1     -44.045  55.593 -59.845  1.00  0.00     0.409 C 
HETATM   28  F   UNL     1     -44.206  54.257 -59.829  1.00  0.00    -0.169 F 
HETATM   29  F   UNL     1     -45.045  56.121 -59.089  1.00  0.00    -0.169 F 
HETATM   30  F   UNL     1     -44.273  56.015 -61.111  1.00  0.00    -0.169 F 
ENDBRANCH   8  27
BRANCH   6  31
HETATM   31  C   UNL     1     -43.573  59.363 -60.363  1.00  0.00    -0.033 A 
HETATM   32  C   UNL     1     -44.908  59.183 -59.948  1.00  0.00     0.049 A 
HETATM   33  C   UNL     1     -45.915  59.751 -60.702  1.00  0.00     0.105 A 
HETATM   34  C   UNL     1     -45.650  60.503 -61.820  1.00  0.00     0.105 A 
HETATM   35  O   UNL     1     -47.249  59.623 -60.468  1.00  0.00    -0.323 OA
HETATM   36  O   UNL     1     -46.782  60.948 -62.428  1.00  0.00    -0.323 OA
HETATM   37  C   UNL     1     -44.362  60.730 -62.247  1.00  0.00     0.040 A 
HETATM   38  C   UNL     1     -47.791  60.338 -61.598  1.00  0.00     0.352 A 
HETATM   39  C   UNL     1     -43.322  60.144 -61.518  1.00  0.00     0.012 A 
ENDBRANCH   6  31
TORSDOF 6
ENDMDL
MODEL 5
REMARK VINA RESULT:      -9.4      6.026      9.039
REMARK  6 active torsions:
REMARK  status: ('A' for Active; 'I' for Inactive)
REMARK    1  A    between atoms: C_8  and  C_9 
REMARK    2  A    between atoms: C_9  and  C_10 
REMARK    3  A    between atoms: C_10  and  N_11 
REMARK       I    between atoms: N_11  and  C_12 
REMARK    4  A    between atoms: C_12  and  C_13 
REMARK    5  A    between atoms: C_18  and  C_19 
REMARK    6  A    between atoms: C_29  and  C_30 
ROOT
HETATM    1  C   UNL     1     -42.056  58.994 -54.090  1.00  0.00     0.148 A 
HETATM    2  N   UNL     1     -41.810  59.849 -55.110  1.00  0.00    -0.165 NA
HETATM    3  N   UNL     1     -42.887  59.699 -55.909  1.00  0.00    -0.240 N 
HETATM    4  C   UNL     1     -43.850  58.888 -55.388  1.00  0.00     0.123 A 
HETATM    5  N   UNL     1     -45.029  58.691 -56.002  1.00  0.00    -0.366 N 
HETATM    6  C   UNL     1     -45.419  59.366 -57.230  1.00  0.00     0.118 C 
HETATM    7  C   UNL     1     -44.470  60.514 -57.619  1.00  0.00     0.066 C 
HETATM    8  C   UNL     1     -42.997  60.369 -57.188  1.00  0.00     0.221 C 
HETATM    9  C   UNL     1     -43.331  58.381 -54.229  1.00  0.00     0.088 A 
HETATM   10  H   UNL     1     -45.715  58.036 -55.628  1.00  0.00     0.161 HD
ENDROOT
BRANCH   1  11
HETATM   11  C   UNL     1     -41.108  58.750 -52.993  1.00  0.00     0.272 C 
HETATM   12  N   UNL     1     -41.611  57.986 -51.964  1.00  0.00    -0.355 N 
HETATM   13  H   UNL     1     -42.511  57.543 -52.135  1.00  0.00     0.162 HD
HETATM   14  O   UNL     1     -39.961  59.188 -53.005  1.00  0.00    -0.266 OA
BRANCH  12  15
HETATM   15  C   UNL     1     -40.767  57.585 -50.859  1.00  0.00     0.127 C 
BRANCH  15  16
HETATM   16  C   UNL     1     -41.289  56.372 -50.093  1.00  0.00     0.060 C 
BRANCH  16  17
HETATM   17  C   UNL     1     -40.697  55.081 -50.568  1.00  0.00    -0.029 A 
HETATM   18  C   UNL     1     -40.948  54.416 -51.810  1.00  0.00    -0.002 A 
HETATM   19  C   UNL     1     -41.758  54.700 -52.931  1.00  0.00     0.014 A 
HETATM   20  C   UNL     1     -40.186  53.247 -51.821  1.00  0.00     0.042 A 
HETATM   21  C   UNL     1     -41.778  53.808 -54.009  1.00  0.00     0.001 A 
HETATM   22  C   UNL     1     -41.007  52.648 -53.987  1.00  0.00     0.002 A 
HETATM   23  C   UNL     1     -40.194  52.346 -52.891  1.00  0.00     0.030 A 
HETATM   24  N   UNL     1     -39.497  53.202 -50.633  1.00  0.00    -0.365 N 
HETATM   25  H   UNL     1     -38.863  52.462 -50.365  1.00  0.00     0.165 HD
HETATM   26  C   UNL     1     -39.800  54.296 -49.868  1.00  0.00     0.096 A 
ENDBRANCH  16  17
ENDBRANCH  15  16
ENDBRANCH  12  15
ENDBRANCH   1  11
BRANCH   8  27
HETATM   27  C   UNL     1     -42.133  59.682 -58.220  1.00  0.00     0.409 C 
HETATM   28  F   UNL     1     -41.839  58.404 -57.919  1.00  0.00    -0.169 F 
HETATM   29  F   UNL     1     -42.767  59.670 -59.422  1.00  0.00    -0.169 F 
HETATM   30  F   UNL     1     -40.962  60.331 -58.423  1.00  0.00    -0.169 F 
ENDBRANCH   8  27
BRANCH   6  31
HETATM   31  C   UNL     1     -45.727  58.353 -58.319  1.00  0.00    -0.033 A 
HETATM   32  C   UNL     1     -44.856  57.262 -58.506  1.00  0.00     0.049 A 
HETATM   33  C   UNL     1     -45.085  56.408 -59.566  1.00  0.00     0.105 A 
HETATM   34  C   UNL     1     -46.149  56.578 -60.418  1.00  0.00     0.105 A 
HETATM   35  O   UNL     1     -44.307  55.347 -59.914  1.00  0.00    -0.323 OA
HETATM   36  O   UNL     1     -46.178  55.643 -61.406  1.00  0.00    -0.323 OA
HETATM   37  C   UNL     1     -47.043  57.610 -60.258  1.00  0.00     0.040 A 
HETATM   38  C   UNL     1     -44.976  54.903 -61.113  1.00  0.00     0.352 A 
HETATM   39  C   UNL     1     -46.819  58.508 -59.208  1.00  0.00     0.012 A 
ENDBRANCH   6  31
TORSDOF 6
ENDMDL
MODEL 6
REMARK VINA RESULT:      -9.1     19.384     21.237
REMARK  6 active torsions:
REMARK  status: ('A' for Active; 'I' for Inactive)
REMARK    1  A    between atoms: C_8  and  C_9 
REMARK    2  A    between atoms: C_9  and  C_10 
REMARK    3  A    between atoms: C_10  and  N_11 
REMARK       I    between atoms: N_11  and  C_12 
REMARK    4  A    between atoms: C_12  and  C_13 
REMARK    5  A    between atoms: C_18  and  C_19 
REMARK    6  A    between atoms: C_29  and  C_30 
ROOT
HETATM    1  C   UNL     1     -36.169  40.414 -52.039  1.00  0.00     0.148 A 
HETATM    2  N   UNL     1     -35.073  40.819 -52.721  1.00  0.00    -0.165 NA
HETATM    3  N   UNL     1     -35.575  41.233 -53.902  1.00  0.00    -0.240 N 
HETATM    4  C   UNL     1     -36.937  41.223 -53.955  1.00  0.00     0.123 A 
HETATM    5  N   UNL     1     -37.616  41.685 -55.019  1.00  0.00    -0.366 N 
HETATM    6  C   UNL     1     -36.979  42.295 -56.175  1.00  0.00     0.118 C 
HETATM    7  C   UNL     1     -35.486  42.598 -55.956  1.00  0.00     0.066 C 
HETATM    8  C   UNL     1     -34.726  41.668 -54.991  1.00  0.00     0.221 C 
HETATM    9  C   UNL     1     -37.357  40.661 -52.781  1.00  0.00     0.088 A 
HETATM   10  H   UNL     1     -38.631  41.617 -55.066  1.00  0.00     0.161 HD
ENDROOT
BRANCH   1  11
HETATM   11  C   UNL     1     -36.111  39.799 -50.705  1.00  0.00     0.272 C 
HETATM   12  N   UNL     1     -35.430  38.603 -50.656  1.00  0.00    -0.355 N 
HETATM   13  H   UNL     1     -34.911  38.351 -51.493  1.00  0.00     0.162 HD
HETATM   14  O   UNL     1     -36.624  40.320 -49.717  1.00  0.00    -0.266 OA
BRANCH  12  15
HETATM   15  C   UNL     1     -35.211  37.928 -49.395  1.00  0.00     0.127 C 
BRANCH  15  16
HETATM   16  C   UNL     1     -33.821  37.310 -49.261  1.00  0.00     0.060 C 
BRANCH  16  17
HETATM   17  C   UNL     1     -32.768  38.312 -48.902  1.00  0.00    -0.029 A 
HETATM   18  C   UNL     1     -32.197  38.548 -47.611  1.00  0.00    -0.002 A 
HETATM   19  C   UNL     1     -32.392  37.983 -46.333  1.00  0.00     0.014 A 
HETATM   20  C   UNL     1     -31.263  39.575 -47.748  1.00  0.00     0.042 A 
HETATM   21  C   UNL     1     -31.652  38.466 -45.247  1.00  0.00     0.001 A 
HETATM   22  C   UNL     1     -30.729  39.495 -45.417  1.00  0.00     0.002 A 
HETATM   23  C   UNL     1     -30.515  40.069 -46.673  1.00  0.00     0.030 A 
HETATM   24  N   UNL     1     -31.263  39.950 -49.070  1.00  0.00    -0.365 N 
HETATM   25  H   UNL     1     -30.679  40.677 -49.460  1.00  0.00     0.165 HD
HETATM   26  C   UNL     1     -32.167  39.202 -49.774  1.00  0.00     0.096 A 
ENDBRANCH  16  17
ENDBRANCH  15  16
ENDBRANCH  12  15
ENDBRANCH   1  11
BRANCH   8  27
HETATM   27  C   UNL     1     -34.094  40.478 -55.675  1.00  0.00     0.409 C 
HETATM   28  F   UNL     1     -34.803  39.341 -55.553  1.00  0.00    -0.169 F 
HETATM   29  F   UNL     1     -33.964  40.723 -57.006  1.00  0.00    -0.169 F 
HETATM   30  F   UNL     1     -32.844  40.228 -55.219  1.00  0.00    -0.169 F 
ENDBRANCH   8  27
BRANCH   6  31
HETATM   31  C   UNL     1     -37.329  41.532 -57.441  1.00  0.00    -0.033 A 
HETATM   32  C   UNL     1     -37.882  40.241 -57.330  1.00  0.00     0.049 A 
HETATM   33  C   UNL     1     -38.097  39.514 -58.484  1.00  0.00     0.105 A 
HETATM   34  C   UNL     1     -37.814  40.024 -59.727  1.00  0.00     0.105 A 
HETATM   35  O   UNL     1     -38.568  38.239 -58.543  1.00  0.00    -0.323 OA
HETATM   36  O   UNL     1     -38.076  39.139 -60.725  1.00  0.00    -0.323 OA
HETATM   37  C   UNL     1     -37.301  41.290 -59.887  1.00  0.00     0.040 A 
HETATM   38  C   UNL     1     -38.499  37.990 -59.963  1.00  0.00     0.352 A 
HETATM   39  C   UNL     1     -37.048  42.040 -58.732  1.00  0.00     0.012 A 
ENDBRANCH   6  31
TORSDOF 6
ENDMDL
MODEL 7
REMARK VINA RESULT:      -9.1      6.018      9.700
REMARK  6 active torsions:
REMARK  status: ('A' for Active; 'I' for Inactive)
REMARK    1  A    between atoms: C_8  and  C_9 
REMARK    2  A    between atoms: C_9  and  C_10 
REMARK    3  A    between atoms: C_10  and  N_11 
REMARK       I    between atoms: N_11  and  C_12 
REMARK    4  A    between atoms: C_12  and  C_13 
REMARK    5  A    between atoms: C_18  and  C_19 
REMARK    6  A    between atoms: C_29  and  C_30 
ROOT
HETATM    1  C   UNL     1     -42.186  58.845 -54.915  1.00  0.00     0.148 A 
HETATM    2  N   UNL     1     -43.298  58.134 -54.615  1.00  0.00    -0.165 NA
HETATM    3  N   UNL     1     -42.907  57.367 -53.577  1.00  0.00    -0.240 N 
HETATM    4  C   UNL     1     -41.649  57.643 -53.131  1.00  0.00     0.123 A 
HETATM    5  N   UNL     1     -41.125  57.041 -52.050  1.00  0.00    -0.366 N 
HETATM    6  C   UNL     1     -41.858  56.099 -51.220  1.00  0.00     0.118 C 
HETATM    7  C   UNL     1     -43.363  56.054 -51.538  1.00  0.00     0.066 C 
HETATM    8  C   UNL     1     -43.772  56.365 -52.991  1.00  0.00     0.221 C 
HETATM    9  C   UNL     1     -41.135  58.568 -53.998  1.00  0.00     0.088 A 
HETATM   10  H   UNL     1     -40.162  57.216 -51.765  1.00  0.00     0.161 HD
ENDROOT
BRANCH   1  11
HETATM   11  C   UNL     1     -42.102  59.777 -56.048  1.00  0.00     0.272 C 
HETATM   12  N   UNL     1     -42.062  59.171 -57.284  1.00  0.00    -0.355 N 
HETATM   13  H   UNL     1     -42.251  58.172 -57.298  1.00  0.00     0.162 HD
HETATM   14  O   UNL     1     -42.079  60.996 -55.898  1.00  0.00    -0.266 OA
BRANCH  12  15
HETATM   15  C   UNL     1     -42.072  59.961 -58.497  1.00  0.00     0.127 C 
BRANCH  15  16
HETATM   16  C   UNL     1     -42.072  59.127 -59.776  1.00  0.00     0.060 C 
BRANCH  16  17
HETATM   17  C   UNL     1     -43.420  58.563 -60.105  1.00  0.00    -0.029 A 
HETATM   18  C   UNL     1     -43.835  57.196 -60.012  1.00  0.00    -0.002 A 
HETATM   19  C   UNL     1     -43.199  56.001 -59.616  1.00  0.00     0.014 A 
HETATM   20  C   UNL     1     -45.166  57.134 -60.425  1.00  0.00     0.042 A 
HETATM   21  C   UNL     1     -43.911  54.797 -59.651  1.00  0.00     0.001 A 
HETATM   22  C   UNL     1     -45.239  54.768 -60.071  1.00  0.00     0.002 A 
HETATM   23  C   UNL     1     -45.893  55.939 -60.465  1.00  0.00     0.030 A 
HETATM   24  N   UNL     1     -45.548  58.412 -60.755  1.00  0.00    -0.365 N 
HETATM   25  H   UNL     1     -46.467  58.668 -61.089  1.00  0.00     0.165 HD
HETATM   26  C   UNL     1     -44.505  59.279 -60.573  1.00  0.00     0.096 A 
ENDBRANCH  16  17
ENDBRANCH  15  16
ENDBRANCH  12  15
ENDBRANCH   1  11
BRANCH   8  27
HETATM   27  C   UNL     1     -43.837  55.141 -53.874  1.00  0.00     0.409 C 
HETATM   28  F   UNL     1     -42.787  55.015 -54.706  1.00  0.00    -0.169 F 
HETATM   29  F   UNL     1     -43.872  54.018 -53.108  1.00  0.00    -0.169 F 
HETATM   30  F   UNL     1     -44.960  55.112 -54.629  1.00  0.00    -0.169 F 
ENDBRANCH   8  27
BRANCH   6  31
HETATM   31  C   UNL     1     -41.142  54.760 -51.174  1.00  0.00    -0.033 A 
HETATM   32  C   UNL     1     -40.764  54.144 -52.384  1.00  0.00     0.049 A 
HETATM   33  C   UNL     1     -40.212  52.880 -52.337  1.00  0.00     0.105 A 
HETATM   34  C   UNL     1     -39.997  52.225 -51.148  1.00  0.00     0.105 A 
HETATM   35  O   UNL     1     -39.849  52.131 -53.413  1.00  0.00    -0.323 OA
HETATM   36  O   UNL     1     -39.467  50.985 -51.326  1.00  0.00    -0.323 OA
HETATM   37  C   UNL     1     -40.322  52.798 -49.941  1.00  0.00     0.040 A 
HETATM   38  C   UNL     1     -39.430  50.911 -52.765  1.00  0.00     0.352 A 
HETATM   39  C   UNL     1     -40.909  54.068 -49.961  1.00  0.00     0.012 A 
ENDBRANCH   6  31
TORSDOF 6
ENDMDL
MODEL 8
REMARK VINA RESULT:      -9.0      6.000      9.743
REMARK  6 active torsions:
REMARK  status: ('A' for Active; 'I' for Inactive)
REMARK    1  A    between atoms: C_8  and  C_9 
REMARK    2  A    between atoms: C_9  and  C_10 
REMARK    3  A    between atoms: C_10  and  N_11 
REMARK       I    between atoms: N_11  and  C_12 
REMARK    4  A    between atoms: C_12  and  C_13 
REMARK    5  A    between atoms: C_18  and  C_19 
REMARK    6  A    between atoms: C_29  and  C_30 
ROOT
HETATM    1  C   UNL     1     -42.356  58.975 -55.311  1.00  0.00     0.148 A 
HETATM    2  N   UNL     1     -43.447  58.282 -54.910  1.00  0.00    -0.165 NA
HETATM    3  N   UNL     1     -42.999  57.582 -53.849  1.00  0.00    -0.240 N 
HETATM    4  C   UNL     1     -41.721  57.887 -53.487  1.00  0.00     0.123 A 
HETATM    5  N   UNL     1     -41.137  57.354 -52.400  1.00  0.00    -0.366 N 
HETATM    6  C   UNL     1     -41.822  56.464 -51.476  1.00  0.00     0.118 C 
HETATM    7  C   UNL     1     -43.341  56.396 -51.711  1.00  0.00     0.066 C 
HETATM    8  C   UNL     1     -43.827  56.616 -53.157  1.00  0.00     0.221 C 
HETATM    9  C   UNL     1     -41.258  58.757 -54.435  1.00  0.00     0.088 A 
HETATM   10  H   UNL     1     -40.163  57.549 -52.177  1.00  0.00     0.161 HD
ENDROOT
BRANCH   1  11
HETATM   11  C   UNL     1     -42.336  59.835 -56.503  1.00  0.00     0.272 C 
HETATM   12  N   UNL     1     -43.363  59.603 -57.392  1.00  0.00    -0.355 N 
HETATM   13  H   UNL     1     -44.103  58.987 -57.067  1.00  0.00     0.162 HD
HETATM   14  O   UNL     1     -41.477  60.694 -56.681  1.00  0.00    -0.266 OA
BRANCH  12  15
HETATM   15  C   UNL     1     -43.528  60.433 -58.565  1.00  0.00     0.127 C 
BRANCH  15  16
HETATM   16  C   UNL     1     -42.874  59.862 -59.822  1.00  0.00     0.060 C 
BRANCH  16  17
HETATM   17  C   UNL     1     -42.849  58.365 -59.837  1.00  0.00    -0.029 A 
HETATM   18  C   UNL     1     -43.961  57.479 -60.003  1.00  0.00    -0.002 A 
HETATM   19  C   UNL     1     -45.346  57.666 -60.194  1.00  0.00     0.014 A 
HETATM   20  C   UNL     1     -43.469  56.175 -59.944  1.00  0.00     0.042 A 
HETATM   21  C   UNL     1     -46.181  56.550 -60.315  1.00  0.00     0.001 A 
HETATM   22  C   UNL     1     -45.659  55.260 -60.250  1.00  0.00     0.002 A 
HETATM   23  C   UNL     1     -44.290  55.048 -60.065  1.00  0.00     0.030 A 
HETATM   24  N   UNL     1     -42.111  56.262 -59.753  1.00  0.00    -0.365 N 
HETATM   25  H   UNL     1     -41.491  55.467 -59.672  1.00  0.00     0.165 HD
HETATM   26  C   UNL     1     -41.726  57.573 -59.681  1.00  0.00     0.096 A 
ENDBRANCH  16  17
ENDBRANCH  15  16
ENDBRANCH  12  15
ENDBRANCH   1  11
BRANCH   8  27
HETATM   27  C   UNL     1     -43.931  55.340 -53.958  1.00  0.00     0.409 C 
HETATM   28  F   UNL     1     -43.900  54.223 -53.208  1.00  0.00    -0.169 F 
HETATM   29  F   UNL     1     -45.103  55.320 -54.648  1.00  0.00    -0.169 F 
HETATM   30  F   UNL     1     -42.951  55.234 -54.885  1.00  0.00    -0.169 F 
ENDBRANCH   8  27
BRANCH   6  31
HETATM   31  C   UNL     1     -41.097  55.132 -51.385  1.00  0.00    -0.033 A 
HETATM   32  C   UNL     1     -40.827  54.418 -52.568  1.00  0.00     0.049 A 
HETATM   33  C   UNL     1     -40.265  53.161 -52.467  1.00  0.00     0.105 A 
HETATM   34  C   UNL     1     -39.941  52.606 -51.253  1.00  0.00     0.105 A 
HETATM   35  O   UNL     1     -39.997  52.325 -53.507  1.00  0.00    -0.323 OA
HETATM   36  O   UNL     1     -39.422  51.355 -51.375  1.00  0.00    -0.323 OA
HETATM   37  C   UNL     1     -40.159  53.277 -50.073  1.00  0.00     0.040 A 
HETATM   38  C   UNL     1     -39.515  51.162 -52.801  1.00  0.00     0.352 A 
HETATM   39  C   UNL     1     -40.752  54.542 -50.144  1.00  0.00     0.012 A 
ENDBRANCH   6  31
TORSDOF 6
ENDMDL
MODEL 9
REMARK VINA RESULT:      -8.8      5.452     10.065
REMARK  6 active torsions:
REMARK  status: ('A' for Active; 'I' for Inactive)
REMARK    1  A    between atoms: C_8  and  C_9 
REMARK    2  A    between atoms: C_9  and  C_10 
REMARK    3  A    between atoms: C_10  and  N_11 
REMARK       I    between atoms: N_11  and  C_12 
REMARK    4  A    between atoms: C_12  and  C_13 
REMARK    5  A    between atoms: C_18  and  C_19 
REMARK    6  A    between atoms: C_29  and  C_30 
ROOT
HETATM    1  C   UNL     1     -43.676  59.314 -55.921  1.00  0.00     0.148 A 
HETATM    2  N   UNL     1     -44.171  59.712 -54.727  1.00  0.00    -0.165 NA
HETATM    3  N   UNL     1     -43.331  59.146 -53.837  1.00  0.00    -0.240 N 
HETATM    4  C   UNL     1     -42.268  58.514 -54.408  1.00  0.00     0.123 A 
HETATM    5  N   UNL     1     -41.281  57.968 -53.676  1.00  0.00    -0.366 N 
HETATM    6  C   UNL     1     -41.214  58.054 -52.226  1.00  0.00     0.118 C 
HETATM    7  C   UNL     1     -42.232  59.043 -51.630  1.00  0.00     0.066 C 
HETATM    8  C   UNL     1     -43.547  59.235 -52.408  1.00  0.00     0.221 C 
HETATM    9  C   UNL     1     -42.477  58.568 -55.758  1.00  0.00     0.088 A 
HETATM   10  H   UNL     1     -40.523  57.450 -54.118  1.00  0.00     0.161 HD
ENDROOT
BRANCH   1  11
HETATM   11  C   UNL     1     -44.316  59.626 -57.208  1.00  0.00     0.272 C 
HETATM   12  N   UNL     1     -43.480  60.205 -58.136  1.00  0.00    -0.355 N 
HETATM   13  H   UNL     1     -42.490  60.211 -57.903  1.00  0.00     0.162 HD
HETATM   14  O   UNL     1     -45.499  59.381 -57.431  1.00  0.00    -0.266 OA
BRANCH  12  15
HETATM   15  C   UNL     1     -43.944  60.483 -59.478  1.00  0.00     0.127 C 
BRANCH  15  16
HETATM   16  C   UNL     1     -43.131  59.788 -60.568  1.00  0.00     0.060 C 
BRANCH  16  17
HETATM   17  C   UNL     1     -42.931  58.328 -60.306  1.00  0.00    -0.029 A 
HETATM   18  C   UNL     1     -43.936  57.310 -60.256  1.00  0.00    -0.002 A 
HETATM   19  C   UNL     1     -45.337  57.303 -60.418  1.00  0.00     0.014 A 
HETATM   20  C   UNL     1     -43.294  56.102 -59.977  1.00  0.00     0.042 A 
HETATM   21  C   UNL     1     -46.039  56.099 -60.293  1.00  0.00     0.001 A 
HETATM   22  C   UNL     1     -45.369  54.910 -60.012  1.00  0.00     0.002 A 
HETATM   23  C   UNL     1     -43.981  54.889 -59.850  1.00  0.00     0.030 A 
HETATM   24  N   UNL     1     -41.952  56.373 -59.865  1.00  0.00    -0.365 N 
HETATM   25  H   UNL     1     -41.242  55.682 -59.665  1.00  0.00     0.165 HD
HETATM   26  C   UNL     1     -41.721  57.709 -60.054  1.00  0.00     0.096 A 
ENDBRANCH  16  17
ENDBRANCH  15  16
ENDBRANCH  12  15
ENDBRANCH   1  11
BRANCH   8  27
HETATM   27  C   UNL     1     -44.644  58.288 -51.979  1.00  0.00     0.409 C 
HETATM   28  F   UNL     1     -44.494  57.812 -50.729  1.00  0.00    -0.169 F 
HETATM   29  F   UNL     1     -45.846  58.922 -52.020  1.00  0.00    -0.169 F 
HETATM   30  F   UNL     1     -44.756  57.224 -52.808  1.00  0.00    -0.169 F 
ENDBRANCH   8  27
BRANCH   6  31
HETATM   31  C   UNL     1     -41.190  56.665 -51.612  1.00  0.00    -0.033 A 
HETATM   32  C   UNL     1     -41.087  56.537 -50.212  1.00  0.00     0.049 A 
HETATM   33  C   UNL     1     -40.957  55.274 -49.672  1.00  0.00     0.105 A 
HETATM   34  C   UNL     1     -40.955  54.146 -50.456  1.00  0.00     0.105 A 
HETATM   35  O   UNL     1     -40.791  54.988 -48.353  1.00  0.00    -0.323 OA
HETATM   36  O   UNL     1     -40.794  53.008 -49.729  1.00  0.00    -0.323 OA
HETATM   37  C   UNL     1     -41.083  54.218 -51.824  1.00  0.00     0.040 A 
HETATM   38  C   UNL     1     -40.632  53.554 -48.405  1.00  0.00     0.352 A 
HETATM   39  C   UNL     1     -41.189  55.489 -52.401  1.00  0.00     0.012 A 
ENDBRANCH   6  31
TORSDOF 6
ENDMDL
MODEL 10
REMARK VINA RESULT:      -8.7      7.027      9.759
REMARK  6 active torsions:
REMARK  status: ('A' for Active; 'I' for Inactive)
REMARK    1  A    between atoms: C_8  and  C_9 
REMARK    2  A    between atoms: C_9  and  C_10 
REMARK    3  A    between atoms: C_10  and  N_11 
REMARK       I    between atoms: N_11  and  C_12 
REMARK    4  A    between atoms: C_12  and  C_13 
REMARK    5  A    between atoms: C_18  and  C_19 
REMARK    6  A    between atoms: C_29  and  C_30 
ROOT
HETATM    1  C   UNL     1     -43.337  56.918 -56.825  1.00  0.00     0.148 A 
HETATM    2  N   UNL     1     -43.535  57.113 -55.500  1.00  0.00    -0.165 NA
HETATM    3  N   UNL     1     -42.583  56.350 -54.927  1.00  0.00    -0.240 N 
HETATM    4  C   UNL     1     -41.722  55.782 -55.817  1.00  0.00     0.123 A 
HETATM    5  N   UNL     1     -40.658  55.061 -55.424  1.00  0.00    -0.366 N 
HETATM    6  C   UNL     1     -40.284  54.873 -54.032  1.00  0.00     0.118 C 
HETATM    7  C   UNL     1     -41.062  55.785 -53.066  1.00  0.00     0.066 C 
HETATM    8  C   UNL     1     -42.489  56.185 -53.491  1.00  0.00     0.221 C 
HETATM    9  C   UNL     1     -42.202  56.095 -57.059  1.00  0.00     0.088 A 
HETATM   10  H   UNL     1     -40.058  54.595 -56.103  1.00  0.00     0.161 HD
ENDROOT
BRANCH   1  11
HETATM   11  C   UNL     1     -44.199  57.495 -57.866  1.00  0.00     0.272 C 
HETATM   12  N   UNL     1     -43.539  57.853 -59.021  1.00  0.00    -0.355 N 
HETATM   13  H   UNL     1     -42.575  57.541 -59.098  1.00  0.00     0.162 HD
HETATM   14  O   UNL     1     -45.410  57.636 -57.714  1.00  0.00    -0.266 OA
BRANCH  12  15
HETATM   15  C   UNL     1     -44.270  58.347 -60.168  1.00  0.00     0.127 C 
BRANCH  15  16
HETATM   16  C   UNL     1     -44.422  59.867 -60.193  1.00  0.00     0.060 C 
BRANCH  16  17
HETATM   17  C   UNL     1     -43.244  60.561 -60.804  1.00  0.00    -0.029 A 
HETATM   18  C   UNL     1     -42.181  61.232 -60.119  1.00  0.00    -0.002 A 
HETATM   19  C   UNL     1     -41.878  61.462 -58.760  1.00  0.00     0.014 A 
HETATM   20  C   UNL     1     -41.311  61.734 -61.087  1.00  0.00     0.042 A 
HETATM   21  C   UNL     1     -40.727  62.183 -58.424  1.00  0.00     0.001 A 
HETATM   22  C   UNL     1     -39.880  62.674 -59.415  1.00  0.00     0.002 A 
HETATM   23  C   UNL     1     -40.155  62.456 -60.768  1.00  0.00     0.030 A 
HETATM   24  N   UNL     1     -41.822  61.382 -62.313  1.00  0.00    -0.365 N 
HETATM   25  H   UNL     1     -41.396  61.615 -63.200  1.00  0.00     0.165 HD
HETATM   26  C   UNL     1     -42.987  60.682 -62.157  1.00  0.00     0.096 A 
ENDBRANCH  16  17
ENDBRANCH  15  16
ENDBRANCH  12  15
ENDBRANCH   1  11
BRANCH   8  27
HETATM   27  C   UNL     1     -43.553  55.232 -52.999  1.00  0.00     0.409 C 
HETATM   28  F   UNL     1     -44.171  54.552 -53.982  1.00  0.00    -0.169 F 
HETATM   29  F   UNL     1     -42.999  54.308 -52.168  1.00  0.00    -0.169 F 
HETATM   30  F   UNL     1     -44.509  55.859 -52.275  1.00  0.00    -0.169 F 
ENDBRANCH   8  27
BRANCH   6  31
HETATM   31  C   UNL     1     -40.257  53.395 -53.682  1.00  0.00    -0.033 A 
HETATM   32  C   UNL     1     -40.071  53.013 -52.339  1.00  0.00     0.049 A 
HETATM   33  C   UNL     1     -39.941  51.670 -52.046  1.00  0.00     0.105 A 
HETATM   34  C   UNL     1     -40.016  50.704 -53.020  1.00  0.00     0.105 A 
HETATM   35  O   UNL     1     -39.701  51.145 -50.814  1.00  0.00    -0.323 OA
HETATM   36  O   UNL     1     -39.839  49.451 -52.524  1.00  0.00    -0.323 OA
HETATM   37  C   UNL     1     -40.226  51.027 -54.341  1.00  0.00     0.040 A 
HETATM   38  C   UNL     1     -39.582  49.744 -51.136  1.00  0.00     0.352 A 
HETATM   39  C   UNL     1     -40.335  52.383 -54.669  1.00  0.00     0.012 A 
ENDBRANCH   6  31
TORSDOF 6
ENDMDL
