MODEL 1
REMARK VINA RESULT:      -7.3      0.000      0.000
REMARK  4 active torsions:
REMARK  status: ('A' for Active; 'I' for Inactive)
REMARK    1  A    between atoms: C_2  and  O_3 
REMARK    2  A    between atoms: C_2  and  C_12 
REMARK    3  A    between atoms: O_3  and  C_4 
REMARK       I    between atoms: C_12  and  N_13 
REMARK    4  A    between atoms: N_13  and  C_14 
ROOT
HETATM    1  C   UNL     1     -40.614  56.255 -53.957  1.00  0.00     0.050 C 
HETATM    2  C   UNL     1     -41.020  54.883 -54.481  1.00  0.00     0.217 C 
ENDROOT
BRANCH   2   3
HETATM    3  O   UNL     1     -41.308  54.019 -53.376  1.00  0.00    -0.336 OA
BRANCH   3   4
HETATM    4  C   UNL     1     -40.774  52.761 -53.337  1.00  0.00     0.087 A 
HETATM    5  C   UNL     1     -40.136  52.388 -52.139  1.00  0.00     0.047 A 
HETATM    6 BR   UNL     1     -40.069  53.571 -50.650  1.00  0.00    -0.048 Br
HETATM    7  C   UNL     1     -39.540  51.133 -52.003  1.00  0.00     0.064 A 
HETATM    8  C   UNL     1     -39.578  50.248 -53.070  1.00  0.00     0.117 A 
HETATM    9  F   UNL     1     -39.008  49.044 -52.949  1.00  0.00    -0.206 F 
HETATM   10  C   UNL     1     -40.196  50.596 -54.265  1.00  0.00     0.045 A 
HETATM   11  C   UNL     1     -40.791  51.853 -54.402  1.00  0.00     0.041 A 
ENDBRANCH   3   4
ENDBRANCH   2   3
BRANCH   2  12
HETATM   12  C   UNL     1     -42.289  55.047 -55.343  1.00  0.00     0.252 C 
HETATM   13  N   UNL     1     -42.143  56.012 -56.323  1.00  0.00    -0.309 N 
HETATM   14  H   UNL     1     -41.262  56.513 -56.318  1.00  0.00     0.170 HD
HETATM   15  O   UNL     1     -43.274  54.346 -55.132  1.00  0.00    -0.270 OA
BRANCH  13  16
HETATM   16  C   UNL     1     -43.093  56.366 -57.281  1.00  0.00     0.129 A 
HETATM   17  N   UNL     1     -43.914  57.413 -57.086  1.00  0.00    -0.242 NA
HETATM   18  C   UNL     1     -44.817  57.701 -58.053  1.00  0.00     0.142 A 
HETATM   19  C   UNL     1     -44.944  56.979 -59.226  1.00  0.00     0.051 A 
HETATM   20 CL   UNL     1     -46.114  57.400 -60.407  1.00  0.00    -0.083 Cl
HETATM   21  C   UNL     1     -44.095  55.900 -59.421  1.00  0.00     0.029 A 
HETATM   22  C   UNL     1     -43.156  55.587 -58.435  1.00  0.00     0.052 A 
ENDBRANCH  13  16
ENDBRANCH   2  12
TORSDOF 4
ENDMDL
MODEL 2
REMARK VINA RESULT:      -7.2      4.341      5.038
REMARK  4 active torsions:
REMARK  status: ('A' for Active; 'I' for Inactive)
REMARK    1  A    between atoms: C_2  and  O_3 
REMARK    2  A    between atoms: C_2  and  C_12 
REMARK    3  A    between atoms: O_3  and  C_4 
REMARK       I    between atoms: C_12  and  N_13 
REMARK    4  A    between atoms: N_13  and  C_14 
ROOT
HETATM    1  C   UNL     1     -43.234  53.927 -51.615  1.00  0.00     0.050 C 
HETATM    2  C   UNL     1     -42.083  54.820 -51.164  1.00  0.00     0.217 C 
ENDROOT
BRANCH   2   3
HETATM    3  O   UNL     1     -41.010  54.723 -52.108  1.00  0.00    -0.336 OA
BRANCH   3   4
HETATM    4  C   UNL     1     -40.522  53.495 -52.461  1.00  0.00     0.087 A 
HETATM    5  C   UNL     1     -40.612  53.153 -53.824  1.00  0.00     0.047 A 
HETATM    6 BR   UNL     1     -41.338  54.367 -55.096  1.00  0.00    -0.048 Br
HETATM    7  C   UNL     1     -40.161  51.916 -54.285  1.00  0.00     0.064 A 
HETATM    8  C   UNL     1     -39.622  51.013 -53.380  1.00  0.00     0.117 A 
HETATM    9  F   UNL     1     -39.190  49.823 -53.814  1.00  0.00    -0.206 F 
HETATM   10  C   UNL     1     -39.529  51.324 -52.030  1.00  0.00     0.045 A 
HETATM   11  C   UNL     1     -39.982  52.563 -51.567  1.00  0.00     0.041 A 
ENDBRANCH   3   4
ENDBRANCH   2   3
BRANCH   2  12
HETATM   12  C   UNL     1     -42.587  56.276 -51.115  1.00  0.00     0.252 C 
HETATM   13  N   UNL     1     -43.845  56.421 -51.669  1.00  0.00    -0.309 N 
HETATM   14  H   UNL     1     -44.246  55.583 -52.075  1.00  0.00     0.170 HD
HETATM   15  O   UNL     1     -41.895  57.153 -50.604  1.00  0.00    -0.270 OA
BRANCH  13  16
HETATM   16  C   UNL     1     -44.586  57.602 -51.741  1.00  0.00     0.129 A 
HETATM   17  N   UNL     1     -45.321  58.020 -50.696  1.00  0.00    -0.242 NA
HETATM   18  C   UNL     1     -46.021  59.172 -50.832  1.00  0.00     0.142 A 
HETATM   19  C   UNL     1     -46.023  59.938 -51.984  1.00  0.00     0.051 A 
HETATM   20 CL   UNL     1     -46.935  61.387 -52.086  1.00  0.00    -0.083 Cl
HETATM   21  C   UNL     1     -45.262  59.501 -53.059  1.00  0.00     0.029 A 
HETATM   22  C   UNL     1     -44.534  58.316 -52.937  1.00  0.00     0.052 A 
ENDBRANCH  13  16
ENDBRANCH   2  12
TORSDOF 4
ENDMDL
MODEL 3
REMARK VINA RESULT:      -7.2      3.971      4.566
REMARK  4 active torsions:
REMARK  status: ('A' for Active; 'I' for Inactive)
REMARK    1  A    between atoms: C_2  and  O_3 
REMARK    2  A    between atoms: C_2  and  C_12 
REMARK    3  A    between atoms: O_3  and  C_4 
REMARK       I    between atoms: C_12  and  N_13 
REMARK    4  A    between atoms: N_13  and  C_14 
ROOT
HETATM    1  C   UNL     1     -42.956  54.367 -54.764  1.00  0.00     0.050 C 
HETATM    2  C   UNL     1     -42.445  54.410 -53.329  1.00  0.00     0.217 C 
ENDROOT
BRANCH   2   3
HETATM    3  O   UNL     1     -41.039  54.139 -53.318  1.00  0.00    -0.336 OA
BRANCH   3   4
HETATM    4  C   UNL     1     -40.596  52.848 -53.235  1.00  0.00     0.087 A 
HETATM    5  C   UNL     1     -40.083  52.440 -51.988  1.00  0.00     0.047 A 
HETATM    6 BR   UNL     1     -40.058  53.626 -50.500  1.00  0.00    -0.048 Br
HETATM    7  C   UNL     1     -39.587  51.149 -51.803  1.00  0.00     0.064 A 
HETATM    8  C   UNL     1     -39.599  50.262 -52.870  1.00  0.00     0.117 A 
HETATM    9  F   UNL     1     -39.122  49.023 -52.702  1.00  0.00    -0.206 F 
HETATM   10  C   UNL     1     -40.092  50.643 -54.110  1.00  0.00     0.045 A 
HETATM   11  C   UNL     1     -40.588  51.936 -54.296  1.00  0.00     0.041 A 
ENDBRANCH   3   4
ENDBRANCH   2   3
BRANCH   2  12
HETATM   12  C   UNL     1     -42.695  55.824 -52.765  1.00  0.00     0.252 C 
HETATM   13  N   UNL     1     -44.026  56.193 -52.828  1.00  0.00    -0.309 N 
HETATM   14  H   UNL     1     -44.646  55.525 -53.273  1.00  0.00     0.170 HD
HETATM   15  O   UNL     1     -41.763  56.481 -52.310  1.00  0.00    -0.270 OA
BRANCH  13  16
HETATM   16  C   UNL     1     -44.574  57.389 -52.365  1.00  0.00     0.129 A 
HETATM   17  N   UNL     1     -44.992  57.511 -51.093  1.00  0.00    -0.242 NA
HETATM   18  C   UNL     1     -45.521  58.698 -50.710  1.00  0.00     0.142 A 
HETATM   19  C   UNL     1     -45.655  59.787 -51.551  1.00  0.00     0.051 A 
HETATM   20 CL   UNL     1     -46.336  61.261 -50.997  1.00  0.00    -0.083 Cl
HETATM   21  C   UNL     1     -45.222  59.655 -52.863  1.00  0.00     0.029 A 
HETATM   22  C   UNL     1     -44.674  58.439 -53.277  1.00  0.00     0.052 A 
ENDBRANCH  13  16
ENDBRANCH   2  12
TORSDOF 4
ENDMDL
MODEL 4
REMARK VINA RESULT:      -6.8      4.094      5.284
REMARK  4 active torsions:
REMARK  status: ('A' for Active; 'I' for Inactive)
REMARK    1  A    between atoms: C_2  and  O_3 
REMARK    2  A    between atoms: C_2  and  C_12 
REMARK    3  A    between atoms: O_3  and  C_4 
REMARK       I    between atoms: C_12  and  N_13 
REMARK    4  A    between atoms: N_13  and  C_14 
ROOT
HETATM    1  C   UNL     1     -43.466  54.860 -53.756  1.00  0.00     0.050 C 
HETATM    2  C   UNL     1     -42.644  54.650 -52.489  1.00  0.00     0.217 C 
ENDROOT
BRANCH   2   3
HETATM    3  O   UNL     1     -41.269  54.463 -52.842  1.00  0.00    -0.336 OA
BRANCH   3   4
HETATM    4  C   UNL     1     -40.780  53.200 -53.031  1.00  0.00     0.087 A 
HETATM    5  C   UNL     1     -40.137  52.605 -51.928  1.00  0.00     0.047 A 
HETATM    6 BR   UNL     1     -40.004  53.512 -50.261  1.00  0.00    -0.048 Br
HETATM    7  C   UNL     1     -39.586  51.326 -52.022  1.00  0.00     0.064 A 
HETATM    8  C   UNL     1     -39.674  50.641 -53.225  1.00  0.00     0.117 A 
HETATM    9  F   UNL     1     -39.146  49.415 -53.324  1.00  0.00    -0.206 F 
HETATM   10  C   UNL     1     -40.296  51.209 -54.328  1.00  0.00     0.045 A 
HETATM   11  C   UNL     1     -40.847  52.490 -54.235  1.00  0.00     0.041 A 
ENDBRANCH   3   4
ENDBRANCH   2   3
BRANCH   2  12
HETATM   12  C   UNL     1     -42.778  55.909 -51.609  1.00  0.00     0.252 C 
HETATM   13  N   UNL     1     -42.667  57.079 -52.336  1.00  0.00    -0.309 N 
HETATM   14  H   UNL     1     -42.465  56.966 -53.323  1.00  0.00     0.170 HD
HETATM   15  O   UNL     1     -42.979  55.801 -50.403  1.00  0.00    -0.270 OA
BRANCH  13  16
HETATM   16  C   UNL     1     -42.781  58.377 -51.836  1.00  0.00     0.129 A 
HETATM   17  N   UNL     1     -43.901  59.096 -52.029  1.00  0.00    -0.242 NA
HETATM   18  C   UNL     1     -43.945  60.351 -51.523  1.00  0.00     0.142 A 
HETATM   19  C   UNL     1     -42.904  60.934 -50.822  1.00  0.00     0.051 A 
HETATM   20 CL   UNL     1     -43.029  62.531 -50.210  1.00  0.00    -0.083 Cl
HETATM   21  C   UNL     1     -41.751  60.188 -50.627  1.00  0.00     0.029 A 
HETATM   22  C   UNL     1     -41.687  58.891 -51.142  1.00  0.00     0.052 A 
ENDBRANCH  13  16
ENDBRANCH   2  12
TORSDOF 4
ENDMDL
MODEL 5
REMARK VINA RESULT:      -6.8     14.978     16.882
REMARK  4 active torsions:
REMARK  status: ('A' for Active; 'I' for Inactive)
REMARK    1  A    between atoms: C_2  and  O_3 
REMARK    2  A    between atoms: C_2  and  C_12 
REMARK    3  A    between atoms: O_3  and  C_4 
REMARK       I    between atoms: C_12  and  N_13 
REMARK    4  A    between atoms: N_13  and  C_14 
ROOT
HETATM    1  C   UNL     1     -34.233  41.459 -56.477  1.00  0.00     0.050 C 
HETATM    2  C   UNL     1     -35.412  42.094 -55.748  1.00  0.00     0.217 C 
ENDROOT
BRANCH   2   3
HETATM    3  O   UNL     1     -36.618  41.414 -56.114  1.00  0.00    -0.336 OA
BRANCH   3   4
HETATM    4  C   UNL     1     -36.889  41.167 -57.431  1.00  0.00     0.087 A 
HETATM    5  C   UNL     1     -36.935  39.815 -57.819  1.00  0.00     0.047 A 
HETATM    6 BR   UNL     1     -36.674  38.419 -56.552  1.00  0.00    -0.048 Br
HETATM    7  C   UNL     1     -37.184  39.455 -59.144  1.00  0.00     0.064 A 
HETATM    8  C   UNL     1     -37.384  40.453 -60.088  1.00  0.00     0.117 A 
HETATM    9  F   UNL     1     -37.621  40.117 -61.361  1.00  0.00    -0.206 F 
HETATM   10  C   UNL     1     -37.336  41.794 -59.731  1.00  0.00     0.045 A 
HETATM   11  C   UNL     1     -37.085  42.154 -58.404  1.00  0.00     0.041 A 
ENDBRANCH   3   4
ENDBRANCH   2   3
BRANCH   2  12
HETATM   12  C   UNL     1     -35.184  41.946 -54.230  1.00  0.00     0.252 C 
HETATM   13  N   UNL     1     -34.206  41.016 -53.929  1.00  0.00    -0.309 N 
HETATM   14  H   UNL     1     -33.809  40.524 -54.722  1.00  0.00     0.170 HD
HETATM   15  O   UNL     1     -35.827  42.630 -53.438  1.00  0.00    -0.270 OA
BRANCH  13  16
HETATM   16  C   UNL     1     -33.745  40.684 -52.655  1.00  0.00     0.129 A 
HETATM   17  N   UNL     1     -34.605  40.484 -51.641  1.00  0.00    -0.242 NA
HETATM   18  C   UNL     1     -34.092  40.169 -50.427  1.00  0.00     0.142 A 
HETATM   19  C   UNL     1     -32.738  40.045 -50.173  1.00  0.00     0.051 A 
HETATM   20 CL   UNL     1     -32.160  39.645 -48.609  1.00  0.00    -0.083 Cl
HETATM   21  C   UNL     1     -31.856  40.254 -51.224  1.00  0.00     0.029 A 
HETATM   22  C   UNL     1     -32.366  40.579 -52.483  1.00  0.00     0.052 A 
ENDBRANCH  13  16
ENDBRANCH   2  12
TORSDOF 4
ENDMDL
MODEL 6
REMARK VINA RESULT:      -6.7      5.732      7.840
REMARK  4 active torsions:
REMARK  status: ('A' for Active; 'I' for Inactive)
REMARK    1  A    between atoms: C_2  and  O_3 
REMARK    2  A    between atoms: C_2  and  C_12 
REMARK    3  A    between atoms: O_3  and  C_4 
REMARK       I    between atoms: C_12  and  N_13 
REMARK    4  A    between atoms: N_13  and  C_14 
ROOT
HETATM    1  C   UNL     1     -41.069  55.206 -48.740  1.00  0.00     0.050 C 
HETATM    2  C   UNL     1     -41.884  55.634 -49.954  1.00  0.00     0.217 C 
ENDROOT
BRANCH   2   3
HETATM    3  O   UNL     1     -41.260  56.767 -50.570  1.00  0.00    -0.336 OA
BRANCH   3   4
HETATM    4  C   UNL     1     -42.030  57.760 -51.109  1.00  0.00     0.087 A 
HETATM    5  C   UNL     1     -41.400  59.004 -51.305  1.00  0.00     0.047 A 
HETATM    6 BR   UNL     1     -39.564  59.256 -50.875  1.00  0.00    -0.048 Br
HETATM    7  C   UNL     1     -42.102  60.089 -51.831  1.00  0.00     0.064 A 
HETATM    8  C   UNL     1     -43.441  59.932 -52.158  1.00  0.00     0.117 A 
HETATM    9  F   UNL     1     -44.123  60.968 -52.661  1.00  0.00    -0.206 F 
HETATM   10  C   UNL     1     -44.086  58.717 -51.968  1.00  0.00     0.045 A 
HETATM   11  C   UNL     1     -43.383  57.630 -51.440  1.00  0.00     0.041 A 
ENDBRANCH   3   4
ENDBRANCH   2   3
BRANCH   2  12
HETATM   12  C   UNL     1     -41.916  54.463 -50.957  1.00  0.00     0.252 C 
HETATM   13  N   UNL     1     -40.652  54.009 -51.283  1.00  0.00    -0.309 N 
HETATM   14  H   UNL     1     -39.881  54.524 -50.873  1.00  0.00     0.170 HD
HETATM   15  O   UNL     1     -42.990  54.024 -51.360  1.00  0.00    -0.270 OA
BRANCH  13  16
HETATM   16  C   UNL     1     -40.350  52.942 -52.130  1.00  0.00     0.129 A 
HETATM   17  N   UNL     1     -39.846  51.795 -51.642  1.00  0.00    -0.242 NA
HETATM   18  C   UNL     1     -39.569  50.800 -52.519  1.00  0.00     0.142 A 
HETATM   19  C   UNL     1     -39.774  50.899 -53.883  1.00  0.00     0.051 A 
HETATM   20 CL   UNL     1     -39.399  49.597 -54.935  1.00  0.00    -0.083 Cl
HETATM   21  C   UNL     1     -40.294  52.085 -54.380  1.00  0.00     0.029 A 
HETATM   22  C   UNL     1     -40.586  53.123 -53.492  1.00  0.00     0.052 A 
ENDBRANCH  13  16
ENDBRANCH   2  12
TORSDOF 4
ENDMDL
MODEL 7
REMARK VINA RESULT:      -6.4      4.766      5.510
REMARK  4 active torsions:
REMARK  status: ('A' for Active; 'I' for Inactive)
REMARK    1  A    between atoms: C_2  and  O_3 
REMARK    2  A    between atoms: C_2  and  C_12 
REMARK    3  A    between atoms: O_3  and  C_4 
REMARK       I    between atoms: C_12  and  N_13 
REMARK    4  A    between atoms: N_13  and  C_14 
ROOT
HETATM    1  C   UNL     1     -43.023  54.137 -51.856  1.00  0.00     0.050 C 
HETATM    2  C   UNL     1     -41.930  55.130 -51.477  1.00  0.00     0.217 C 
ENDROOT
BRANCH   2   3
HETATM    3  O   UNL     1     -40.704  54.752 -52.114  1.00  0.00    -0.336 OA
BRANCH   3   4
HETATM    4  C   UNL     1     -40.356  53.432 -52.193  1.00  0.00     0.087 A 
HETATM    5  C   UNL     1     -40.231  52.893 -53.488  1.00  0.00     0.047 A 
HETATM    6 BR   UNL     1     -40.495  53.973 -55.032  1.00  0.00    -0.048 Br
HETATM    7  C   UNL     1     -39.899  51.551 -53.679  1.00  0.00     0.064 A 
HETATM    8  C   UNL     1     -39.695  50.742 -52.571  1.00  0.00     0.117 A 
HETATM    9  F   UNL     1     -39.379  49.453 -52.744  1.00  0.00    -0.206 F 
HETATM   10  C   UNL     1     -39.820  51.248 -51.284  1.00  0.00     0.045 A 
HETATM   11  C   UNL     1     -40.153  52.592 -51.093  1.00  0.00     0.041 A 
ENDBRANCH   3   4
ENDBRANCH   2   3
BRANCH   2  12
HETATM   12  C   UNL     1     -42.350  56.529 -51.970  1.00  0.00     0.252 C 
HETATM   13  N   UNL     1     -42.725  57.366 -50.936  1.00  0.00    -0.309 N 
HETATM   14  H   UNL     1     -42.727  56.948 -50.012  1.00  0.00     0.170 HD
HETATM   15  O   UNL     1     -42.309  56.800 -53.167  1.00  0.00    -0.270 OA
BRANCH  13  16
HETATM   16  C   UNL     1     -43.119  58.699 -51.053  1.00  0.00     0.129 A 
HETATM   17  N   UNL     1     -44.370  59.019 -51.426  1.00  0.00    -0.242 NA
HETATM   18  C   UNL     1     -44.687  60.332 -51.526  1.00  0.00     0.142 A 
HETATM   19  C   UNL     1     -43.797  61.359 -51.268  1.00  0.00     0.051 A 
HETATM   20 CL   UNL     1     -44.267  63.002 -51.417  1.00  0.00    -0.083 Cl
HETATM   21  C   UNL     1     -42.507  61.022 -50.884  1.00  0.00     0.029 A 
HETATM   22  C   UNL     1     -42.162  59.673 -50.775  1.00  0.00     0.052 A 
ENDBRANCH  13  16
ENDBRANCH   2  12
TORSDOF 4
ENDMDL
MODEL 8
REMARK VINA RESULT:      -6.4     14.634     16.255
REMARK  4 active torsions:
REMARK  status: ('A' for Active; 'I' for Inactive)
REMARK    1  A    between atoms: C_2  and  O_3 
REMARK    2  A    between atoms: C_2  and  C_12 
REMARK    3  A    between atoms: O_3  and  C_4 
REMARK       I    between atoms: C_12  and  N_13 
REMARK    4  A    between atoms: N_13  and  C_14 
ROOT
HETATM    1  C   UNL     1     -34.549  42.158 -51.206  1.00  0.00     0.050 C 
HETATM    2  C   UNL     1     -33.927  40.855 -51.696  1.00  0.00     0.217 C 
ENDROOT
BRANCH   2   3
HETATM    3  O   UNL     1     -34.314  39.787 -50.823  1.00  0.00    -0.336 OA
BRANCH   3   4
HETATM    4  C   UNL     1     -33.515  39.449 -49.766  1.00  0.00     0.087 A 
HETATM    5  C   UNL     1     -34.050  38.526 -48.847  1.00  0.00     0.047 A 
HETATM    6 BR   UNL     1     -35.777  37.771 -49.104  1.00  0.00    -0.048 Br
HETATM    7  C   UNL     1     -33.324  38.129 -47.723  1.00  0.00     0.064 A 
HETATM    8  C   UNL     1     -32.060  38.659 -47.514  1.00  0.00     0.117 A 
HETATM    9  F   UNL     1     -31.358  38.286 -46.437  1.00  0.00    -0.206 F 
HETATM   10  C   UNL     1     -31.513  39.576 -48.402  1.00  0.00     0.045 A 
HETATM   11  C   UNL     1     -32.241  39.975 -49.527  1.00  0.00     0.041 A 
ENDBRANCH   3   4
ENDBRANCH   2   3
BRANCH   2  12
HETATM   12  C   UNL     1     -34.454  40.568 -53.116  1.00  0.00     0.252 C 
HETATM   13  N   UNL     1     -34.886  41.711 -53.763  1.00  0.00    -0.309 N 
HETATM   14  H   UNL     1     -34.851  42.564 -53.217  1.00  0.00     0.170 HD
HETATM   15  O   UNL     1     -34.441  39.423 -53.561  1.00  0.00    -0.270 OA
BRANCH  13  16
HETATM   16  C   UNL     1     -35.379  41.787 -55.066  1.00  0.00     0.129 A 
HETATM   17  N   UNL     1     -34.560  41.656 -56.123  1.00  0.00    -0.242 NA
HETATM   18  C   UNL     1     -35.102  41.745 -57.362  1.00  0.00     0.142 A 
HETATM   19  C   UNL     1     -36.447  41.964 -57.598  1.00  0.00     0.051 A 
HETATM   20 CL   UNL     1     -37.064  42.068 -59.195  1.00  0.00    -0.083 Cl
HETATM   21  C   UNL     1     -37.287  42.099 -56.502  1.00  0.00     0.029 A 
HETATM   22  C   UNL     1     -36.747  42.010 -55.217  1.00  0.00     0.052 A 
ENDBRANCH  13  16
ENDBRANCH   2  12
TORSDOF 4
ENDMDL
MODEL 9
REMARK VINA RESULT:      -6.4      4.891      7.736
REMARK  4 active torsions:
REMARK  status: ('A' for Active; 'I' for Inactive)
REMARK    1  A    between atoms: C_2  and  O_3 
REMARK    2  A    between atoms: C_2  and  C_12 
REMARK    3  A    between atoms: O_3  and  C_4 
REMARK       I    between atoms: C_12  and  N_13 
REMARK    4  A    between atoms: N_13  and  C_14 
ROOT
HETATM    1  C   UNL     1     -43.178  59.016 -55.695  1.00  0.00     0.050 C 
HETATM    2  C   UNL     1     -43.065  57.547 -56.085  1.00  0.00     0.217 C 
ENDROOT
BRANCH   2   3
HETATM    3  O   UNL     1     -42.451  57.444 -57.375  1.00  0.00    -0.336 OA
BRANCH   3   4
HETATM    4  C   UNL     1     -43.119  56.834 -58.400  1.00  0.00     0.087 A 
HETATM    5  C   UNL     1     -43.587  57.671 -59.431  1.00  0.00     0.047 A 
HETATM    6 BR   UNL     1     -43.259  59.546 -59.399  1.00  0.00    -0.048 Br
HETATM    7  C   UNL     1     -44.297  57.151 -60.513  1.00  0.00     0.064 A 
HETATM    8  C   UNL     1     -44.545  55.787 -60.564  1.00  0.00     0.117 A 
HETATM    9  F   UNL     1     -45.228  55.280 -61.598  1.00  0.00    -0.206 F 
HETATM   10  C   UNL     1     -44.101  54.941 -59.557  1.00  0.00     0.045 A 
HETATM   11  C   UNL     1     -43.390  55.463 -58.472  1.00  0.00     0.041 A 
ENDBRANCH   3   4
ENDBRANCH   2   3
BRANCH   2  12
HETATM   12  C   UNL     1     -42.180  56.833 -55.042  1.00  0.00     0.252 C 
HETATM   13  N   UNL     1     -42.379  55.466 -55.025  1.00  0.00    -0.309 N 
HETATM   14  H   UNL     1     -43.101  55.118 -55.647  1.00  0.00     0.170 HD
HETATM   15  O   UNL     1     -41.394  57.478 -54.354  1.00  0.00    -0.270 OA
BRANCH  13  16
HETATM   16  C   UNL     1     -41.705  54.543 -54.223  1.00  0.00     0.129 A 
HETATM   17  N   UNL     1     -41.946  54.471 -52.903  1.00  0.00    -0.242 NA
HETATM   18  C   UNL     1     -41.255  53.557 -52.180  1.00  0.00     0.142 A 
HETATM   19  C   UNL     1     -40.317  52.697 -52.724  1.00  0.00     0.051 A 
HETATM   20 CL   UNL     1     -39.477  51.564 -51.748  1.00  0.00    -0.083 Cl
HETATM   21  C   UNL     1     -40.073  52.777 -54.088  1.00  0.00     0.029 A 
HETATM   22  C   UNL     1     -40.776  53.713 -54.849  1.00  0.00     0.052 A 
ENDBRANCH  13  16
ENDBRANCH   2  12
TORSDOF 4
ENDMDL
MODEL 10
REMARK VINA RESULT:      -6.3     14.380     15.677
REMARK  4 active torsions:
REMARK  status: ('A' for Active; 'I' for Inactive)
REMARK    1  A    between atoms: C_2  and  O_3 
REMARK    2  A    between atoms: C_2  and  C_12 
REMARK    3  A    between atoms: O_3  and  C_4 
REMARK       I    between atoms: C_12  and  N_13 
REMARK    4  A    between atoms: N_13  and  C_14 
ROOT
HETATM    1  C   UNL     1     -37.637  39.680 -51.586  1.00  0.00     0.050 C 
HETATM    2  C   UNL     1     -36.334  40.434 -51.825  1.00  0.00     0.217 C 
ENDROOT
BRANCH   2   3
HETATM    3  O   UNL     1     -35.263  39.495 -51.977  1.00  0.00    -0.336 OA
BRANCH   3   4
HETATM    4  C   UNL     1     -34.194  39.538 -51.125  1.00  0.00     0.087 A 
HETATM    5  C   UNL     1     -32.949  39.864 -51.696  1.00  0.00     0.047 A 
HETATM    6 BR   UNL     1     -32.793  40.262 -53.551  1.00  0.00    -0.048 Br
HETATM    7  C   UNL     1     -31.793  39.915 -50.918  1.00  0.00     0.064 A 
HETATM    8  C   UNL     1     -31.879  39.635 -49.562  1.00  0.00     0.117 A 
HETATM    9  F   UNL     1     -30.774  39.680 -48.808  1.00  0.00    -0.206 F 
HETATM   10  C   UNL     1     -33.093  39.304 -48.976  1.00  0.00     0.045 A 
HETATM   11  C   UNL     1     -34.252  39.252 -49.756  1.00  0.00     0.041 A 
ENDBRANCH   3   4
ENDBRANCH   2   3
BRANCH   2  12
HETATM   12  C   UNL     1     -36.478  41.255 -53.123  1.00  0.00     0.252 C 
HETATM   13  N   UNL     1     -36.583  40.457 -54.247  1.00  0.00    -0.309 N 
HETATM   14  H   UNL     1     -36.500  39.459 -54.086  1.00  0.00     0.170 HD
HETATM   15  O   UNL     1     -36.509  42.482 -53.078  1.00  0.00    -0.270 OA
BRANCH  13  16
HETATM   16  C   UNL     1     -36.761  40.897 -55.559  1.00  0.00     0.129 A 
HETATM   17  N   UNL     1     -37.922  40.688 -56.205  1.00  0.00    -0.242 NA
HETATM   18  C   UNL     1     -38.028  41.135 -57.479  1.00  0.00     0.142 A 
HETATM   19  C   UNL     1     -37.012  41.791 -58.151  1.00  0.00     0.051 A 
HETATM   20 CL   UNL     1     -37.217  42.329 -59.767  1.00  0.00    -0.083 Cl
HETATM   21  C   UNL     1     -35.817  42.003 -57.479  1.00  0.00     0.029 A 
HETATM   22  C   UNL     1     -35.688  41.549 -56.164  1.00  0.00     0.052 A 
ENDBRANCH  13  16
ENDBRANCH   2  12
TORSDOF 4
ENDMDL
