MODEL 1
REMARK VINA RESULT:      -8.6      0.000      0.000
REMARK  4 active torsions:
REMARK  status: ('A' for Active; 'I' for Inactive)
REMARK    1  A    between atoms: C_5  and  C_6 
REMARK    2  A    between atoms: C_16  and  C_17 
REMARK       I    between atoms: C_17  and  N_18 
REMARK    3  A    between atoms: N_18  and  C_19 
REMARK    4  A    between atoms: C_20  and  O_21 
ROOT
HETATM    1  C   UNL     1     -43.712  56.871 -53.067  1.00  0.00     0.202 C 
HETATM    2  N   UNL     1     -44.251  58.109 -52.489  1.00  0.00    -0.083 N 
HETATM    3  C   UNL     1     -43.653  58.793 -51.473  1.00  0.00     0.726 A 
HETATM    4  N   UNL     1     -44.321  59.892 -51.229  1.00  0.00    -0.046 NA
HETATM    5  C   UNL     1     -45.369  59.814 -52.119  1.00  0.00     0.162 A 
HETATM    6  C   UNL     1     -46.388  60.877 -52.222  1.00  0.00     0.096 C 
HETATM    7  N   UNL     1     -45.394  58.712 -52.887  1.00  0.00    -0.141 NA
HETATM    8  N   UNL     1     -42.567  58.263 -50.886  1.00  0.00    -0.192 N 
HETATM    9  C   UNL     1     -42.152  56.951 -51.110  1.00  0.00     0.037 C 
HETATM   10  C   UNL     1     -41.066  56.471 -50.172  1.00  0.00     0.070 C 
HETATM   11  C   UNL     1     -42.704  56.214 -52.118  1.00  0.00     0.062 C 
HETATM   12  H   UNL     1     -42.194  58.733 -50.066  1.00  0.00     0.184 HD
ENDROOT
BRANCH  11  13
HETATM   13  C   UNL     1     -42.374  54.751 -52.269  1.00  0.00     0.256 C 
HETATM   14  N   UNL     1     -41.188  54.435 -52.895  1.00  0.00    -0.321 N 
HETATM   15  H   UNL     1     -40.625  55.141 -53.353  1.00  0.00     0.169 HD
HETATM   16  O   UNL     1     -43.185  53.905 -51.903  1.00  0.00    -0.267 OA
BRANCH  14  17
HETATM   17  C   UNL     1     -40.656  53.129 -53.071  1.00  0.00     0.068 A 
HETATM   18  C   UNL     1     -39.941  52.565 -51.995  1.00  0.00     0.095 A 
HETATM   19  C   UNL     1     -39.430  51.266 -52.099  1.00  0.00     0.039 A 
HETATM   20  C   UNL     1     -39.607  50.532 -53.273  1.00  0.00     0.003 A 
HETATM   21  C   UNL     1     -40.299  51.091 -54.343  1.00  0.00     0.002 A 
HETATM   22  C   UNL     1     -40.823  52.381 -54.242  1.00  0.00     0.032 A 
BRANCH  18  23
HETATM   23  O   UNL     1     -39.794  53.362 -50.882  1.00  0.00    -0.354 OA
HETATM   24  C   UNL     1     -40.410  52.868 -49.696  1.00  0.00     0.210 C 
ENDBRANCH  18  23
ENDBRANCH  14  17
ENDBRANCH  11  13
BRANCH   1  25
HETATM   25  C   UNL     1     -43.147  57.203 -54.455  1.00  0.00    -0.028 A 
HETATM   26  C   UNL     1     -42.552  58.442 -54.752  1.00  0.00     0.010 A 
HETATM   27  C   UNL     1     -42.157  58.755 -56.055  1.00  0.00     0.007 A 
HETATM   28  C   UNL     1     -42.352  57.845 -57.098  1.00  0.00    -0.062 A 
HETATM   29  C   UNL     1     -42.018  58.230 -58.509  1.00  0.00     0.048 C 
HETATM   30  C   UNL     1     -42.943  56.610 -56.815  1.00  0.00     0.007 A 
HETATM   31  C   UNL     1     -43.326  56.289 -55.510  1.00  0.00     0.010 A 
ENDBRANCH   1  25
TORSDOF 4
ENDMDL
MODEL 2
REMARK VINA RESULT:      -8.5      2.726      6.325
REMARK  4 active torsions:
REMARK  status: ('A' for Active; 'I' for Inactive)
REMARK    1  A    between atoms: C_5  and  C_6 
REMARK    2  A    between atoms: C_16  and  C_17 
REMARK       I    between atoms: C_17  and  N_18 
REMARK    3  A    between atoms: N_18  and  C_19 
REMARK    4  A    between atoms: C_20  and  O_21 
ROOT
HETATM    1  C   UNL     1     -41.776  57.448 -53.356  1.00  0.00     0.202 C 
HETATM    2  N   UNL     1     -41.074  58.139 -52.266  1.00  0.00    -0.083 N 
HETATM    3  C   UNL     1     -41.638  58.414 -51.057  1.00  0.00     0.726 A 
HETATM    4  N   UNL     1     -40.748  58.961 -50.269  1.00  0.00    -0.046 NA
HETATM    5  C   UNL     1     -39.635  59.038 -51.077  1.00  0.00     0.162 A 
HETATM    6  C   UNL     1     -38.350  59.576 -50.589  1.00  0.00     0.096 C 
HETATM    7  N   UNL     1     -39.799  58.584 -52.330  1.00  0.00    -0.141 NA
HETATM    8  N   UNL     1     -42.940  58.140 -50.871  1.00  0.00    -0.192 N 
HETATM    9  C   UNL     1     -43.796  57.796 -51.918  1.00  0.00     0.037 C 
HETATM   10  C   UNL     1     -45.262  57.773 -51.544  1.00  0.00     0.070 C 
HETATM   11  C   UNL     1     -43.294  57.500 -53.152  1.00  0.00     0.062 C 
HETATM   12  H   UNL     1     -43.370  58.443 -50.003  1.00  0.00     0.184 HD
ENDROOT
BRANCH  11  13
HETATM   13  C   UNL     1     -44.216  57.279 -54.323  1.00  0.00     0.256 C 
HETATM   14  N   UNL     1     -44.235  58.249 -55.301  1.00  0.00    -0.321 N 
HETATM   15  H   UNL     1     -43.755  59.132 -55.181  1.00  0.00     0.169 HD
HETATM   16  O   UNL     1     -44.959  56.300 -54.336  1.00  0.00    -0.267 OA
BRANCH  14  17
HETATM   17  C   UNL     1     -44.971  58.200 -56.516  1.00  0.00     0.068 A 
HETATM   18  C   UNL     1     -44.362  57.579 -57.624  1.00  0.00     0.095 A 
HETATM   19  C   UNL     1     -45.058  57.466 -58.834  1.00  0.00     0.039 A 
HETATM   20  C   UNL     1     -46.347  57.987 -58.955  1.00  0.00     0.003 A 
HETATM   21  C   UNL     1     -46.947  58.614 -57.867  1.00  0.00     0.002 A 
HETATM   22  C   UNL     1     -46.264  58.718 -56.654  1.00  0.00     0.032 A 
BRANCH  18  23
HETATM   23  O   UNL     1     -43.081  57.111 -57.428  1.00  0.00    -0.354 OA
HETATM   24  C   UNL     1     -42.938  55.693 -57.481  1.00  0.00     0.210 C 
ENDBRANCH  18  23
ENDBRANCH  14  17
ENDBRANCH  11  13
BRANCH   1  25
HETATM   25  C   UNL     1     -41.202  56.028 -53.465  1.00  0.00    -0.028 A 
HETATM   26  C   UNL     1     -40.625  55.536 -54.648  1.00  0.00     0.010 A 
HETATM   27  C   UNL     1     -40.221  54.202 -54.749  1.00  0.00     0.007 A 
HETATM   28  C   UNL     1     -40.389  53.322 -53.676  1.00  0.00    -0.062 A 
HETATM   29  C   UNL     1     -40.047  51.870 -53.830  1.00  0.00     0.048 C 
HETATM   30  C   UNL     1     -40.963  53.801 -52.495  1.00  0.00     0.007 A 
HETATM   31  C   UNL     1     -41.354  55.138 -52.386  1.00  0.00     0.010 A 
ENDBRANCH   1  25
TORSDOF 4
ENDMDL
MODEL 3
REMARK VINA RESULT:      -8.1      3.260      6.620
REMARK  4 active torsions:
REMARK  status: ('A' for Active; 'I' for Inactive)
REMARK    1  A    between atoms: C_5  and  C_6 
REMARK    2  A    between atoms: C_16  and  C_17 
REMARK       I    between atoms: C_17  and  N_18 
REMARK    3  A    between atoms: N_18  and  C_19 
REMARK    4  A    between atoms: C_20  and  O_21 
ROOT
HETATM    1  C   UNL     1     -41.382  57.469 -54.564  1.00  0.00     0.202 C 
HETATM    2  N   UNL     1     -41.211  58.227 -53.316  1.00  0.00    -0.083 N 
HETATM    3  C   UNL     1     -42.244  58.781 -52.620  1.00  0.00     0.726 A 
HETATM    4  N   UNL     1     -41.792  59.320 -51.517  1.00  0.00    -0.046 NA
HETATM    5  C   UNL     1     -40.435  59.098 -51.604  1.00  0.00     0.162 A 
HETATM    6  C   UNL     1     -39.503  59.521 -50.540  1.00  0.00     0.096 C 
HETATM    7  N   UNL     1     -40.024  58.466 -52.716  1.00  0.00    -0.141 NA
HETATM    8  N   UNL     1     -43.479  58.731 -53.145  1.00  0.00    -0.192 N 
HETATM    9  C   UNL     1     -43.726  58.342 -54.461  1.00  0.00     0.037 C 
HETATM   10  C   UNL     1     -45.142  58.593 -54.931  1.00  0.00     0.070 C 
HETATM   11  C   UNL     1     -42.737  57.772 -55.211  1.00  0.00     0.062 C 
HETATM   12  H   UNL     1     -44.219  59.236 -52.665  1.00  0.00     0.184 HD
ENDROOT
BRANCH  11  13
HETATM   13  C   UNL     1     -42.950  57.491 -56.676  1.00  0.00     0.256 C 
HETATM   14  N   UNL     1     -43.911  56.562 -57.006  1.00  0.00    -0.321 N 
HETATM   15  H   UNL     1     -44.364  55.994 -56.300  1.00  0.00     0.169 HD
HETATM   16  O   UNL     1     -42.227  58.033 -57.508  1.00  0.00    -0.267 OA
BRANCH  14  17
HETATM   17  C   UNL     1     -44.319  56.209 -58.321  1.00  0.00     0.068 A 
HETATM   18  C   UNL     1     -45.260  57.042 -58.958  1.00  0.00     0.095 A 
HETATM   19  C   UNL     1     -45.666  56.764 -60.270  1.00  0.00     0.039 A 
HETATM   20  C   UNL     1     -45.158  55.651 -60.942  1.00  0.00     0.003 A 
HETATM   21  C   UNL     1     -44.240  54.818 -60.310  1.00  0.00     0.002 A 
HETATM   22  C   UNL     1     -43.821  55.096 -59.008  1.00  0.00     0.032 A 
BRANCH  18  23
HETATM   23  O   UNL     1     -45.726  58.106 -58.219  1.00  0.00    -0.354 OA
HETATM   24  C   UNL     1     -45.481  59.392 -58.784  1.00  0.00     0.210 C 
ENDBRANCH  18  23
ENDBRANCH  14  17
ENDBRANCH  11  13
BRANCH   1  25
HETATM   25  C   UNL     1     -41.149  55.984 -54.252  1.00  0.00    -0.028 A 
HETATM   26  C   UNL     1     -41.458  55.418 -53.003  1.00  0.00     0.010 A 
HETATM   27  C   UNL     1     -41.124  54.092 -52.713  1.00  0.00     0.007 A 
HETATM   28  C   UNL     1     -40.465  53.300 -53.658  1.00  0.00    -0.062 A 
HETATM   29  C   UNL     1     -40.020  51.913 -53.300  1.00  0.00     0.048 C 
HETATM   30  C   UNL     1     -40.151  53.853 -54.902  1.00  0.00     0.007 A 
HETATM   31  C   UNL     1     -40.498  55.174 -55.200  1.00  0.00     0.010 A 
ENDBRANCH   1  25
TORSDOF 4
ENDMDL
MODEL 4
REMARK VINA RESULT:      -7.9      2.925      5.109
REMARK  4 active torsions:
REMARK  status: ('A' for Active; 'I' for Inactive)
REMARK    1  A    between atoms: C_5  and  C_6 
REMARK    2  A    between atoms: C_16  and  C_17 
REMARK       I    between atoms: C_17  and  N_18 
REMARK    3  A    between atoms: N_18  and  C_19 
REMARK    4  A    between atoms: C_20  and  O_21 
ROOT
HETATM    1  C   UNL     1     -42.224  58.233 -56.078  1.00  0.00     0.202 C 
HETATM    2  N   UNL     1     -41.999  59.224 -57.140  1.00  0.00    -0.083 N 
HETATM    3  C   UNL     1     -42.403  59.056 -58.430  1.00  0.00     0.726 A 
HETATM    4  N   UNL     1     -42.135  60.135 -59.120  1.00  0.00    -0.046 NA
HETATM    5  C   UNL     1     -41.513  60.941 -58.193  1.00  0.00     0.162 A 
HETATM    6  C   UNL     1     -41.050  62.303 -58.525  1.00  0.00     0.096 C 
HETATM    7  N   UNL     1     -41.367  60.407 -56.969  1.00  0.00    -0.141 NA
HETATM    8  N   UNL     1     -42.945  57.881 -58.792  1.00  0.00    -0.192 N 
HETATM    9  C   UNL     1     -42.912  56.751 -57.975  1.00  0.00     0.037 C 
HETATM   10  C   UNL     1     -43.348  55.474 -58.659  1.00  0.00     0.070 C 
HETATM   11  C   UNL     1     -42.525  56.852 -56.670  1.00  0.00     0.062 C 
HETATM   12  H   UNL     1     -43.147  57.735 -59.776  1.00  0.00     0.184 HD
ENDROOT
BRANCH  11  13
HETATM   13  C   UNL     1     -42.339  55.618 -55.826  1.00  0.00     0.256 C 
HETATM   14  N   UNL     1     -41.091  55.410 -55.280  1.00  0.00    -0.321 N 
HETATM   15  H   UNL     1     -40.298  55.984 -55.538  1.00  0.00     0.169 HD
HETATM   16  O   UNL     1     -43.262  54.815 -55.712  1.00  0.00    -0.267 OA
BRANCH  14  17
HETATM   17  C   UNL     1     -40.726  54.357 -54.399  1.00  0.00     0.068 A 
HETATM   18  C   UNL     1     -40.806  54.607 -53.015  1.00  0.00     0.095 A 
HETATM   19  C   UNL     1     -40.497  53.592 -52.101  1.00  0.00     0.039 A 
HETATM   20  C   UNL     1     -40.089  52.337 -52.556  1.00  0.00     0.003 A 
HETATM   21  C   UNL     1     -39.995  52.090 -53.922  1.00  0.00     0.002 A 
HETATM   22  C   UNL     1     -40.314  53.094 -54.838  1.00  0.00     0.032 A 
BRANCH  18  23
HETATM   23  O   UNL     1     -41.195  55.877 -52.650  1.00  0.00    -0.354 OA
HETATM   24  C   UNL     1     -42.377  55.944 -51.854  1.00  0.00     0.210 C 
ENDBRANCH  18  23
ENDBRANCH  14  17
ENDBRANCH  11  13
BRANCH   1  25
HETATM   25  C   UNL     1     -43.320  58.775 -55.150  1.00  0.00    -0.028 A 
HETATM   26  C   UNL     1     -44.575  59.192 -55.627  1.00  0.00     0.010 A 
HETATM   27  C   UNL     1     -45.505  59.790 -54.772  1.00  0.00     0.007 A 
HETATM   28  C   UNL     1     -45.205  59.995 -53.422  1.00  0.00    -0.062 A 
HETATM   29  C   UNL     1     -46.169  60.730 -52.538  1.00  0.00     0.048 C 
HETATM   30  C   UNL     1     -43.960  59.585 -52.938  1.00  0.00     0.007 A 
HETATM   31  C   UNL     1     -43.034  58.974 -53.787  1.00  0.00     0.010 A 
ENDBRANCH   1  25
TORSDOF 4
ENDMDL
MODEL 5
REMARK VINA RESULT:      -7.8      1.212      2.110
REMARK  4 active torsions:
REMARK  status: ('A' for Active; 'I' for Inactive)
REMARK    1  A    between atoms: C_5  and  C_6 
REMARK    2  A    between atoms: C_16  and  C_17 
REMARK       I    between atoms: C_17  and  N_18 
REMARK    3  A    between atoms: N_18  and  C_19 
REMARK    4  A    between atoms: C_20  and  O_21 
ROOT
HETATM    1  C   UNL     1     -43.976  57.716 -52.751  1.00  0.00     0.202 C 
HETATM    2  N   UNL     1     -44.439  58.953 -52.107  1.00  0.00    -0.083 N 
HETATM    3  C   UNL     1     -43.718  59.636 -51.174  1.00  0.00     0.726 A 
HETATM    4  N   UNL     1     -44.350  60.734 -50.846  1.00  0.00    -0.046 NA
HETATM    5  C   UNL     1     -45.502  60.657 -51.596  1.00  0.00     0.162 A 
HETATM    6  C   UNL     1     -46.527  61.719 -51.568  1.00  0.00     0.096 C 
HETATM    7  N   UNL     1     -45.623  59.556 -52.357  1.00  0.00    -0.141 NA
HETATM    8  N   UNL     1     -42.566  59.106 -50.729  1.00  0.00    -0.192 N 
HETATM    9  C   UNL     1     -42.182  57.794 -51.006  1.00  0.00     0.037 C 
HETATM   10  C   UNL     1     -40.986  57.314 -50.213  1.00  0.00     0.070 C 
HETATM   11  C   UNL     1     -42.856  57.058 -51.938  1.00  0.00     0.062 C 
HETATM   12  H   UNL     1     -42.093  59.575 -49.962  1.00  0.00     0.184 HD
ENDROOT
BRANCH  11  13
HETATM   13  C   UNL     1     -42.547  55.597 -52.132  1.00  0.00     0.256 C 
HETATM   14  N   UNL     1     -41.338  55.280 -52.710  1.00  0.00    -0.321 N 
HETATM   15  H   UNL     1     -40.739  55.992 -53.110  1.00  0.00     0.169 HD
HETATM   16  O   UNL     1     -43.392  54.754 -51.841  1.00  0.00    -0.267 OA
BRANCH  14  17
HETATM   17  C   UNL     1     -40.822  53.971 -52.913  1.00  0.00     0.068 A 
HETATM   18  C   UNL     1     -40.905  53.431 -54.211  1.00  0.00     0.095 A 
HETATM   19  C   UNL     1     -40.376  52.161 -54.476  1.00  0.00     0.039 A 
HETATM   20  C   UNL     1     -39.786  51.418 -53.452  1.00  0.00     0.003 A 
HETATM   21  C   UNL     1     -39.715  51.942 -52.165  1.00  0.00     0.002 A 
HETATM   22  C   UNL     1     -40.229  53.213 -51.898  1.00  0.00     0.032 A 
BRANCH  18  23
HETATM   23  O   UNL     1     -41.521  54.219 -55.157  1.00  0.00    -0.354 OA
HETATM   24  C   UNL     1     -42.891  53.912 -55.404  1.00  0.00     0.210 C 
ENDBRANCH  18  23
ENDBRANCH  14  17
ENDBRANCH  11  13
BRANCH   1  25
HETATM   25  C   UNL     1     -43.591  58.051 -54.199  1.00  0.00    -0.028 A 
HETATM   26  C   UNL     1     -44.139  57.372 -55.302  1.00  0.00     0.010 A 
HETATM   27  C   UNL     1     -43.679  57.620 -56.598  1.00  0.00     0.007 A 
HETATM   28  C   UNL     1     -42.656  58.543 -56.828  1.00  0.00    -0.062 A 
HETATM   29  C   UNL     1     -42.100  58.726 -58.209  1.00  0.00     0.048 C 
HETATM   30  C   UNL     1     -42.103  59.223 -55.738  1.00  0.00     0.007 A 
HETATM   31  C   UNL     1     -42.571  58.988 -54.443  1.00  0.00     0.010 A 
ENDBRANCH   1  25
TORSDOF 4
ENDMDL
MODEL 6
REMARK VINA RESULT:      -7.8      2.410      7.505
REMARK  4 active torsions:
REMARK  status: ('A' for Active; 'I' for Inactive)
REMARK    1  A    between atoms: C_5  and  C_6 
REMARK    2  A    between atoms: C_16  and  C_17 
REMARK       I    between atoms: C_17  and  N_18 
REMARK    3  A    between atoms: N_18  and  C_19 
REMARK    4  A    between atoms: C_20  and  O_21 
ROOT
HETATM    1  C   UNL     1     -42.475  55.995 -53.499  1.00  0.00     0.202 C 
HETATM    2  N   UNL     1     -41.673  54.831 -53.903  1.00  0.00    -0.083 N 
HETATM    3  C   UNL     1     -41.200  54.640 -55.166  1.00  0.00     0.726 A 
HETATM    4  N   UNL     1     -40.458  53.562 -55.200  1.00  0.00    -0.046 NA
HETATM    5  C   UNL     1     -40.543  53.095 -53.907  1.00  0.00     0.162 A 
HETATM    6  C   UNL     1     -39.822  51.885 -53.464  1.00  0.00     0.096 C 
HETATM    7  N   UNL     1     -41.316  53.819 -53.081  1.00  0.00    -0.141 NA
HETATM    8  N   UNL     1     -41.565  55.499 -56.132  1.00  0.00    -0.192 N 
HETATM    9  C   UNL     1     -42.577  56.443 -55.961  1.00  0.00     0.037 C 
HETATM   10  C   UNL     1     -43.005  57.137 -57.235  1.00  0.00     0.070 C 
HETATM   11  C   UNL     1     -43.089  56.689 -54.719  1.00  0.00     0.062 C 
HETATM   12  H   UNL     1     -41.287  55.286 -57.086  1.00  0.00     0.184 HD
ENDROOT
BRANCH  11  13
HETATM   13  C   UNL     1     -44.284  57.591 -54.547  1.00  0.00     0.256 C 
HETATM   14  N   UNL     1     -44.054  58.848 -54.033  1.00  0.00    -0.321 N 
HETATM   15  H   UNL     1     -43.150  59.112 -53.661  1.00  0.00     0.169 HD
HETATM   16  O   UNL     1     -45.408  57.164 -54.797  1.00  0.00    -0.267 OA
BRANCH  14  17
HETATM   17  C   UNL     1     -45.024  59.874 -53.862  1.00  0.00     0.068 A 
HETATM   18  C   UNL     1     -45.674  59.956 -52.615  1.00  0.00     0.095 A 
HETATM   19  C   UNL     1     -46.609  60.972 -52.379  1.00  0.00     0.039 A 
HETATM   20  C   UNL     1     -46.915  61.893 -53.383  1.00  0.00     0.003 A 
HETATM   21  C   UNL     1     -46.286  61.806 -54.620  1.00  0.00     0.002 A 
HETATM   22  C   UNL     1     -45.344  60.803 -54.858  1.00  0.00     0.032 A 
BRANCH  18  23
HETATM   23  O   UNL     1     -45.331  58.998 -51.688  1.00  0.00    -0.354 OA
HETATM   24  C   UNL     1     -45.569  59.355 -50.329  1.00  0.00     0.210 C 
ENDBRANCH  18  23
ENDBRANCH  14  17
ENDBRANCH  11  13
BRANCH   1  25
HETATM   25  C   UNL     1     -41.589  56.903 -52.635  1.00  0.00    -0.028 A 
HETATM   26  C   UNL     1     -41.682  56.935 -51.233  1.00  0.00     0.010 A 
HETATM   27  C   UNL     1     -40.946  57.858 -50.485  1.00  0.00     0.007 A 
HETATM   28  C   UNL     1     -40.106  58.780 -51.117  1.00  0.00    -0.062 A 
HETATM   29  C   UNL     1     -39.401  59.832 -50.313  1.00  0.00     0.048 C 
HETATM   30  C   UNL     1     -40.007  58.758 -52.511  1.00  0.00     0.007 A 
HETATM   31  C   UNL     1     -40.730  57.826 -53.259  1.00  0.00     0.010 A 
ENDBRANCH   1  25
TORSDOF 4
ENDMDL
MODEL 7
REMARK VINA RESULT:      -7.8      2.802      6.376
REMARK  4 active torsions:
REMARK  status: ('A' for Active; 'I' for Inactive)
REMARK    1  A    between atoms: C_5  and  C_6 
REMARK    2  A    between atoms: C_16  and  C_17 
REMARK       I    between atoms: C_17  and  N_18 
REMARK    3  A    between atoms: N_18  and  C_19 
REMARK    4  A    between atoms: C_20  and  O_21 
ROOT
HETATM    1  C   UNL     1     -42.405  55.321 -52.039  1.00  0.00     0.202 C 
HETATM    2  N   UNL     1     -41.615  54.610 -51.023  1.00  0.00    -0.083 N 
HETATM    3  C   UNL     1     -40.426  53.997 -51.282  1.00  0.00     0.726 A 
HETATM    4  N   UNL     1     -39.924  53.522 -50.171  1.00  0.00    -0.046 NA
HETATM    5  C   UNL     1     -40.888  53.844 -49.241  1.00  0.00     0.162 A 
HETATM    6  C   UNL     1     -40.732  53.521 -47.809  1.00  0.00     0.096 C 
HETATM    7  N   UNL     1     -41.969  54.477 -49.725  1.00  0.00    -0.141 NA
HETATM    8  N   UNL     1     -39.990  53.938 -52.551  1.00  0.00    -0.192 N 
HETATM    9  C   UNL     1     -40.792  54.274 -53.642  1.00  0.00     0.037 C 
HETATM   10  C   UNL     1     -40.204  53.903 -54.986  1.00  0.00     0.070 C 
HETATM   11  C   UNL     1     -41.990  54.899 -53.452  1.00  0.00     0.062 C 
HETATM   12  H   UNL     1     -39.155  53.391 -52.741  1.00  0.00     0.184 HD
ENDROOT
BRANCH  11  13
HETATM   13  C   UNL     1     -42.929  55.125 -54.609  1.00  0.00     0.256 C 
HETATM   14  N   UNL     1     -42.533  56.023 -55.576  1.00  0.00    -0.321 N 
HETATM   15  H   UNL     1     -41.713  56.605 -55.454  1.00  0.00     0.169 HD
HETATM   16  O   UNL     1     -44.026  54.571 -54.618  1.00  0.00    -0.267 OA
BRANCH  14  17
HETATM   17  C   UNL     1     -43.230  56.323 -56.777  1.00  0.00     0.068 A 
HETATM   18  C   UNL     1     -43.984  57.512 -56.815  1.00  0.00     0.095 A 
HETATM   19  C   UNL     1     -44.657  57.878 -57.987  1.00  0.00     0.039 A 
HETATM   20  C   UNL     1     -44.603  57.056 -59.114  1.00  0.00     0.003 A 
HETATM   21  C   UNL     1     -43.872  55.873 -59.076  1.00  0.00     0.002 A 
HETATM   22  C   UNL     1     -43.187  55.509 -57.915  1.00  0.00     0.032 A 
BRANCH  18  23
HETATM   23  O   UNL     1     -44.002  58.255 -55.655  1.00  0.00    -0.354 OA
HETATM   24  C   UNL     1     -45.260  58.300 -54.984  1.00  0.00     0.210 C 
ENDBRANCH  18  23
ENDBRANCH  14  17
ENDBRANCH  11  13
BRANCH   1  25
HETATM   25  C   UNL     1     -42.280  56.826 -51.768  1.00  0.00    -0.028 A 
HETATM   26  C   UNL     1     -41.062  57.430 -51.408  1.00  0.00     0.010 A 
HETATM   27  C   UNL     1     -41.008  58.781 -51.053  1.00  0.00     0.007 A 
HETATM   28  C   UNL     1     -42.167  59.562 -51.039  1.00  0.00    -0.062 A 
HETATM   29  C   UNL     1     -42.115  60.982 -50.557  1.00  0.00     0.048 C 
HETATM   30  C   UNL     1     -43.383  58.971 -51.393  1.00  0.00     0.007 A 
HETATM   31  C   UNL     1     -43.438  57.625 -51.763  1.00  0.00     0.010 A 
ENDBRANCH   1  25
TORSDOF 4
ENDMDL
MODEL 8
REMARK VINA RESULT:      -7.6      2.608      7.777
REMARK  4 active torsions:
REMARK  status: ('A' for Active; 'I' for Inactive)
REMARK    1  A    between atoms: C_5  and  C_6 
REMARK    2  A    between atoms: C_16  and  C_17 
REMARK       I    between atoms: C_17  and  N_18 
REMARK    3  A    between atoms: N_18  and  C_19 
REMARK    4  A    between atoms: C_20  and  O_21 
ROOT
HETATM    1  C   UNL     1     -42.454  56.024 -53.456  1.00  0.00     0.202 C 
HETATM    2  N   UNL     1     -41.657  54.874 -53.907  1.00  0.00    -0.083 N 
HETATM    3  C   UNL     1     -41.224  54.710 -55.189  1.00  0.00     0.726 A 
HETATM    4  N   UNL     1     -40.475  53.640 -55.266  1.00  0.00    -0.046 NA
HETATM    5  C   UNL     1     -40.513  53.149 -53.980  1.00  0.00     0.162 A 
HETATM    6  C   UNL     1     -39.769  51.937 -53.584  1.00  0.00     0.096 C 
HETATM    7  N   UNL     1     -41.264  53.851 -53.116  1.00  0.00    -0.141 NA
HETATM    8  N   UNL     1     -41.628  55.583 -56.126  1.00  0.00    -0.192 N 
HETATM    9  C   UNL     1     -42.641  56.516 -55.904  1.00  0.00     0.037 C 
HETATM   10  C   UNL     1     -43.118  57.229 -57.150  1.00  0.00     0.070 C 
HETATM   11  C   UNL     1     -43.114  56.735 -54.642  1.00  0.00     0.062 C 
HETATM   12  H   UNL     1     -41.381  55.390 -57.092  1.00  0.00     0.184 HD
ENDROOT
BRANCH  11  13
HETATM   13  C   UNL     1     -44.309  57.623 -54.413  1.00  0.00     0.256 C 
HETATM   14  N   UNL     1     -44.074  58.870 -53.876  1.00  0.00    -0.321 N 
HETATM   15  H   UNL     1     -43.161  59.132 -53.526  1.00  0.00     0.169 HD
HETATM   16  O   UNL     1     -45.437  57.193 -54.641  1.00  0.00    -0.267 OA
BRANCH  14  17
HETATM   17  C   UNL     1     -45.045  59.883 -53.654  1.00  0.00     0.068 A 
HETATM   18  C   UNL     1     -45.303  60.783 -54.707  1.00  0.00     0.095 A 
HETATM   19  C   UNL     1     -46.279  61.776 -54.556  1.00  0.00     0.039 A 
HETATM   20  C   UNL     1     -46.984  61.893 -53.357  1.00  0.00     0.003 A 
HETATM   21  C   UNL     1     -46.722  61.015 -52.310  1.00  0.00     0.002 A 
HETATM   22  C   UNL     1     -45.759  60.015 -52.458  1.00  0.00     0.032 A 
BRANCH  18  23
HETATM   23  O   UNL     1     -44.549  60.613 -55.847  1.00  0.00    -0.354 OA
HETATM   24  C   UNL     1     -45.291  60.303 -57.024  1.00  0.00     0.210 C 
ENDBRANCH  18  23
ENDBRANCH  14  17
ENDBRANCH  11  13
BRANCH   1  25
HETATM   25  C   UNL     1     -41.547  56.924 -52.605  1.00  0.00    -0.028 A 
HETATM   26  C   UNL     1     -41.603  56.940 -51.200  1.00  0.00     0.010 A 
HETATM   27  C   UNL     1     -40.849  57.857 -50.462  1.00  0.00     0.007 A 
HETATM   28  C   UNL     1     -40.027  58.786 -51.105  1.00  0.00    -0.062 A 
HETATM   29  C   UNL     1     -39.302  59.830 -50.309  1.00  0.00     0.048 C 
HETATM   30  C   UNL     1     -39.965  58.780 -52.501  1.00  0.00     0.007 A 
HETATM   31  C   UNL     1     -40.706  57.855 -53.241  1.00  0.00     0.010 A 
ENDBRANCH   1  25
TORSDOF 4
ENDMDL
MODEL 9
REMARK VINA RESULT:      -7.5      2.731      5.008
REMARK  4 active torsions:
REMARK  status: ('A' for Active; 'I' for Inactive)
REMARK    1  A    between atoms: C_5  and  C_6 
REMARK    2  A    between atoms: C_16  and  C_17 
REMARK       I    between atoms: C_17  and  N_18 
REMARK    3  A    between atoms: N_18  and  C_19 
REMARK    4  A    between atoms: C_20  and  O_21 
ROOT
HETATM    1  C   UNL     1     -41.976  57.612 -56.004  1.00  0.00     0.202 C 
HETATM    2  N   UNL     1     -42.488  57.791 -57.369  1.00  0.00    -0.083 N 
HETATM    3  C   UNL     1     -43.319  56.905 -57.988  1.00  0.00     0.726 A 
HETATM    4  N   UNL     1     -43.667  57.372 -59.159  1.00  0.00    -0.046 NA
HETATM    5  C   UNL     1     -42.974  58.560 -59.231  1.00  0.00     0.162 A 
HETATM    6  C   UNL     1     -43.087  59.462 -60.394  1.00  0.00     0.096 C 
HETATM    7  N   UNL     1     -42.200  58.841 -58.170  1.00  0.00    -0.141 NA
HETATM    8  N   UNL     1     -43.610  55.749 -57.369  1.00  0.00    -0.192 N 
HETATM    9  C   UNL     1     -42.934  55.310 -56.231  1.00  0.00     0.037 C 
HETATM   10  C   UNL     1     -43.235  53.881 -55.838  1.00  0.00     0.070 C 
HETATM   11  C   UNL     1     -42.094  56.151 -55.559  1.00  0.00     0.062 C 
HETATM   12  H   UNL     1     -44.147  55.057 -57.884  1.00  0.00     0.184 HD
ENDROOT
BRANCH  11  13
HETATM   13  C   UNL     1     -41.244  55.641 -54.424  1.00  0.00     0.256 C 
HETATM   14  N   UNL     1     -41.872  55.416 -53.219  1.00  0.00    -0.321 N 
HETATM   15  H   UNL     1     -42.829  55.703 -53.058  1.00  0.00     0.169 HD
HETATM   16  O   UNL     1     -40.032  55.513 -54.583  1.00  0.00    -0.267 OA
BRANCH  14  17
HETATM   17  C   UNL     1     -41.274  54.868 -52.052  1.00  0.00     0.068 A 
HETATM   18  C   UNL     1     -40.946  53.498 -52.068  1.00  0.00     0.095 A 
HETATM   19  C   UNL     1     -40.318  52.915 -50.960  1.00  0.00     0.039 A 
HETATM   20  C   UNL     1     -40.034  53.682 -49.829  1.00  0.00     0.003 A 
HETATM   21  C   UNL     1     -40.369  55.032 -49.804  1.00  0.00     0.002 A 
HETATM   22  C   UNL     1     -40.983  55.622 -50.909  1.00  0.00     0.032 A 
BRANCH  18  23
HETATM   23  O   UNL     1     -41.279  52.809 -53.213  1.00  0.00    -0.354 OA
HETATM   24  C   UNL     1     -40.232  52.019 -53.772  1.00  0.00     0.210 C 
ENDBRANCH  18  23
ENDBRANCH  14  17
ENDBRANCH  11  13
BRANCH   1  25
HETATM   25  C   UNL     1     -42.701  58.610 -55.091  1.00  0.00    -0.028 A 
HETATM   26  C   UNL     1     -42.062  59.738 -54.547  1.00  0.00     0.010 A 
HETATM   27  C   UNL     1     -42.717  60.560 -53.626  1.00  0.00     0.007 A 
HETATM   28  C   UNL     1     -44.022  60.274 -53.216  1.00  0.00    -0.062 A 
HETATM   29  C   UNL     1     -44.678  61.102 -52.151  1.00  0.00     0.048 C 
HETATM   30  C   UNL     1     -44.667  59.154 -53.749  1.00  0.00     0.007 A 
HETATM   31  C   UNL     1     -44.020  58.340 -54.682  1.00  0.00     0.010 A 
ENDBRANCH   1  25
TORSDOF 4
ENDMDL
MODEL 10
REMARK VINA RESULT:      -7.5      2.779      5.202
REMARK  4 active torsions:
REMARK  status: ('A' for Active; 'I' for Inactive)
REMARK    1  A    between atoms: C_5  and  C_6 
REMARK    2  A    between atoms: C_16  and  C_17 
REMARK       I    between atoms: C_17  and  N_18 
REMARK    3  A    between atoms: N_18  and  C_19 
REMARK    4  A    between atoms: C_20  and  O_21 
ROOT
HETATM    1  C   UNL     1     -42.068  57.427 -55.862  1.00  0.00     0.202 C 
HETATM    2  N   UNL     1     -42.446  57.540 -57.277  1.00  0.00    -0.083 N 
HETATM    3  C   UNL     1     -43.190  56.609 -57.938  1.00  0.00     0.726 A 
HETATM    4  N   UNL     1     -43.431  57.022 -59.156  1.00  0.00    -0.046 NA
HETATM    5  C   UNL     1     -42.762  58.224 -59.207  1.00  0.00     0.162 A 
HETATM    6  C   UNL     1     -42.779  59.078 -60.411  1.00  0.00     0.096 C 
HETATM    7  N   UNL     1     -42.103  58.567 -58.088  1.00  0.00    -0.141 NA
HETATM    8  N   UNL     1     -43.515  55.470 -57.304  1.00  0.00    -0.192 N 
HETATM    9  C   UNL     1     -42.945  55.093 -56.088  1.00  0.00     0.037 C 
HETATM   10  C   UNL     1     -43.251  53.672 -55.669  1.00  0.00     0.070 C 
HETATM   11  C   UNL     1     -42.196  55.981 -55.371  1.00  0.00     0.062 C 
HETATM   12  H   UNL     1     -43.981  54.745 -57.842  1.00  0.00     0.184 HD
ENDROOT
BRANCH  11  13
HETATM   13  C   UNL     1     -41.451  55.538 -54.139  1.00  0.00     0.256 C 
HETATM   14  N   UNL     1     -42.157  55.504 -52.956  1.00  0.00    -0.321 N 
HETATM   15  H   UNL     1     -43.093  55.883 -52.886  1.00  0.00     0.169 HD
HETATM   16  O   UNL     1     -40.249  55.296 -54.210  1.00  0.00    -0.267 OA
BRANCH  14  17
HETATM   17  C   UNL     1     -41.668  55.047 -51.702  1.00  0.00     0.068 A 
HETATM   18  C   UNL     1     -41.628  55.973 -50.641  1.00  0.00     0.095 A 
HETATM   19  C   UNL     1     -41.194  55.566 -49.373  1.00  0.00     0.039 A 
HETATM   20  C   UNL     1     -40.779  54.251 -49.160  1.00  0.00     0.003 A 
HETATM   21  C   UNL     1     -40.804  53.337 -50.209  1.00  0.00     0.002 A 
HETATM   22  C   UNL     1     -41.248  53.732 -51.472  1.00  0.00     0.032 A 
BRANCH  18  23
HETATM   23  O   UNL     1     -42.033  57.255 -50.939  1.00  0.00    -0.354 OA
HETATM   24  C   UNL     1     -41.049  58.266 -50.733  1.00  0.00     0.210 C 
ENDBRANCH  18  23
ENDBRANCH  14  17
ENDBRANCH  11  13
BRANCH   1  25
HETATM   25  C   UNL     1     -42.904  58.440 -55.066  1.00  0.00    -0.028 A 
HETATM   26  C   UNL     1     -44.306  58.370 -54.994  1.00  0.00     0.010 A 
HETATM   27  C   UNL     1     -45.044  59.374 -54.361  1.00  0.00     0.007 A 
HETATM   28  C   UNL     1     -44.403  60.478 -53.791  1.00  0.00    -0.062 A 
HETATM   29  C   UNL     1     -45.209  61.598 -53.205  1.00  0.00     0.048 C 
HETATM   30  C   UNL     1     -43.009  60.558 -53.858  1.00  0.00     0.007 A 
HETATM   31  C   UNL     1     -42.269  59.548 -54.477  1.00  0.00     0.010 A 
ENDBRANCH   1  25
TORSDOF 4
ENDMDL
