MODEL 1
REMARK VINA RESULT:      -7.9      0.000      0.000
REMARK  10 active torsions:
REMARK  status: ('A' for Active; 'I' for Inactive)
REMARK    1  A    between atoms: C_2  and  C_3 
REMARK    2  A    between atoms: C_3  and  C_4 
REMARK    3  A    between atoms: C_4  and  N_5 
REMARK    4  A    between atoms: N_5  and  C_7 
REMARK    5  A    between atoms: C_7  and  C_8 
REMARK    6  A    between atoms: C_8  and  C_9 
REMARK    7  A    between atoms: C_9  and  N_10 
REMARK       I    between atoms: N_10  and  C_11 
REMARK    8  A    between atoms: C_11  and  C_12 
REMARK    9  A    between atoms: C_12  and  O_13 
REMARK   10  A    between atoms: N_14  and  C_15 
ROOT
HETATM    1  C   UNL     1     -41.578  55.855 -53.766  1.00  0.00     0.256 C 
HETATM    2  N   UNL     1     -41.712  54.752 -52.796  1.00  0.00    -0.254 N 
HETATM    3  C   UNL     1     -42.710  54.851 -51.830  1.00  0.00     0.330 C 
HETATM    4  O   UNL     1     -43.281  53.895 -51.301  1.00  0.00    -0.246 OA
HETATM    5  N   UNL     1     -43.135  56.100 -51.486  1.00  0.00    -0.308 N 
HETATM    6  C   UNL     1     -42.655  57.283 -52.025  1.00  0.00     0.048 A 
HETATM    7  C   UNL     1     -41.840  57.219 -53.149  1.00  0.00     0.034 A 
HETATM    8  C   UNL     1     -43.011  58.504 -51.450  1.00  0.00     0.030 A 
HETATM    9  C   UNL     1     -42.533  59.691 -52.000  1.00  0.00     0.002 A 
HETATM   10  C   UNL     1     -41.714  59.651 -53.126  1.00  0.00     0.001 A 
HETATM   11  C   UNL     1     -41.375  58.425 -53.701  1.00  0.00     0.015 A 
HETATM   12  H   UNL     1     -43.758  56.130 -50.688  1.00  0.00     0.170 HD
ENDROOT
BRANCH   1  13
HETATM   13  C   UNL     1     -42.591  55.637 -54.975  1.00  0.00     0.279 C 
HETATM   14  N   UNL     1     -42.067  55.738 -56.261  1.00  0.00    -0.356 N 
HETATM   15  H   UNL     1     -41.240  56.329 -56.321  1.00  0.00     0.162 HD
HETATM   16  O   UNL     1     -43.779  55.371 -54.781  1.00  0.00    -0.268 OA
BRANCH  14  17
HETATM   17  C   UNL     1     -42.945  55.690 -57.410  1.00  0.00     0.124 C 
BRANCH  17  18
HETATM   18  C   UNL     1     -43.134  57.069 -58.034  1.00  0.00     0.047 C 
BRANCH  18  19
HETATM   19  C   UNL     1     -44.417  57.731 -57.539  1.00  0.00     0.236 C 
BRANCH  19  20
HETATM   20  N   UNL     1     -45.648  57.292 -58.317  1.00  0.00    -0.075 N 
HETATM   21  H   UNL     1     -45.777  56.301 -58.075  1.00  0.00     0.279 HD
HETATM   22  C   UNL     1     -46.910  57.964 -57.835  1.00  0.00     0.269 C 
BRANCH  20  23
HETATM   23  C   UNL     1     -45.541  57.342 -59.827  1.00  0.00     0.234 C 
BRANCH  23  24
HETATM   24  C   UNL     1     -46.021  56.061 -60.506  1.00  0.00     0.027 C 
BRANCH  24  25
HETATM   25  C   UNL     1     -44.896  55.075 -60.820  1.00  0.00    -0.003 C 
HETATM   26  C   UNL     1     -44.857  53.935 -59.812  1.00  0.00     0.005 C 
ENDBRANCH  24  25
ENDBRANCH  23  24
ENDBRANCH  20  23
ENDBRANCH  19  20
ENDBRANCH  18  19
ENDBRANCH  17  18
ENDBRANCH  14  17
ENDBRANCH   1  13
BRANCH   1  27
HETATM   27  O   UNL     1     -40.240  55.891 -54.262  1.00  0.00    -0.359 OA
HETATM   28  H   UNL     1     -39.748  55.221 -53.755  1.00  0.00     0.213 HD
ENDBRANCH   1  27
BRANCH   2  29
HETATM   29  C   UNL     1     -41.021  53.494 -52.987  1.00  0.00     0.042 A 
HETATM   30  C   UNL     1     -40.116  52.970 -52.050  1.00  0.00     0.030 A 
HETATM   31  C   UNL     1     -39.467  51.748 -52.267  1.00  0.00     0.002 A 
HETATM   32  C   UNL     1     -39.717  51.017 -53.423  1.00  0.00     0.000 A 
HETATM   33  C   UNL     1     -40.617  51.506 -54.359  1.00  0.00     0.002 A 
HETATM   34  C   UNL     1     -41.260  52.729 -54.143  1.00  0.00     0.030 A 
ENDBRANCH   2  29
TORSDOF 10
ENDMDL
MODEL 2
REMARK VINA RESULT:      -7.7      1.407      2.967
REMARK  10 active torsions:
REMARK  status: ('A' for Active; 'I' for Inactive)
REMARK    1  A    between atoms: C_2  and  C_3 
REMARK    2  A    between atoms: C_3  and  C_4 
REMARK    3  A    between atoms: C_4  and  N_5 
REMARK    4  A    between atoms: N_5  and  C_7 
REMARK    5  A    between atoms: C_7  and  C_8 
REMARK    6  A    between atoms: C_8  and  C_9 
REMARK    7  A    between atoms: C_9  and  N_10 
REMARK       I    between atoms: N_10  and  C_11 
REMARK    8  A    between atoms: C_11  and  C_12 
REMARK    9  A    between atoms: C_12  and  O_13 
REMARK   10  A    between atoms: N_14  and  C_15 
ROOT
HETATM    1  C   UNL     1     -41.482  55.787 -53.774  1.00  0.00     0.256 C 
HETATM    2  N   UNL     1     -41.607  54.692 -52.794  1.00  0.00    -0.254 N 
HETATM    3  C   UNL     1     -42.563  54.821 -51.790  1.00  0.00     0.330 C 
HETATM    4  O   UNL     1     -43.138  53.883 -51.234  1.00  0.00    -0.246 OA
HETATM    5  N   UNL     1     -42.939  56.082 -51.435  1.00  0.00    -0.308 N 
HETATM    6  C   UNL     1     -42.450  57.250 -51.998  1.00  0.00     0.048 A 
HETATM    7  C   UNL     1     -41.682  57.160 -53.153  1.00  0.00     0.034 A 
HETATM    8  C   UNL     1     -42.749  58.483 -51.414  1.00  0.00     0.030 A 
HETATM    9  C   UNL     1     -42.261  59.653 -51.989  1.00  0.00     0.002 A 
HETATM   10  C   UNL     1     -41.489  59.588 -53.146  1.00  0.00     0.001 A 
HETATM   11  C   UNL     1     -41.207  58.350 -53.729  1.00  0.00     0.015 A 
HETATM   12  H   UNL     1     -43.529  56.132 -50.613  1.00  0.00     0.170 HD
ENDROOT
BRANCH   1  13
HETATM   13  C   UNL     1     -42.548  55.593 -54.941  1.00  0.00     0.279 C 
HETATM   14  N   UNL     1     -42.048  55.407 -56.226  1.00  0.00    -0.356 N 
HETATM   15  H   UNL     1     -41.126  55.816 -56.370  1.00  0.00     0.162 HD
HETATM   16  O   UNL     1     -43.760  55.587 -54.713  1.00  0.00    -0.268 OA
BRANCH  14  17
HETATM   17  C   UNL     1     -42.947  55.361 -57.358  1.00  0.00     0.124 C 
BRANCH  17  18
HETATM   18  C   UNL     1     -42.939  56.671 -58.140  1.00  0.00     0.047 C 
BRANCH  18  19
HETATM   19  C   UNL     1     -44.165  57.519 -57.814  1.00  0.00     0.236 C 
BRANCH  19  20
HETATM   20  N   UNL     1     -44.016  58.305 -56.522  1.00  0.00    -0.075 N 
HETATM   21  H   UNL     1     -43.484  57.688 -55.894  1.00  0.00     0.279 HD
HETATM   22  C   UNL     1     -43.142  59.525 -56.680  1.00  0.00     0.269 C 
BRANCH  20  23
HETATM   23  C   UNL     1     -45.298  58.641 -55.788  1.00  0.00     0.234 C 
BRANCH  23  24
HETATM   24  C   UNL     1     -45.096  58.847 -54.288  1.00  0.00     0.027 C 
BRANCH  24  25
HETATM   25  C   UNL     1     -45.441  60.259 -53.812  1.00  0.00    -0.003 C 
HETATM   26  C   UNL     1     -45.951  60.254 -52.378  1.00  0.00     0.005 C 
ENDBRANCH  24  25
ENDBRANCH  23  24
ENDBRANCH  20  23
ENDBRANCH  19  20
ENDBRANCH  18  19
ENDBRANCH  17  18
ENDBRANCH  14  17
ENDBRANCH   1  13
BRANCH   1  27
HETATM   27  O   UNL     1     -40.164  55.785 -54.323  1.00  0.00    -0.359 OA
HETATM   28  H   UNL     1     -40.277  55.778 -55.290  1.00  0.00     0.213 HD
ENDBRANCH   1  27
BRANCH   2  29
HETATM   29  C   UNL     1     -40.959  53.414 -53.007  1.00  0.00     0.042 A 
HETATM   30  C   UNL     1     -40.030  52.871 -52.105  1.00  0.00     0.030 A 
HETATM   31  C   UNL     1     -39.424  51.631 -52.343  1.00  0.00     0.002 A 
HETATM   32  C   UNL     1     -39.741  50.901 -53.483  1.00  0.00     0.000 A 
HETATM   33  C   UNL     1     -40.666  51.410 -54.384  1.00  0.00     0.002 A 
HETATM   34  C   UNL     1     -41.266  52.651 -54.148  1.00  0.00     0.030 A 
ENDBRANCH   2  29
TORSDOF 10
ENDMDL
MODEL 3
REMARK VINA RESULT:      -7.4      1.244      2.222
REMARK  10 active torsions:
REMARK  status: ('A' for Active; 'I' for Inactive)
REMARK    1  A    between atoms: C_2  and  C_3 
REMARK    2  A    between atoms: C_3  and  C_4 
REMARK    3  A    between atoms: C_4  and  N_5 
REMARK    4  A    between atoms: N_5  and  C_7 
REMARK    5  A    between atoms: C_7  and  C_8 
REMARK    6  A    between atoms: C_8  and  C_9 
REMARK    7  A    between atoms: C_9  and  N_10 
REMARK       I    between atoms: N_10  and  C_11 
REMARK    8  A    between atoms: C_11  and  C_12 
REMARK    9  A    between atoms: C_12  and  O_13 
REMARK   10  A    between atoms: N_14  and  C_15 
ROOT
HETATM    1  C   UNL     1     -41.530  55.730 -53.864  1.00  0.00     0.256 C 
HETATM    2  N   UNL     1     -41.653  54.654 -52.863  1.00  0.00    -0.254 N 
HETATM    3  C   UNL     1     -42.619  54.794 -51.870  1.00  0.00     0.330 C 
HETATM    4  O   UNL     1     -43.189  53.862 -51.300  1.00  0.00    -0.246 OA
HETATM    5  N   UNL     1     -43.011  56.058 -51.544  1.00  0.00    -0.308 N 
HETATM    6  C   UNL     1     -42.528  57.219 -52.127  1.00  0.00     0.048 A 
HETATM    7  C   UNL     1     -41.749  57.113 -53.273  1.00  0.00     0.034 A 
HETATM    8  C   UNL     1     -42.845  58.460 -51.571  1.00  0.00     0.030 A 
HETATM    9  C   UNL     1     -42.363  59.624 -52.166  1.00  0.00     0.002 A 
HETATM   10  C   UNL     1     -41.581  59.543 -53.314  1.00  0.00     0.001 A 
HETATM   11  C   UNL     1     -41.280  58.296 -53.869  1.00  0.00     0.015 A 
HETATM   12  H   UNL     1     -43.609  56.119 -50.729  1.00  0.00     0.170 HD
ENDROOT
BRANCH   1  13
HETATM   13  C   UNL     1     -42.583  55.501 -55.036  1.00  0.00     0.279 C 
HETATM   14  N   UNL     1     -42.085  55.481 -56.335  1.00  0.00    -0.356 N 
HETATM   15  H   UNL     1     -41.221  56.009 -56.451  1.00  0.00     0.162 HD
HETATM   16  O   UNL     1     -43.781  55.330 -54.802  1.00  0.00    -0.268 OA
BRANCH  14  17
HETATM   17  C   UNL     1     -42.990  55.416 -57.461  1.00  0.00     0.124 C 
BRANCH  17  18
HETATM   18  C   UNL     1     -42.932  56.685 -58.306  1.00  0.00     0.047 C 
BRANCH  18  19
HETATM   19  C   UNL     1     -42.843  56.356 -59.794  1.00  0.00     0.236 C 
BRANCH  19  20
HETATM   20  N   UNL     1     -44.055  56.829 -60.580  1.00  0.00    -0.075 N 
HETATM   21  H   UNL     1     -43.691  57.078 -61.508  1.00  0.00     0.279 HD
HETATM   22  C   UNL     1     -45.044  55.722 -60.848  1.00  0.00     0.269 C 
BRANCH  20  23
HETATM   23  C   UNL     1     -44.750  58.071 -60.058  1.00  0.00     0.234 C 
BRANCH  23  24
HETATM   24  C   UNL     1     -44.332  59.345 -60.789  1.00  0.00     0.027 C 
BRANCH  24  25
HETATM   25  C   UNL     1     -43.534  60.318 -59.918  1.00  0.00    -0.003 C 
HETATM   26  C   UNL     1     -42.056  59.958 -59.893  1.00  0.00     0.005 C 
ENDBRANCH  24  25
ENDBRANCH  23  24
ENDBRANCH  20  23
ENDBRANCH  19  20
ENDBRANCH  18  19
ENDBRANCH  17  18
ENDBRANCH  14  17
ENDBRANCH   1  13
BRANCH   1  27
HETATM   27  O   UNL     1     -40.207  55.730 -54.401  1.00  0.00    -0.359 OA
HETATM   28  H   UNL     1     -40.292  56.035 -55.321  1.00  0.00     0.213 HD
ENDBRANCH   1  27
BRANCH   2  29
HETATM   29  C   UNL     1     -40.990  53.379 -53.043  1.00  0.00     0.042 A 
HETATM   30  C   UNL     1     -41.190  52.568 -54.171  1.00  0.00     0.030 A 
HETATM   31  C   UNL     1     -40.530  51.340 -54.313  1.00  0.00     0.002 A 
HETATM   32  C   UNL     1     -39.647  50.901 -53.333  1.00  0.00     0.000 A 
HETATM   33  C   UNL     1     -39.422  51.690 -52.214  1.00  0.00     0.002 A 
HETATM   34  C   UNL     1     -40.086  52.912 -52.071  1.00  0.00     0.030 A 
ENDBRANCH   2  29
TORSDOF 10
ENDMDL
MODEL 4
REMARK VINA RESULT:      -7.4      2.759      6.552
REMARK  10 active torsions:
REMARK  status: ('A' for Active; 'I' for Inactive)
REMARK    1  A    between atoms: C_2  and  C_3 
REMARK    2  A    between atoms: C_3  and  C_4 
REMARK    3  A    between atoms: C_4  and  N_5 
REMARK    4  A    between atoms: N_5  and  C_7 
REMARK    5  A    between atoms: C_7  and  C_8 
REMARK    6  A    between atoms: C_8  and  C_9 
REMARK    7  A    between atoms: C_9  and  N_10 
REMARK       I    between atoms: N_10  and  C_11 
REMARK    8  A    between atoms: C_11  and  C_12 
REMARK    9  A    between atoms: C_12  and  O_13 
REMARK   10  A    between atoms: N_14  and  C_15 
ROOT
HETATM    1  C   UNL     1     -43.581  57.536 -51.977  1.00  0.00     0.256 C 
HETATM    2  N   UNL     1     -42.532  57.663 -53.006  1.00  0.00    -0.254 N 
HETATM    3  C   UNL     1     -41.473  58.530 -52.754  1.00  0.00     0.330 C 
HETATM    4  O   UNL     1     -40.332  58.405 -53.204  1.00  0.00    -0.246 OA
HETATM    5  N   UNL     1     -41.694  59.565 -51.895  1.00  0.00    -0.308 N 
HETATM    6  C   UNL     1     -42.892  59.821 -51.245  1.00  0.00     0.048 A 
HETATM    7  C   UNL     1     -43.888  58.853 -51.283  1.00  0.00     0.034 A 
HETATM    8  C   UNL     1     -43.066  61.022 -50.556  1.00  0.00     0.030 A 
HETATM    9  C   UNL     1     -44.268  61.270 -49.898  1.00  0.00     0.002 A 
HETATM   10  C   UNL     1     -45.281  60.316 -49.922  1.00  0.00     0.001 A 
HETATM   11  C   UNL     1     -45.091  59.112 -50.604  1.00  0.00     0.015 A 
HETATM   12  H   UNL     1     -40.945  60.244 -51.848  1.00  0.00     0.170 HD
ENDROOT
BRANCH   1  13
HETATM   13  C   UNL     1     -43.137  56.471 -50.880  1.00  0.00     0.279 C 
HETATM   14  N   UNL     1     -41.907  56.679 -50.263  1.00  0.00    -0.356 N 
HETATM   15  H   UNL     1     -41.248  57.208 -50.831  1.00  0.00     0.162 HD
HETATM   16  O   UNL     1     -43.858  55.518 -50.577  1.00  0.00    -0.268 OA
BRANCH  14  17
HETATM   17  C   UNL     1     -41.370  55.686 -49.358  1.00  0.00     0.124 C 
BRANCH  17  18
HETATM   18  C   UNL     1     -40.369  54.769 -50.056  1.00  0.00     0.047 C 
BRANCH  18  19
HETATM   19  C   UNL     1     -40.624  53.305 -49.709  1.00  0.00     0.236 C 
BRANCH  19  20
HETATM   20  N   UNL     1     -39.959  52.341 -50.679  1.00  0.00    -0.075 N 
HETATM   21  H   UNL     1     -38.950  52.460 -50.523  1.00  0.00     0.279 HD
HETATM   22  C   UNL     1     -40.225  50.896 -50.338  1.00  0.00     0.269 C 
BRANCH  20  23
HETATM   23  C   UNL     1     -40.188  52.609 -52.153  1.00  0.00     0.234 C 
BRANCH  23  24
HETATM   24  C   UNL     1     -39.438  51.638 -53.063  1.00  0.00     0.027 C 
BRANCH  24  25
HETATM   25  C   UNL     1     -40.245  51.193 -54.283  1.00  0.00    -0.003 C 
HETATM   26  C   UNL     1     -39.866  49.785 -54.718  1.00  0.00     0.005 C 
ENDBRANCH  24  25
ENDBRANCH  23  24
ENDBRANCH  20  23
ENDBRANCH  19  20
ENDBRANCH  18  19
ENDBRANCH  17  18
ENDBRANCH  14  17
ENDBRANCH   1  13
BRANCH   1  27
HETATM   27  O   UNL     1     -44.799  57.114 -52.591  1.00  0.00    -0.359 OA
HETATM   28  H   UNL     1     -44.889  56.167 -52.384  1.00  0.00     0.213 HD
ENDBRANCH   1  27
BRANCH   2  29
HETATM   29  C   UNL     1     -42.451  56.736 -54.117  1.00  0.00     0.042 A 
HETATM   30  C   UNL     1     -42.936  57.038 -55.399  1.00  0.00     0.030 A 
HETATM   31  C   UNL     1     -42.839  56.118 -56.450  1.00  0.00     0.002 A 
HETATM   32  C   UNL     1     -42.246  54.877 -56.245  1.00  0.00     0.000 A 
HETATM   33  C   UNL     1     -41.747  54.559 -54.989  1.00  0.00     0.002 A 
HETATM   34  C   UNL     1     -41.849  55.477 -53.940  1.00  0.00     0.030 A 
ENDBRANCH   2  29
TORSDOF 10
ENDMDL
MODEL 5
REMARK VINA RESULT:      -7.1      3.059      7.002
REMARK  10 active torsions:
REMARK  status: ('A' for Active; 'I' for Inactive)
REMARK    1  A    between atoms: C_2  and  C_3 
REMARK    2  A    between atoms: C_3  and  C_4 
REMARK    3  A    between atoms: C_4  and  N_5 
REMARK    4  A    between atoms: N_5  and  C_7 
REMARK    5  A    between atoms: C_7  and  C_8 
REMARK    6  A    between atoms: C_8  and  C_9 
REMARK    7  A    between atoms: C_9  and  N_10 
REMARK       I    between atoms: N_10  and  C_11 
REMARK    8  A    between atoms: C_11  and  C_12 
REMARK    9  A    between atoms: C_12  and  O_13 
REMARK   10  A    between atoms: N_14  and  C_15 
ROOT
HETATM    1  C   UNL     1     -43.662  57.168 -51.557  1.00  0.00     0.256 C 
HETATM    2  N   UNL     1     -43.430  58.586 -51.224  1.00  0.00    -0.254 N 
HETATM    3  C   UNL     1     -42.125  58.988 -50.955  1.00  0.00     0.330 C 
HETATM    4  O   UNL     1     -41.678  60.121 -51.150  1.00  0.00    -0.246 OA
HETATM    5  N   UNL     1     -41.255  58.044 -50.498  1.00  0.00    -0.308 N 
HETATM    6  C   UNL     1     -41.563  56.710 -50.284  1.00  0.00     0.048 A 
HETATM    7  C   UNL     1     -42.775  56.224 -50.763  1.00  0.00     0.034 A 
HETATM    8  C   UNL     1     -40.656  55.884 -49.618  1.00  0.00     0.030 A 
HETATM    9  C   UNL     1     -40.969  54.542 -49.413  1.00  0.00     0.002 A 
HETATM   10  C   UNL     1     -42.176  54.032 -49.882  1.00  0.00     0.001 A 
HETATM   11  C   UNL     1     -43.071  54.865 -50.559  1.00  0.00     0.015 A 
HETATM   12  H   UNL     1     -40.362  58.407 -50.187  1.00  0.00     0.170 HD
ENDROOT
BRANCH   1  13
HETATM   13  C   UNL     1     -43.403  56.928 -53.110  1.00  0.00     0.279 C 
HETATM   14  N   UNL     1     -44.143  55.920 -53.722  1.00  0.00    -0.356 N 
HETATM   15  H   UNL     1     -44.444  55.186 -53.082  1.00  0.00     0.162 HD
HETATM   16  O   UNL     1     -42.601  57.616 -53.744  1.00  0.00    -0.268 OA
BRANCH  14  17
HETATM   17  C   UNL     1     -43.870  55.548 -55.093  1.00  0.00     0.124 C 
BRANCH  17  18
HETATM   18  C   UNL     1     -43.125  54.218 -55.179  1.00  0.00     0.047 C 
BRANCH  18  19
HETATM   19  C   UNL     1     -41.655  54.429 -55.532  1.00  0.00     0.236 C 
BRANCH  19  20
HETATM   20  N   UNL     1     -40.708  53.740 -54.563  1.00  0.00    -0.075 N 
HETATM   21  H   UNL     1     -39.777  53.832 -54.989  1.00  0.00     0.279 HD
HETATM   22  C   UNL     1     -40.592  54.467 -53.246  1.00  0.00     0.269 C 
BRANCH  20  23
HETATM   23  C   UNL     1     -40.927  52.255 -54.352  1.00  0.00     0.234 C 
BRANCH  23  24
HETATM   24  C   UNL     1     -39.650  51.508 -53.973  1.00  0.00     0.027 C 
BRANCH  24  25
HETATM   25  C   UNL     1     -39.836  49.995 -53.856  1.00  0.00    -0.003 C 
HETATM   26  C   UNL     1     -39.662  49.522 -52.420  1.00  0.00     0.005 C 
ENDBRANCH  24  25
ENDBRANCH  23  24
ENDBRANCH  20  23
ENDBRANCH  19  20
ENDBRANCH  18  19
ENDBRANCH  17  18
ENDBRANCH  14  17
ENDBRANCH   1  13
BRANCH   1  27
HETATM   27  O   UNL     1     -45.008  56.818 -51.234  1.00  0.00    -0.359 OA
HETATM   28  H   UNL     1     -45.291  56.186 -51.918  1.00  0.00     0.213 HD
ENDBRANCH   1  27
BRANCH   2  29
HETATM   29  C   UNL     1     -44.461  59.584 -51.424  1.00  0.00     0.042 A 
HETATM   30  C   UNL     1     -44.882  60.001 -52.696  1.00  0.00     0.030 A 
HETATM   31  C   UNL     1     -45.883  60.968 -52.852  1.00  0.00     0.002 A 
HETATM   32  C   UNL     1     -46.494  61.532 -51.738  1.00  0.00     0.000 A 
HETATM   33  C   UNL     1     -46.105  61.127 -50.468  1.00  0.00     0.002 A 
HETATM   34  C   UNL     1     -45.102  60.166 -50.315  1.00  0.00     0.030 A 
ENDBRANCH   2  29
TORSDOF 10
ENDMDL
MODEL 6
REMARK VINA RESULT:      -7.1      1.944      6.949
REMARK  10 active torsions:
REMARK  status: ('A' for Active; 'I' for Inactive)
REMARK    1  A    between atoms: C_2  and  C_3 
REMARK    2  A    between atoms: C_3  and  C_4 
REMARK    3  A    between atoms: C_4  and  N_5 
REMARK    4  A    between atoms: N_5  and  C_7 
REMARK    5  A    between atoms: C_7  and  C_8 
REMARK    6  A    between atoms: C_8  and  C_9 
REMARK    7  A    between atoms: C_9  and  N_10 
REMARK       I    between atoms: N_10  and  C_11 
REMARK    8  A    between atoms: C_11  and  C_12 
REMARK    9  A    between atoms: C_12  and  O_13 
REMARK   10  A    between atoms: N_14  and  C_15 
ROOT
HETATM    1  C   UNL     1     -43.654  57.394 -55.284  1.00  0.00     0.256 C 
HETATM    2  N   UNL     1     -43.409  57.826 -56.674  1.00  0.00    -0.254 N 
HETATM    3  C   UNL     1     -42.427  58.787 -56.894  1.00  0.00     0.330 C 
HETATM    4  O   UNL     1     -41.762  58.896 -57.927  1.00  0.00    -0.246 OA
HETATM    5  N   UNL     1     -42.131  59.635 -55.869  1.00  0.00    -0.308 N 
HETATM    6  C   UNL     1     -42.727  59.614 -54.618  1.00  0.00     0.048 A 
HETATM    7  C   UNL     1     -43.531  58.531 -54.284  1.00  0.00     0.034 A 
HETATM    8  C   UNL     1     -42.497  60.658 -53.721  1.00  0.00     0.030 A 
HETATM    9  C   UNL     1     -43.092  60.628 -52.462  1.00  0.00     0.002 A 
HETATM   10  C   UNL     1     -43.902  59.554 -52.104  1.00  0.00     0.001 A 
HETATM   11  C   UNL     1     -44.115  58.508 -53.006  1.00  0.00     0.015 A 
HETATM   12  H   UNL     1     -41.514  60.399 -56.117  1.00  0.00     0.170 HD
ENDROOT
BRANCH   1  13
HETATM   13  C   UNL     1     -42.623  56.247 -54.885  1.00  0.00     0.279 C 
HETATM   14  N   UNL     1     -43.162  55.050 -54.426  1.00  0.00    -0.356 N 
HETATM   15  H   UNL     1     -44.082  55.150 -54.001  1.00  0.00     0.162 HD
HETATM   16  O   UNL     1     -41.406  56.406 -54.998  1.00  0.00    -0.268 OA
BRANCH  14  17
HETATM   17  C   UNL     1     -42.295  54.010 -53.915  1.00  0.00     0.124 C 
BRANCH  17  18
HETATM   18  C   UNL     1     -42.336  53.940 -52.391  1.00  0.00     0.047 C 
BRANCH  18  19
HETATM   19  C   UNL     1     -41.174  54.710 -51.770  1.00  0.00     0.236 C 
BRANCH  19  20
HETATM   20  N   UNL     1     -40.107  53.801 -51.181  1.00  0.00    -0.075 N 
HETATM   21  H   UNL     1     -39.277  53.947 -51.771  1.00  0.00     0.279 HD
HETATM   22  C   UNL     1     -39.669  54.233 -49.804  1.00  0.00     0.269 C 
BRANCH  20  23
HETATM   23  C   UNL     1     -40.394  52.314 -51.225  1.00  0.00     0.234 C 
BRANCH  23  24
HETATM   24  C   UNL     1     -39.368  51.528 -52.040  1.00  0.00     0.027 C 
BRANCH  24  25
HETATM   25  C   UNL     1     -39.662  51.507 -53.540  1.00  0.00    -0.003 C 
HETATM   26  C   UNL     1     -39.621  50.092 -54.097  1.00  0.00     0.005 C 
ENDBRANCH  24  25
ENDBRANCH  23  24
ENDBRANCH  20  23
ENDBRANCH  19  20
ENDBRANCH  18  19
ENDBRANCH  17  18
ENDBRANCH  14  17
ENDBRANCH   1  13
BRANCH   1  27
HETATM   27  O   UNL     1     -44.989  56.902 -55.168  1.00  0.00    -0.359 OA
HETATM   28  H   UNL     1     -44.918  55.931 -55.181  1.00  0.00     0.213 HD
ENDBRANCH   1  27
BRANCH   2  29
HETATM   29  C   UNL     1     -43.969  57.102 -57.796  1.00  0.00     0.042 A 
HETATM   30  C   UNL     1     -45.093  57.549 -58.509  1.00  0.00     0.030 A 
HETATM   31  C   UNL     1     -45.607  56.823 -59.591  1.00  0.00     0.002 A 
HETATM   32  C   UNL     1     -45.001  55.637 -59.991  1.00  0.00     0.000 A 
HETATM   33  C   UNL     1     -43.881  55.180 -59.311  1.00  0.00     0.002 A 
HETATM   34  C   UNL     1     -43.373  55.903 -58.228  1.00  0.00     0.030 A 
ENDBRANCH   2  29
TORSDOF 10
ENDMDL
MODEL 7
REMARK VINA RESULT:      -7.0      2.150      3.102
REMARK  10 active torsions:
REMARK  status: ('A' for Active; 'I' for Inactive)
REMARK    1  A    between atoms: C_2  and  C_3 
REMARK    2  A    between atoms: C_3  and  C_4 
REMARK    3  A    between atoms: C_4  and  N_5 
REMARK    4  A    between atoms: N_5  and  C_7 
REMARK    5  A    between atoms: C_7  and  C_8 
REMARK    6  A    between atoms: C_8  and  C_9 
REMARK    7  A    between atoms: C_9  and  N_10 
REMARK       I    between atoms: N_10  and  C_11 
REMARK    8  A    between atoms: C_11  and  C_12 
REMARK    9  A    between atoms: C_12  and  O_13 
REMARK   10  A    between atoms: N_14  and  C_15 
ROOT
HETATM    1  C   UNL     1     -41.534  55.791 -53.774  1.00  0.00     0.256 C 
HETATM    2  N   UNL     1     -41.679  54.693 -52.800  1.00  0.00    -0.254 N 
HETATM    3  C   UNL     1     -42.671  54.810 -51.830  1.00  0.00     0.330 C 
HETATM    4  O   UNL     1     -43.253  53.863 -51.295  1.00  0.00    -0.246 OA
HETATM    5  N   UNL     1     -43.075  56.065 -51.487  1.00  0.00    -0.308 N 
HETATM    6  C   UNL     1     -42.581  57.240 -52.032  1.00  0.00     0.048 A 
HETATM    7  C   UNL     1     -41.772  57.160 -53.159  1.00  0.00     0.034 A 
HETATM    8  C   UNL     1     -42.915  58.468 -51.457  1.00  0.00     0.030 A 
HETATM    9  C   UNL     1     -42.422  59.645 -52.014  1.00  0.00     0.002 A 
HETATM   10  C   UNL     1     -41.610  59.591 -53.143  1.00  0.00     0.001 A 
HETATM   11  C   UNL     1     -41.292  58.357 -53.717  1.00  0.00     0.015 A 
HETATM   12  H   UNL     1     -43.693  56.107 -50.686  1.00  0.00     0.170 HD
ENDROOT
BRANCH   1  13
HETATM   13  C   UNL     1     -42.557  55.585 -54.977  1.00  0.00     0.279 C 
HETATM   14  N   UNL     1     -42.045  55.709 -56.266  1.00  0.00    -0.356 N 
HETATM   15  H   UNL     1     -41.221  56.305 -56.324  1.00  0.00     0.162 HD
HETATM   16  O   UNL     1     -43.741  55.309 -54.777  1.00  0.00    -0.268 OA
BRANCH  14  17
HETATM   17  C   UNL     1     -42.932  55.673 -57.407  1.00  0.00     0.124 C 
BRANCH  17  18
HETATM   18  C   UNL     1     -43.384  57.072 -57.816  1.00  0.00     0.047 C 
BRANCH  18  19
HETATM   19  C   UNL     1     -42.195  58.020 -57.952  1.00  0.00     0.236 C 
BRANCH  19  20
HETATM   20  N   UNL     1     -42.608  59.481 -58.028  1.00  0.00    -0.075 N 
HETATM   21  H   UNL     1     -43.581  59.467 -58.360  1.00  0.00     0.279 HD
HETATM   22  C   UNL     1     -42.683  60.136 -56.670  1.00  0.00     0.269 C 
BRANCH  20  23
HETATM   23  C   UNL     1     -41.845  60.345 -59.011  1.00  0.00     0.234 C 
BRANCH  23  24
HETATM   24  C   UNL     1     -41.015  61.435 -58.336  1.00  0.00     0.027 C 
BRANCH  24  25
HETATM   25  C   UNL     1     -41.220  62.825 -58.939  1.00  0.00    -0.003 C 
HETATM   26  C   UNL     1     -42.012  62.757 -60.237  1.00  0.00     0.005 C 
ENDBRANCH  24  25
ENDBRANCH  23  24
ENDBRANCH  20  23
ENDBRANCH  19  20
ENDBRANCH  18  19
ENDBRANCH  17  18
ENDBRANCH  14  17
ENDBRANCH   1  13
BRANCH   1  27
HETATM   27  O   UNL     1     -40.198  55.806 -54.277  1.00  0.00    -0.359 OA
HETATM   28  H   UNL     1     -39.886  56.723 -54.180  1.00  0.00     0.213 HD
ENDBRANCH   1  27
BRANCH   2  29
HETATM   29  C   UNL     1     -41.009  53.424 -52.991  1.00  0.00     0.042 A 
HETATM   30  C   UNL     1     -40.148  52.864 -52.034  1.00  0.00     0.030 A 
HETATM   31  C   UNL     1     -39.517  51.632 -52.252  1.00  0.00     0.002 A 
HETATM   32  C   UNL     1     -39.741  50.928 -53.429  1.00  0.00     0.000 A 
HETATM   33  C   UNL     1     -40.598  51.454 -54.387  1.00  0.00     0.002 A 
HETATM   34  C   UNL     1     -41.223  52.686 -54.170  1.00  0.00     0.030 A 
ENDBRANCH   2  29
TORSDOF 10
ENDMDL
MODEL 8
REMARK VINA RESULT:      -6.9      2.401      6.999
REMARK  10 active torsions:
REMARK  status: ('A' for Active; 'I' for Inactive)
REMARK    1  A    between atoms: C_2  and  C_3 
REMARK    2  A    between atoms: C_3  and  C_4 
REMARK    3  A    between atoms: C_4  and  N_5 
REMARK    4  A    between atoms: N_5  and  C_7 
REMARK    5  A    between atoms: C_7  and  C_8 
REMARK    6  A    between atoms: C_8  and  C_9 
REMARK    7  A    between atoms: C_9  and  N_10 
REMARK       I    between atoms: N_10  and  C_11 
REMARK    8  A    between atoms: C_11  and  C_12 
REMARK    9  A    between atoms: C_12  and  O_13 
REMARK   10  A    between atoms: N_14  and  C_15 
ROOT
HETATM    1  C   UNL     1     -44.020  57.562 -55.512  1.00  0.00     0.256 C 
HETATM    2  N   UNL     1     -43.607  57.812 -56.906  1.00  0.00    -0.254 N 
HETATM    3  C   UNL     1     -42.526  58.662 -57.121  1.00  0.00     0.330 C 
HETATM    4  O   UNL     1     -41.759  58.602 -58.085  1.00  0.00    -0.246 OA
HETATM    5  N   UNL     1     -42.255  59.595 -56.166  1.00  0.00    -0.308 N 
HETATM    6  C   UNL     1     -42.968  59.763 -54.989  1.00  0.00     0.048 A 
HETATM    7  C   UNL     1     -43.893  58.791 -54.629  1.00  0.00     0.034 A 
HETATM    8  C   UNL     1     -42.732  60.882 -54.187  1.00  0.00     0.030 A 
HETATM    9  C   UNL     1     -43.446  61.041 -53.001  1.00  0.00     0.002 A 
HETATM   10  C   UNL     1     -44.379  60.081 -52.620  1.00  0.00     0.001 A 
HETATM   11  C   UNL     1     -44.597  58.960 -53.424  1.00  0.00     0.015 A 
HETATM   12  H   UNL     1     -41.552  60.276 -56.426  1.00  0.00     0.170 HD
ENDROOT
BRANCH   1  13
HETATM   13  C   UNL     1     -43.139  56.391 -54.889  1.00  0.00     0.279 C 
HETATM   14  N   UNL     1     -43.790  55.494 -54.047  1.00  0.00    -0.356 N 
HETATM   15  H   UNL     1     -44.610  55.885 -53.586  1.00  0.00     0.162 HD
HETATM   16  O   UNL     1     -41.942  56.272 -55.157  1.00  0.00    -0.268 OA
BRANCH  14  17
HETATM   17  C   UNL     1     -43.035  54.487 -53.334  1.00  0.00     0.124 C 
BRANCH  17  18
HETATM   18  C   UNL     1     -43.355  54.492 -51.841  1.00  0.00     0.047 C 
BRANCH  18  19
HETATM   19  C   UNL     1     -43.295  55.905 -51.267  1.00  0.00     0.236 C 
BRANCH  19  20
HETATM   20  N   UNL     1     -42.228  56.064 -50.196  1.00  0.00    -0.075 N 
HETATM   21  H   UNL     1     -42.700  56.544 -49.419  1.00  0.00     0.279 HD
HETATM   22  C   UNL     1     -41.788  54.745 -49.612  1.00  0.00     0.269 C 
BRANCH  20  23
HETATM   23  C   UNL     1     -41.037  56.928 -50.559  1.00  0.00     0.234 C 
BRANCH  23  24
HETATM   24  C   UNL     1     -41.184  57.615 -51.915  1.00  0.00     0.027 C 
BRANCH  24  25
HETATM   25  C   UNL     1     -40.578  59.018 -51.961  1.00  0.00    -0.003 C 
HETATM   26  C   UNL     1     -39.948  59.397 -50.628  1.00  0.00     0.005 C 
ENDBRANCH  24  25
ENDBRANCH  23  24
ENDBRANCH  20  23
ENDBRANCH  19  20
ENDBRANCH  18  19
ENDBRANCH  17  18
ENDBRANCH  14  17
ENDBRANCH   1  13
BRANCH   1  27
HETATM   27  O   UNL     1     -45.399  57.191 -55.485  1.00  0.00    -0.359 OA
HETATM   28  H   UNL     1     -45.740  57.492 -54.624  1.00  0.00     0.213 HD
ENDBRANCH   1  27
BRANCH   2  29
HETATM   29  C   UNL     1     -44.119  57.012 -57.998  1.00  0.00     0.042 A 
HETATM   30  C   UNL     1     -45.204  57.412 -58.794  1.00  0.00     0.030 A 
HETATM   31  C   UNL     1     -45.673  56.612 -59.844  1.00  0.00     0.002 A 
HETATM   32  C   UNL     1     -45.058  55.398 -60.129  1.00  0.00     0.000 A 
HETATM   33  C   UNL     1     -43.975  54.985 -59.366  1.00  0.00     0.002 A 
HETATM   34  C   UNL     1     -43.512  55.782 -58.314  1.00  0.00     0.030 A 
ENDBRANCH   2  29
TORSDOF 10
ENDMDL
MODEL 9
REMARK VINA RESULT:      -6.8      2.025      7.283
REMARK  10 active torsions:
REMARK  status: ('A' for Active; 'I' for Inactive)
REMARK    1  A    between atoms: C_2  and  C_3 
REMARK    2  A    between atoms: C_3  and  C_4 
REMARK    3  A    between atoms: C_4  and  N_5 
REMARK    4  A    between atoms: N_5  and  C_7 
REMARK    5  A    between atoms: C_7  and  C_8 
REMARK    6  A    between atoms: C_8  and  C_9 
REMARK    7  A    between atoms: C_9  and  N_10 
REMARK       I    between atoms: N_10  and  C_11 
REMARK    8  A    between atoms: C_11  and  C_12 
REMARK    9  A    between atoms: C_12  and  O_13 
REMARK   10  A    between atoms: N_14  and  C_15 
ROOT
HETATM    1  C   UNL     1     -43.516  57.189 -55.611  1.00  0.00     0.256 C 
HETATM    2  N   UNL     1     -43.332  57.631 -57.006  1.00  0.00    -0.254 N 
HETATM    3  C   UNL     1     -42.363  58.598 -57.261  1.00  0.00     0.330 C 
HETATM    4  O   UNL     1     -41.743  58.718 -58.320  1.00  0.00    -0.246 OA
HETATM    5  N   UNL     1     -42.028  59.440 -56.243  1.00  0.00    -0.308 N 
HETATM    6  C   UNL     1     -42.572  59.408 -54.968  1.00  0.00     0.048 A 
HETATM    7  C   UNL     1     -43.357  58.320 -54.608  1.00  0.00     0.034 A 
HETATM    8  C   UNL     1     -42.309  60.447 -54.074  1.00  0.00     0.030 A 
HETATM    9  C   UNL     1     -42.851  60.406 -52.792  1.00  0.00     0.002 A 
HETATM   10  C   UNL     1     -43.641  59.326 -52.408  1.00  0.00     0.001 A 
HETATM   11  C   UNL     1     -43.887  58.286 -53.307  1.00  0.00     0.015 A 
HETATM   12  H   UNL     1     -41.426  60.209 -56.511  1.00  0.00     0.170 HD
ENDROOT
BRANCH   1  13
HETATM   13  C   UNL     1     -42.465  56.044 -55.263  1.00  0.00     0.279 C 
HETATM   14  N   UNL     1     -42.962  54.750 -55.142  1.00  0.00    -0.356 N 
HETATM   15  H   UNL     1     -43.944  54.712 -54.873  1.00  0.00     0.162 HD
HETATM   16  O   UNL     1     -41.265  56.290 -55.129  1.00  0.00    -0.268 OA
BRANCH  14  17
HETATM   17  C   UNL     1     -42.100  53.679 -54.694  1.00  0.00     0.124 C 
BRANCH  17  18
HETATM   18  C   UNL     1     -41.963  53.661 -53.174  1.00  0.00     0.047 C 
BRANCH  18  19
HETATM   19  C   UNL     1     -40.516  53.423 -52.751  1.00  0.00     0.236 C 
BRANCH  19  20
HETATM   20  N   UNL     1     -40.368  52.278 -51.763  1.00  0.00    -0.075 N 
HETATM   21  H   UNL     1     -41.176  51.667 -51.940  1.00  0.00     0.279 HD
HETATM   22  C   UNL     1     -39.169  51.409 -52.054  1.00  0.00     0.269 C 
BRANCH  20  23
HETATM   23  C   UNL     1     -40.436  52.645 -50.294  1.00  0.00     0.234 C 
BRANCH  23  24
HETATM   24  C   UNL     1     -39.810  54.004 -49.985  1.00  0.00     0.027 C 
BRANCH  24  25
HETATM   25  C   UNL     1     -40.708  54.916 -49.149  1.00  0.00    -0.003 C 
HETATM   26  C   UNL     1     -41.967  55.308 -49.909  1.00  0.00     0.005 C 
ENDBRANCH  24  25
ENDBRANCH  23  24
ENDBRANCH  20  23
ENDBRANCH  19  20
ENDBRANCH  18  19
ENDBRANCH  17  18
ENDBRANCH  14  17
ENDBRANCH   1  13
BRANCH   1  27
HETATM   27  O   UNL     1     -44.843  56.690 -55.443  1.00  0.00    -0.359 OA
HETATM   28  H   UNL     1     -44.977  56.039 -56.154  1.00  0.00     0.213 HD
ENDBRANCH   1  27
BRANCH   2  29
HETATM   29  C   UNL     1     -43.935  56.913 -58.109  1.00  0.00     0.042 A 
HETATM   30  C   UNL     1     -43.415  55.710 -58.612  1.00  0.00     0.030 A 
HETATM   31  C   UNL     1     -44.026  55.041 -59.680  1.00  0.00     0.002 A 
HETATM   32  C   UNL     1     -45.178  55.555 -60.264  1.00  0.00     0.000 A 
HETATM   33  C   UNL     1     -45.720  56.738 -59.777  1.00  0.00     0.002 A 
HETATM   34  C   UNL     1     -45.106  57.407 -58.714  1.00  0.00     0.030 A 
ENDBRANCH   2  29
TORSDOF 10
ENDMDL
MODEL 10
REMARK VINA RESULT:      -6.7      2.168      5.229
REMARK  10 active torsions:
REMARK  status: ('A' for Active; 'I' for Inactive)
REMARK    1  A    between atoms: C_2  and  C_3 
REMARK    2  A    between atoms: C_3  and  C_4 
REMARK    3  A    between atoms: C_4  and  N_5 
REMARK    4  A    between atoms: N_5  and  C_7 
REMARK    5  A    between atoms: C_7  and  C_8 
REMARK    6  A    between atoms: C_8  and  C_9 
REMARK    7  A    between atoms: C_9  and  N_10 
REMARK       I    between atoms: N_10  and  C_11 
REMARK    8  A    between atoms: C_11  and  C_12 
REMARK    9  A    between atoms: C_12  and  O_13 
REMARK   10  A    between atoms: N_14  and  C_15 
ROOT
HETATM    1  C   UNL     1     -42.712  56.375 -52.184  1.00  0.00     0.256 C 
HETATM    2  N   UNL     1     -42.848  57.684 -51.518  1.00  0.00    -0.254 N 
HETATM    3  C   UNL     1     -41.761  58.162 -50.791  1.00  0.00     0.330 C 
HETATM    4  O   UNL     1     -41.499  59.353 -50.609  1.00  0.00    -0.246 OA
HETATM    5  N   UNL     1     -40.883  57.246 -50.292  1.00  0.00    -0.308 N 
HETATM    6  C   UNL     1     -40.982  55.874 -50.456  1.00  0.00     0.048 A 
HETATM    7  C   UNL     1     -41.908  55.378 -51.366  1.00  0.00     0.034 A 
HETATM    8  C   UNL     1     -40.147  55.024 -49.727  1.00  0.00     0.030 A 
HETATM    9  C   UNL     1     -40.246  53.646 -49.901  1.00  0.00     0.002 A 
HETATM   10  C   UNL     1     -41.166  53.126 -50.807  1.00  0.00     0.001 A 
HETATM   11  C   UNL     1     -41.988  53.986 -51.540  1.00  0.00     0.015 A 
HETATM   12  H   UNL     1     -40.190  57.626 -49.658  1.00  0.00     0.170 HD
ENDROOT
BRANCH   1  13
HETATM   13  C   UNL     1     -42.008  56.560 -53.601  1.00  0.00     0.279 C 
HETATM   14  N   UNL     1     -42.740  56.177 -54.721  1.00  0.00    -0.356 N 
HETATM   15  H   UNL     1     -43.437  55.460 -54.529  1.00  0.00     0.162 HD
HETATM   16  O   UNL     1     -40.877  57.039 -53.701  1.00  0.00    -0.268 OA
BRANCH  14  17
HETATM   17  C   UNL     1     -42.124  56.184 -56.029  1.00  0.00     0.124 C 
BRANCH  17  18
HETATM   18  C   UNL     1     -43.165  56.127 -57.144  1.00  0.00     0.047 C 
BRANCH  18  19
HETATM   19  C   UNL     1     -43.114  57.381 -58.014  1.00  0.00     0.236 C 
BRANCH  19  20
HETATM   20  N   UNL     1     -43.163  57.072 -59.502  1.00  0.00    -0.075 N 
HETATM   21  H   UNL     1     -43.982  57.584 -59.854  1.00  0.00     0.279 HD
HETATM   22  C   UNL     1     -41.998  57.661 -60.258  1.00  0.00     0.269 C 
BRANCH  20  23
HETATM   23  C   UNL     1     -43.385  55.621 -59.879  1.00  0.00     0.234 C 
BRANCH  23  24
HETATM   24  C   UNL     1     -44.771  55.357 -60.463  1.00  0.00     0.027 C 
BRANCH  24  25
HETATM   25  C   UNL     1     -45.620  56.620 -60.622  1.00  0.00    -0.003 C 
HETATM   26  C   UNL     1     -46.869  56.562 -59.755  1.00  0.00     0.005 C 
ENDBRANCH  24  25
ENDBRANCH  23  24
ENDBRANCH  20  23
ENDBRANCH  19  20
ENDBRANCH  18  19
ENDBRANCH  17  18
ENDBRANCH  14  17
ENDBRANCH   1  13
BRANCH   1  27
HETATM   27  O   UNL     1     -44.005  55.796 -52.362  1.00  0.00    -0.359 OA
HETATM   28  H   UNL     1     -44.619  56.350 -51.849  1.00  0.00     0.213 HD
ENDBRANCH   1  27
BRANCH   2  29
HETATM   29  C   UNL     1     -43.956  58.568 -51.815  1.00  0.00     0.042 A 
HETATM   30  C   UNL     1     -44.074  59.262 -53.030  1.00  0.00     0.030 A 
HETATM   31  C   UNL     1     -45.161  60.108 -53.284  1.00  0.00     0.002 A 
HETATM   32  C   UNL     1     -46.160  60.272 -52.331  1.00  0.00     0.000 A 
HETATM   33  C   UNL     1     -46.074  59.587 -51.127  1.00  0.00     0.002 A 
HETATM   34  C   UNL     1     -44.986  58.747 -50.873  1.00  0.00     0.030 A 
ENDBRANCH   2  29
TORSDOF 10
ENDMDL
