MODEL 1
REMARK VINA RESULT:      -7.9      0.000      0.000
REMARK  4 active torsions:
REMARK  status: ('A' for Active; 'I' for Inactive)
REMARK    1  A    between atoms: C_2  and  N_3 
REMARK    2  A    between atoms: C_2  and  C_14 
REMARK    3  A    between atoms: N_3  and  C_6 
REMARK    4  A    between atoms: C_6  and  C_7 
ROOT
HETATM    1  C   UNL     1     -43.275  54.343 -55.883  1.00  0.00     0.048 C 
HETATM    2  C   UNL     1     -42.440  55.596 -55.663  1.00  0.00     0.251 C 
ENDROOT
BRANCH   2   3
HETATM    3  N   UNL     1     -41.031  55.174 -55.327  1.00  0.00    -0.060 N 
HETATM    4  H   UNL     1     -40.785  54.273 -55.752  1.00  0.00     0.278 HD
HETATM    5  H   UNL     1     -40.411  55.882 -55.756  1.00  0.00     0.278 HD
BRANCH   3   6
HETATM    6  C   UNL     1     -40.708  55.141 -53.873  1.00  0.00     0.271 C 
BRANCH   6   7
HETATM    7  C   UNL     1     -40.419  53.736 -53.426  1.00  0.00    -0.033 A 
HETATM    8  C   UNL     1     -40.295  53.438 -52.058  1.00  0.00     0.010 A 
HETATM    9  C   UNL     1     -39.990  52.138 -51.643  1.00  0.00     0.024 A 
HETATM   10  C   UNL     1     -39.807  51.131 -52.588  1.00  0.00     0.034 A 
HETATM   11 CL   UNL     1     -39.431  49.535 -52.076  1.00  0.00    -0.084 Cl
HETATM   12  C   UNL     1     -39.924  51.414 -53.947  1.00  0.00     0.024 A 
HETATM   13  C   UNL     1     -40.225  52.713 -54.367  1.00  0.00     0.010 A 
ENDBRANCH   6   7
ENDBRANCH   3   6
ENDBRANCH   2   3
BRANCH   2  14
HETATM   14  C   UNL     1     -42.440  56.454 -56.934  1.00  0.00     0.138 A 
HETATM   15  N   UNL     1     -42.165  57.718 -56.824  1.00  0.00    -0.232 NA
HETATM   16  C   UNL     1     -42.159  58.487 -58.007  1.00  0.00     0.074 A 
HETATM   17  C   UNL     1     -42.452  57.940 -59.262  1.00  0.00     0.061 A 
HETATM   18  C   UNL     1     -41.854  59.847 -57.927  1.00  0.00     0.032 A 
HETATM   19  C   UNL     1     -42.760  56.503 -59.317  1.00  0.00     0.259 A 
HETATM   20  C   UNL     1     -42.449  58.722 -60.419  1.00  0.00     0.019 A 
HETATM   21  O   UNL     1     -43.043  55.921 -60.355  1.00  0.00    -0.267 OA
HETATM   22  N   UNL     1     -42.721  55.836 -58.117  1.00  0.00    -0.309 N 
HETATM   23  H   UNL     1     -42.928  54.848 -58.197  1.00  0.00     0.170 HD
HETATM   24  C   UNL     1     -42.146  60.078 -60.323  1.00  0.00     0.001 A 
HETATM   25  C   UNL     1     -41.847  60.639 -59.081  1.00  0.00     0.002 A 
ENDBRANCH   2  14
TORSDOF 4
ENDMDL
MODEL 2
REMARK VINA RESULT:      -7.8      2.013      3.042
REMARK  4 active torsions:
REMARK  status: ('A' for Active; 'I' for Inactive)
REMARK    1  A    between atoms: C_2  and  N_3 
REMARK    2  A    between atoms: C_2  and  C_14 
REMARK    3  A    between atoms: N_3  and  C_6 
REMARK    4  A    between atoms: C_6  and  C_7 
ROOT
HETATM    1  C   UNL     1     -43.621  55.894 -52.788  1.00  0.00     0.048 C 
HETATM    2  C   UNL     1     -42.436  56.804 -53.079  1.00  0.00     0.251 C 
ENDROOT
BRANCH   2   3
HETATM    3  N   UNL     1     -41.172  56.068 -52.710  1.00  0.00    -0.060 N 
HETATM    4  H   UNL     1     -40.633  55.785 -53.537  1.00  0.00     0.278 HD
HETATM    5  H   UNL     1     -40.586  56.746 -52.194  1.00  0.00     0.278 HD
BRANCH   3   6
HETATM    6  C   UNL     1     -41.360  54.892 -51.816  1.00  0.00     0.271 C 
BRANCH   6   7
HETATM    7  C   UNL     1     -40.814  53.646 -52.454  1.00  0.00    -0.033 A 
HETATM    8  C   UNL     1     -41.144  53.324 -53.781  1.00  0.00     0.010 A 
HETATM    9  C   UNL     1     -40.666  52.146 -54.363  1.00  0.00     0.024 A 
HETATM   10  C   UNL     1     -39.857  51.285 -53.625  1.00  0.00     0.034 A 
HETATM   11 CL   UNL     1     -39.271  49.838 -54.341  1.00  0.00    -0.084 Cl
HETATM   12  C   UNL     1     -39.525  51.590 -52.308  1.00  0.00     0.024 A 
HETATM   13  C   UNL     1     -40.004  52.765 -51.720  1.00  0.00     0.010 A 
ENDBRANCH   6   7
ENDBRANCH   3   6
ENDBRANCH   2   3
BRANCH   2  14
HETATM   14  C   UNL     1     -42.412  57.171 -54.567  1.00  0.00     0.138 A 
HETATM   15  N   UNL     1     -42.714  56.253 -55.433  1.00  0.00    -0.232 NA
HETATM   16  C   UNL     1     -42.696  56.614 -56.797  1.00  0.00     0.074 A 
HETATM   17  C   UNL     1     -42.353  57.900 -57.231  1.00  0.00     0.061 A 
HETATM   18  C   UNL     1     -43.028  55.655 -57.755  1.00  0.00     0.032 A 
HETATM   19  C   UNL     1     -42.016  58.894 -56.199  1.00  0.00     0.259 A 
HETATM   20  C   UNL     1     -42.333  58.235 -58.587  1.00  0.00     0.019 A 
HETATM   21  O   UNL     1     -41.690  60.043 -56.461  1.00  0.00    -0.267 OA
HETATM   22  N   UNL     1     -42.081  58.453 -54.900  1.00  0.00    -0.309 N 
HETATM   23  H   UNL     1     -41.853  59.166 -54.219  1.00  0.00     0.170 HD
HETATM   24  C   UNL     1     -42.665  57.266 -59.531  1.00  0.00     0.001 A 
HETATM   25  C   UNL     1     -43.014  55.979 -59.116  1.00  0.00     0.002 A 
ENDBRANCH   2  14
TORSDOF 4
ENDMDL
MODEL 3
REMARK VINA RESULT:      -7.8      3.896      8.565
REMARK  4 active torsions:
REMARK  status: ('A' for Active; 'I' for Inactive)
REMARK    1  A    between atoms: C_2  and  N_3 
REMARK    2  A    between atoms: C_2  and  C_14 
REMARK    3  A    between atoms: N_3  and  C_6 
REMARK    4  A    between atoms: C_6  and  C_7 
ROOT
HETATM    1  C   UNL     1     -41.170  56.760 -53.978  1.00  0.00     0.048 C 
HETATM    2  C   UNL     1     -41.835  55.475 -54.450  1.00  0.00     0.251 C 
ENDROOT
BRANCH   2   3
HETATM    3  N   UNL     1     -41.637  55.358 -55.941  1.00  0.00    -0.060 N 
HETATM    4  H   UNL     1     -40.880  55.964 -56.280  1.00  0.00     0.278 HD
HETATM    5  H   UNL     1     -41.336  54.384 -56.114  1.00  0.00     0.278 HD
BRANCH   3   6
HETATM    6  C   UNL     1     -42.858  55.586 -56.763  1.00  0.00     0.271 C 
BRANCH   6   7
HETATM    7  C   UNL     1     -42.582  56.573 -57.862  1.00  0.00    -0.033 A 
HETATM    8  C   UNL     1     -42.239  57.900 -57.553  1.00  0.00     0.010 A 
HETATM    9  C   UNL     1     -42.018  58.829 -58.576  1.00  0.00     0.024 A 
HETATM   10  C   UNL     1     -42.141  58.439 -59.907  1.00  0.00     0.034 A 
HETATM   11 CL   UNL     1     -41.871  59.582 -61.161  1.00  0.00    -0.084 Cl
HETATM   12  C   UNL     1     -42.484  57.127 -60.226  1.00  0.00     0.024 A 
HETATM   13  C   UNL     1     -42.709  56.196 -59.208  1.00  0.00     0.010 A 
ENDBRANCH   6   7
ENDBRANCH   3   6
ENDBRANCH   2   3
BRANCH   2  14
HETATM   14  C   UNL     1     -41.204  54.270 -53.743  1.00  0.00     0.138 A 
HETATM   15  N   UNL     1     -41.084  53.160 -54.405  1.00  0.00    -0.232 NA
HETATM   16  C   UNL     1     -40.492  52.067 -53.740  1.00  0.00     0.074 A 
HETATM   17  C   UNL     1     -40.056  52.139 -52.412  1.00  0.00     0.061 A 
HETATM   18  C   UNL     1     -40.334  50.862 -54.427  1.00  0.00     0.032 A 
HETATM   19  C   UNL     1     -40.226  53.424 -51.715  1.00  0.00     0.259 A 
HETATM   20  C   UNL     1     -39.480  51.041 -51.769  1.00  0.00     0.019 A 
HETATM   21  O   UNL     1     -39.894  53.600 -50.551  1.00  0.00    -0.267 OA
HETATM   22  N   UNL     1     -40.794  54.434 -52.451  1.00  0.00    -0.309 N 
HETATM   23  H   UNL     1     -40.884  55.304 -51.943  1.00  0.00     0.170 HD
HETATM   24  C   UNL     1     -39.332  49.845 -52.467  1.00  0.00     0.001 A 
HETATM   25  C   UNL     1     -39.757  49.755 -53.794  1.00  0.00     0.002 A 
ENDBRANCH   2  14
TORSDOF 4
ENDMDL
MODEL 4
REMARK VINA RESULT:      -7.7      1.695      2.980
REMARK  4 active torsions:
REMARK  status: ('A' for Active; 'I' for Inactive)
REMARK    1  A    between atoms: C_2  and  N_3 
REMARK    2  A    between atoms: C_2  and  C_14 
REMARK    3  A    between atoms: N_3  and  C_6 
REMARK    4  A    between atoms: C_6  and  C_7 
ROOT
HETATM    1  C   UNL     1     -43.034  56.078 -54.061  1.00  0.00     0.048 C 
HETATM    2  C   UNL     1     -42.010  55.608 -55.084  1.00  0.00     0.251 C 
ENDROOT
BRANCH   2   3
HETATM    3  N   UNL     1     -41.827  54.119 -54.922  1.00  0.00    -0.060 N 
HETATM    4  H   UNL     1     -42.252  53.769 -54.056  1.00  0.00     0.278 HD
HETATM    5  H   UNL     1     -42.343  53.681 -55.704  1.00  0.00     0.278 HD
BRANCH   3   6
HETATM    6  C   UNL     1     -40.419  53.640 -55.013  1.00  0.00     0.271 C 
BRANCH   6   7
HETATM    7  C   UNL     1     -40.128  52.642 -53.928  1.00  0.00    -0.033 A 
HETATM    8  C   UNL     1     -39.911  51.290 -54.247  1.00  0.00     0.010 A 
HETATM    9  C   UNL     1     -39.676  50.354 -53.235  1.00  0.00     0.024 A 
HETATM   10  C   UNL     1     -39.657  50.761 -51.903  1.00  0.00     0.034 A 
HETATM   11 CL   UNL     1     -39.370  49.609 -50.661  1.00  0.00    -0.084 Cl
HETATM   12  C   UNL     1     -39.874  52.096 -51.573  1.00  0.00     0.024 A 
HETATM   13  C   UNL     1     -40.113  53.035 -52.581  1.00  0.00     0.010 A 
ENDBRANCH   6   7
ENDBRANCH   3   6
ENDBRANCH   2   3
BRANCH   2  14
HETATM   14  C   UNL     1     -42.505  55.922 -56.501  1.00  0.00     0.138 A 
HETATM   15  N   UNL     1     -43.175  55.010 -57.136  1.00  0.00    -0.232 NA
HETATM   16  C   UNL     1     -43.630  55.323 -58.435  1.00  0.00     0.074 A 
HETATM   17  C   UNL     1     -43.370  56.555 -59.047  1.00  0.00     0.061 A 
HETATM   18  C   UNL     1     -44.365  54.370 -59.141  1.00  0.00     0.032 A 
HETATM   19  C   UNL     1     -42.602  57.544 -58.275  1.00  0.00     0.259 A 
HETATM   20  C   UNL     1     -43.823  56.841 -60.336  1.00  0.00     0.019 A 
HETATM   21  O   UNL     1     -42.305  58.647 -58.713  1.00  0.00    -0.267 OA
HETATM   22  N   UNL     1     -42.220  57.154 -57.015  1.00  0.00    -0.309 N 
HETATM   23  H   UNL     1     -41.703  57.864 -56.511  1.00  0.00     0.170 HD
HETATM   24  C   UNL     1     -44.553  55.878 -61.030  1.00  0.00     0.001 A 
HETATM   25  C   UNL     1     -44.825  54.646 -60.434  1.00  0.00     0.002 A 
ENDBRANCH   2  14
TORSDOF 4
ENDMDL
MODEL 5
REMARK VINA RESULT:      -7.6      4.101      7.919
REMARK  4 active torsions:
REMARK  status: ('A' for Active; 'I' for Inactive)
REMARK    1  A    between atoms: C_2  and  N_3 
REMARK    2  A    between atoms: C_2  and  C_14 
REMARK    3  A    between atoms: N_3  and  C_6 
REMARK    4  A    between atoms: C_6  and  C_7 
ROOT
HETATM    1  C   UNL     1     -42.214  57.541 -52.272  1.00  0.00     0.048 C 
HETATM    2  C   UNL     1     -43.019  56.270 -52.043  1.00  0.00     0.251 C 
ENDROOT
BRANCH   2   3
HETATM    3  N   UNL     1     -44.029  56.140 -53.155  1.00  0.00    -0.060 N 
HETATM    4  H   UNL     1     -43.863  55.309 -53.735  1.00  0.00     0.278 HD
HETATM    5  H   UNL     1     -44.945  56.002 -52.695  1.00  0.00     0.278 HD
BRANCH   3   6
HETATM    6  C   UNL     1     -44.164  57.337 -54.033  1.00  0.00     0.271 C 
BRANCH   6   7
HETATM    7  C   UNL     1     -43.848  56.988 -55.459  1.00  0.00    -0.033 A 
HETATM    8  C   UNL     1     -44.316  57.797 -56.509  1.00  0.00     0.010 A 
HETATM    9  C   UNL     1     -44.054  57.451 -57.838  1.00  0.00     0.024 A 
HETATM   10  C   UNL     1     -43.326  56.300 -58.127  1.00  0.00     0.034 A 
HETATM   11 CL   UNL     1     -43.006  55.877 -59.761  1.00  0.00    -0.084 Cl
HETATM   12  C   UNL     1     -42.858  55.488 -57.097  1.00  0.00     0.024 A 
HETATM   13  C   UNL     1     -43.121  55.826 -55.766  1.00  0.00     0.010 A 
ENDBRANCH   6   7
ENDBRANCH   3   6
ENDBRANCH   2   3
BRANCH   2  14
HETATM   14  C   UNL     1     -42.085  55.053 -52.041  1.00  0.00     0.138 A 
HETATM   15  N   UNL     1     -42.020  54.325 -53.114  1.00  0.00    -0.232 NA
HETATM   16  C   UNL     1     -41.146  53.217 -53.095  1.00  0.00     0.074 A 
HETATM   17  C   UNL     1     -40.380  52.881 -51.973  1.00  0.00     0.061 A 
HETATM   18  C   UNL     1     -41.041  52.420 -54.236  1.00  0.00     0.032 A 
HETATM   19  C   UNL     1     -40.503  53.744 -50.788  1.00  0.00     0.259 A 
HETATM   20  C   UNL     1     -39.528  51.775 -51.974  1.00  0.00     0.019 A 
HETATM   21  O   UNL     1     -39.892  53.540 -49.748  1.00  0.00    -0.267 OA
HETATM   22  N   UNL     1     -41.363  54.808 -50.909  1.00  0.00    -0.309 N 
HETATM   23  H   UNL     1     -41.413  55.385 -50.079  1.00  0.00     0.170 HD
HETATM   24  C   UNL     1     -39.436  50.987 -53.119  1.00  0.00     0.001 A 
HETATM   25  C   UNL     1     -40.190  51.310 -54.249  1.00  0.00     0.002 A 
ENDBRANCH   2  14
TORSDOF 4
ENDMDL
MODEL 6
REMARK VINA RESULT:      -7.5      1.604      2.378
REMARK  4 active torsions:
REMARK  status: ('A' for Active; 'I' for Inactive)
REMARK    1  A    between atoms: C_2  and  N_3 
REMARK    2  A    between atoms: C_2  and  C_14 
REMARK    3  A    between atoms: N_3  and  C_6 
REMARK    4  A    between atoms: C_6  and  C_7 
ROOT
HETATM    1  C   UNL     1     -43.181  54.418 -56.136  1.00  0.00     0.048 C 
HETATM    2  C   UNL     1     -42.986  55.674 -55.298  1.00  0.00     0.251 C 
ENDROOT
BRANCH   2   3
HETATM    3  N   UNL     1     -41.836  55.439 -54.351  1.00  0.00    -0.060 N 
HETATM    4  H   UNL     1     -41.449  56.316 -53.985  1.00  0.00     0.278 HD
HETATM    5  H   UNL     1     -42.231  54.929 -53.543  1.00  0.00     0.278 HD
BRANCH   3   6
HETATM    6  C   UNL     1     -40.731  54.598 -54.892  1.00  0.00     0.271 C 
BRANCH   6   7
HETATM    7  C   UNL     1     -40.383  53.496 -53.932  1.00  0.00    -0.033 A 
HETATM    8  C   UNL     1     -40.047  52.218 -54.410  1.00  0.00     0.010 A 
HETATM    9  C   UNL     1     -39.760  51.182 -53.516  1.00  0.00     0.024 A 
HETATM   10  C   UNL     1     -39.807  51.415 -52.144  1.00  0.00     0.034 A 
HETATM   11 CL   UNL     1     -39.455  50.140 -51.047  1.00  0.00    -0.084 Cl
HETATM   12  C   UNL     1     -40.142  52.676 -51.657  1.00  0.00     0.024 A 
HETATM   13  C   UNL     1     -40.434  53.714 -52.547  1.00  0.00     0.010 A 
ENDBRANCH   6   7
ENDBRANCH   3   6
ENDBRANCH   2   3
BRANCH   2  14
HETATM   14  C   UNL     1     -42.676  56.868 -56.210  1.00  0.00     0.138 A 
HETATM   15  N   UNL     1     -42.700  56.684 -57.494  1.00  0.00    -0.232 NA
HETATM   16  C   UNL     1     -42.422  57.798 -58.315  1.00  0.00     0.074 A 
HETATM   17  C   UNL     1     -42.114  59.059 -57.793  1.00  0.00     0.061 A 
HETATM   18  C   UNL     1     -42.452  57.640 -59.701  1.00  0.00     0.032 A 
HETATM   19  C   UNL     1     -42.099  59.200 -56.329  1.00  0.00     0.259 A 
HETATM   20  C   UNL     1     -41.834  60.147 -58.624  1.00  0.00     0.019 A 
HETATM   21  O   UNL     1     -41.831  60.250 -55.762  1.00  0.00    -0.267 OA
HETATM   22  N   UNL     1     -42.401  58.066 -55.616  1.00  0.00    -0.309 N 
HETATM   23  H   UNL     1     -42.391  58.203 -54.613  1.00  0.00     0.170 HD
HETATM   24  C   UNL     1     -41.865  59.972 -60.006  1.00  0.00     0.001 A 
HETATM   25  C   UNL     1     -42.175  58.722 -60.544  1.00  0.00     0.002 A 
ENDBRANCH   2  14
TORSDOF 4
ENDMDL
MODEL 7
REMARK VINA RESULT:      -7.4     15.544     17.958
REMARK  4 active torsions:
REMARK  status: ('A' for Active; 'I' for Inactive)
REMARK    1  A    between atoms: C_2  and  N_3 
REMARK    2  A    between atoms: C_2  and  C_14 
REMARK    3  A    between atoms: N_3  and  C_6 
REMARK    4  A    between atoms: C_6  and  C_7 
ROOT
HETATM    1  C   UNL     1     -35.205  42.620 -56.159  1.00  0.00     0.048 C 
HETATM    2  C   UNL     1     -35.841  41.976 -54.936  1.00  0.00     0.251 C 
ENDROOT
BRANCH   2   3
HETATM    3  N   UNL     1     -36.790  40.901 -55.406  1.00  0.00    -0.060 N 
HETATM    4  H   UNL     1     -36.304  40.144 -55.900  1.00  0.00     0.278 HD
HETATM    5  H   UNL     1     -37.196  40.484 -54.551  1.00  0.00     0.278 HD
BRANCH   3   6
HETATM    6  C   UNL     1     -37.931  41.381 -56.235  1.00  0.00     0.271 C 
BRANCH   6   7
HETATM    7  C   UNL     1     -37.837  40.839 -57.633  1.00  0.00    -0.033 A 
HETATM    8  C   UNL     1     -38.100  39.482 -57.887  1.00  0.00     0.010 A 
HETATM    9  C   UNL     1     -37.976  38.969 -59.182  1.00  0.00     0.024 A 
HETATM   10  C   UNL     1     -37.590  39.805 -60.227  1.00  0.00     0.034 A 
HETATM   11 CL   UNL     1     -37.437  39.173 -61.817  1.00  0.00    -0.084 Cl
HETATM   12  C   UNL     1     -37.323  41.151 -59.988  1.00  0.00     0.024 A 
HETATM   13  C   UNL     1     -37.442  41.667 -58.694  1.00  0.00     0.010 A 
ENDBRANCH   6   7
ENDBRANCH   3   6
ENDBRANCH   2   3
BRANCH   2  14
HETATM   14  C   UNL     1     -34.756  41.361 -54.044  1.00  0.00     0.138 A 
HETATM   15  N   UNL     1     -34.987  41.264 -52.771  1.00  0.00    -0.232 NA
HETATM   16  C   UNL     1     -33.979  40.686 -51.970  1.00  0.00     0.074 A 
HETATM   17  C   UNL     1     -32.762  40.240 -52.497  1.00  0.00     0.061 A 
HETATM   18  C   UNL     1     -34.199  40.554 -50.598  1.00  0.00     0.032 A 
HETATM   19  C   UNL     1     -32.561  40.383 -53.947  1.00  0.00     0.259 A 
HETATM   20  C   UNL     1     -31.774  39.678 -51.684  1.00  0.00     0.019 A 
HETATM   21  O   UNL     1     -31.533  40.040 -54.515  1.00  0.00    -0.267 OA
HETATM   22  N   UNL     1     -33.605  40.939 -54.644  1.00  0.00    -0.309 N 
HETATM   23  H   UNL     1     -33.434  41.011 -55.639  1.00  0.00     0.170 HD
HETATM   24  C   UNL     1     -32.008  39.555 -50.317  1.00  0.00     0.001 A 
HETATM   25  C   UNL     1     -33.218  39.990 -49.774  1.00  0.00     0.002 A 
ENDBRANCH   2  14
TORSDOF 4
ENDMDL
MODEL 8
REMARK VINA RESULT:      -7.3      3.989      8.124
REMARK  4 active torsions:
REMARK  status: ('A' for Active; 'I' for Inactive)
REMARK    1  A    between atoms: C_2  and  N_3 
REMARK    2  A    between atoms: C_2  and  C_14 
REMARK    3  A    between atoms: N_3  and  C_6 
REMARK    4  A    between atoms: C_6  and  C_7 
ROOT
HETATM    1  C   UNL     1     -41.277  58.088 -53.665  1.00  0.00     0.048 C 
HETATM    2  C   UNL     1     -42.110  56.858 -54.000  1.00  0.00     0.251 C 
ENDROOT
BRANCH   2   3
HETATM    3  N   UNL     1     -42.112  56.682 -55.499  1.00  0.00    -0.060 N 
HETATM    4  H   UNL     1     -41.166  56.714 -55.894  1.00  0.00     0.278 HD
HETATM    5  H   UNL     1     -42.474  55.729 -55.674  1.00  0.00     0.278 HD
BRANCH   3   6
HETATM    6  C   UNL     1     -42.993  57.622 -56.247  1.00  0.00     0.271 C 
BRANCH   6   7
HETATM    7  C   UNL     1     -43.545  56.965 -57.480  1.00  0.00    -0.033 A 
HETATM    8  C   UNL     1     -43.101  55.688 -57.864  1.00  0.00     0.010 A 
HETATM    9  C   UNL     1     -43.586  55.093 -59.032  1.00  0.00     0.024 A 
HETATM   10  C   UNL     1     -44.515  55.766 -59.822  1.00  0.00     0.034 A 
HETATM   11 CL   UNL     1     -45.110  55.033 -61.257  1.00  0.00    -0.084 Cl
HETATM   12  C   UNL     1     -44.961  57.033 -59.455  1.00  0.00     0.024 A 
HETATM   13  C   UNL     1     -44.476  57.635 -58.290  1.00  0.00     0.010 A 
ENDBRANCH   6   7
ENDBRANCH   3   6
ENDBRANCH   2   3
BRANCH   2  14
HETATM   14  C   UNL     1     -41.506  55.619 -53.329  1.00  0.00     0.138 A 
HETATM   15  N   UNL     1     -41.175  54.612 -54.079  1.00  0.00    -0.232 NA
HETATM   16  C   UNL     1     -40.611  53.486 -53.443  1.00  0.00     0.074 A 
HETATM   17  C   UNL     1     -40.420  53.420 -52.058  1.00  0.00     0.061 A 
HETATM   18  C   UNL     1     -40.231  52.391 -54.220  1.00  0.00     0.032 A 
HETATM   19  C   UNL     1     -40.821  54.593 -51.265  1.00  0.00     0.259 A 
HETATM   20  C   UNL     1     -39.868  52.292 -51.448  1.00  0.00     0.019 A 
HETATM   21  O   UNL     1     -40.712  54.643 -50.047  1.00  0.00    -0.267 OA
HETATM   22  N   UNL     1     -41.341  55.647 -51.975  1.00  0.00    -0.309 N 
HETATM   23  H   UNL     1     -41.595  56.438 -51.397  1.00  0.00     0.170 HD
HETATM   24  C   UNL     1     -39.496  51.206 -52.237  1.00  0.00     0.001 A 
HETATM   25  C   UNL     1     -39.675  51.255 -53.620  1.00  0.00     0.002 A 
ENDBRANCH   2  14
TORSDOF 4
ENDMDL
MODEL 9
REMARK VINA RESULT:      -7.3      1.527      1.774
REMARK  4 active torsions:
REMARK  status: ('A' for Active; 'I' for Inactive)
REMARK    1  A    between atoms: C_2  and  N_3 
REMARK    2  A    between atoms: C_2  and  C_14 
REMARK    3  A    between atoms: N_3  and  C_6 
REMARK    4  A    between atoms: C_6  and  C_7 
ROOT
HETATM    1  C   UNL     1     -44.175  57.554 -53.498  1.00  0.00     0.048 C 
HETATM    2  C   UNL     1     -42.866  56.957 -53.997  1.00  0.00     0.251 C 
ENDROOT
BRANCH   2   3
HETATM    3  N   UNL     1     -42.782  55.530 -53.515  1.00  0.00    -0.060 N 
HETATM    4  H   UNL     1     -43.638  55.232 -53.034  1.00  0.00     0.278 HD
HETATM    5  H   UNL     1     -42.702  54.946 -54.365  1.00  0.00     0.278 HD
BRANCH   3   6
HETATM    6  C   UNL     1     -41.601  55.217 -52.663  1.00  0.00     0.271 C 
BRANCH   6   7
HETATM    7  C   UNL     1     -41.035  53.870 -53.014  1.00  0.00    -0.033 A 
HETATM    8  C   UNL     1     -40.330  53.124 -52.054  1.00  0.00     0.010 A 
HETATM    9  C   UNL     1     -39.771  51.887 -52.391  1.00  0.00     0.024 A 
HETATM   10  C   UNL     1     -39.912  51.390 -53.684  1.00  0.00     0.034 A 
HETATM   11 CL   UNL     1     -39.223  49.871 -54.096  1.00  0.00    -0.084 Cl
HETATM   12  C   UNL     1     -40.605  52.120 -54.646  1.00  0.00     0.024 A 
HETATM   13  C   UNL     1     -41.162  53.359 -54.315  1.00  0.00     0.010 A 
ENDBRANCH   6   7
ENDBRANCH   3   6
ENDBRANCH   2   3
BRANCH   2  14
HETATM   14  C   UNL     1     -42.826  56.994 -55.530  1.00  0.00     0.138 A 
HETATM   15  N   UNL     1     -42.439  58.089 -56.109  1.00  0.00    -0.232 NA
HETATM   16  C   UNL     1     -42.399  58.098 -57.520  1.00  0.00     0.074 A 
HETATM   17  C   UNL     1     -42.771  56.992 -58.291  1.00  0.00     0.061 A 
HETATM   18  C   UNL     1     -41.975  59.255 -58.176  1.00  0.00     0.032 A 
HETATM   19  C   UNL     1     -43.204  55.783 -57.573  1.00  0.00     0.259 A 
HETATM   20  C   UNL     1     -42.731  57.025 -59.687  1.00  0.00     0.019 A 
HETATM   21  O   UNL     1     -43.563  54.761 -58.142  1.00  0.00    -0.267 OA
HETATM   22  N   UNL     1     -43.191  55.864 -56.202  1.00  0.00    -0.309 N 
HETATM   23  H   UNL     1     -43.485  55.011 -55.743  1.00  0.00     0.170 HD
HETATM   24  C   UNL     1     -42.309  58.188 -60.327  1.00  0.00     0.001 A 
HETATM   25  C   UNL     1     -41.930  59.300 -59.574  1.00  0.00     0.002 A 
ENDBRANCH   2  14
TORSDOF 4
ENDMDL
MODEL 10
REMARK VINA RESULT:      -7.2      4.560      7.990
REMARK  4 active torsions:
REMARK  status: ('A' for Active; 'I' for Inactive)
REMARK    1  A    between atoms: C_2  and  N_3 
REMARK    2  A    between atoms: C_2  and  C_14 
REMARK    3  A    between atoms: N_3  and  C_6 
REMARK    4  A    between atoms: C_6  and  C_7 
ROOT
HETATM    1  C   UNL     1     -41.123  54.902 -48.994  1.00  0.00     0.048 C 
HETATM    2  C   UNL     1     -41.412  55.359 -50.417  1.00  0.00     0.251 C 
ENDROOT
BRANCH   2   3
HETATM    3  N   UNL     1     -40.594  56.596 -50.694  1.00  0.00    -0.060 N 
HETATM    4  H   UNL     1     -39.793  56.681 -50.057  1.00  0.00     0.278 HD
HETATM    5  H   UNL     1     -40.204  56.474 -51.644  1.00  0.00     0.278 HD
BRANCH   3   6
HETATM    6  C   UNL     1     -41.358  57.874 -50.702  1.00  0.00     0.271 C 
BRANCH   6   7
HETATM    7  C   UNL     1     -42.357  57.889 -51.824  1.00  0.00    -0.033 A 
HETATM    8  C   UNL     1     -43.733  57.816 -51.552  1.00  0.00     0.010 A 
HETATM    9  C   UNL     1     -44.661  57.792 -52.598  1.00  0.00     0.024 A 
HETATM   10  C   UNL     1     -44.220  57.840 -53.918  1.00  0.00     0.034 A 
HETATM   11 CL   UNL     1     -45.361  57.810 -55.202  1.00  0.00    -0.084 Cl
HETATM   12  C   UNL     1     -42.859  57.910 -54.203  1.00  0.00     0.024 A 
HETATM   13  C   UNL     1     -41.927  57.930 -53.160  1.00  0.00     0.010 A 
ENDBRANCH   6   7
ENDBRANCH   3   6
ENDBRANCH   2   3
BRANCH   2  14
HETATM   14  C   UNL     1     -41.036  54.251 -51.409  1.00  0.00     0.138 A 
HETATM   15  N   UNL     1     -40.578  53.132 -50.938  1.00  0.00    -0.232 NA
HETATM   16  C   UNL     1     -40.248  52.123 -51.866  1.00  0.00     0.074 A 
HETATM   17  C   UNL     1     -40.383  52.297 -53.248  1.00  0.00     0.061 A 
HETATM   18  C   UNL     1     -39.764  50.901 -51.393  1.00  0.00     0.032 A 
HETATM   19  C   UNL     1     -40.904  53.590 -53.718  1.00  0.00     0.259 A 
HETATM   20  C   UNL     1     -40.043  51.287 -54.151  1.00  0.00     0.019 A 
HETATM   21  O   UNL     1     -41.052  53.860 -54.902  1.00  0.00    -0.267 OA
HETATM   22  N   UNL     1     -41.215  54.502 -52.739  1.00  0.00    -0.309 N 
HETATM   23  H   UNL     1     -41.580  55.374 -53.099  1.00  0.00     0.170 HD
HETATM   24  C   UNL     1     -39.559  50.075 -53.663  1.00  0.00     0.001 A 
HETATM   25  C   UNL     1     -39.422  49.881 -52.288  1.00  0.00     0.002 A 
ENDBRANCH   2  14
TORSDOF 4
ENDMDL
