MODEL 1
REMARK VINA RESULT:      -7.6      0.000      0.000
REMARK  6 active torsions:
REMARK  status: ('A' for Active; 'I' for Inactive)
REMARK    1  A    between atoms: C_2  and  C_3 
REMARK    2  A    between atoms: C_7  and  C_8 
REMARK       I    between atoms: C_8  and  N_9 
REMARK    3  A    between atoms: N_9  and  C_10 
REMARK    4  A    between atoms: C_10  and  C_11 
REMARK    5  A    between atoms: C_11  and  N_12 
REMARK    6  A    between atoms: C_15  and  C_16 
ROOT
HETATM    1  C   UNL     1     -42.904  58.191 -52.783  1.00  0.00     0.150 C 
ENDROOT
BRANCH   1   2
HETATM    2  N   UNL     1     -42.803  57.831 -54.178  1.00  0.00    -0.354 N 
HETATM    3  C   UNL     1     -43.860  57.308 -54.897  1.00  0.00     0.272 C 
HETATM    4  O   UNL     1     -44.977  57.172 -54.404  1.00  0.00    -0.266 OA
HETATM    5  H   UNL     1     -41.910  57.805 -54.673  1.00  0.00     0.162 HD
BRANCH   3   6
HETATM    6  C   UNL     1     -43.517  56.985 -56.290  1.00  0.00     0.152 A 
HETATM    7  N   UNL     1     -42.422  56.248 -56.571  1.00  0.00    -0.169 NA
HETATM    8  N   UNL     1     -42.425  56.161 -57.912  1.00  0.00    -0.281 N 
HETATM    9  C   UNL     1     -43.455  56.832 -58.507  1.00  0.00     0.036 A 
HETATM   10  H   UNL     1     -41.684  55.633 -58.364  1.00  0.00     0.189 HD
HETATM   11  C   UNL     1     -44.198  57.382 -57.479  1.00  0.00    -0.002 A 
HETATM   12  C   UNL     1     -45.425  58.213 -57.579  1.00  0.00     0.053 C 
BRANCH   9  13
HETATM   13  C   UNL     1     -43.614  56.876 -59.989  1.00  0.00     0.055 C 
HETATM   14  C   UNL     1     -44.391  55.674 -60.502  1.00  0.00     0.011 C 
ENDBRANCH   9  13
ENDBRANCH   3   6
ENDBRANCH   1   2
BRANCH   1  15
HETATM   15  C   UNL     1     -41.920  57.411 -51.892  1.00  0.00     0.254 C 
BRANCH  15  16
HETATM   16  N   UNL     1     -42.603  56.798 -50.682  1.00  0.00    -0.069 N 
HETATM   17  H   UNL     1     -42.680  57.533 -49.966  1.00  0.00     0.280 HD
HETATM   18  C   UNL     1     -41.773  55.667 -50.080  1.00  0.00     0.244 C 
HETATM   19  C   UNL     1     -42.454  54.372 -50.546  1.00  0.00     0.046 C 
HETATM   20  C   UNL     1     -43.921  54.795 -50.421  1.00  0.00     0.039 C 
HETATM   21  C   UNL     1     -43.972  56.216 -50.966  1.00  0.00     0.235 C 
BRANCH  19  22
HETATM   22  C   UNL     1     -41.955  53.902 -51.912  1.00  0.00    -0.046 A 
HETATM   23  C   UNL     1     -40.741  53.179 -52.039  1.00  0.00    -0.055 A 
HETATM   24  C   UNL     1     -39.884  52.756 -50.871  1.00  0.00     0.049 C 
HETATM   25  C   UNL     1     -40.263  52.836 -53.319  1.00  0.00     0.007 A 
HETATM   26  C   UNL     1     -40.990  53.139 -54.465  1.00  0.00     0.001 A 
HETATM   27  C   UNL     1     -42.213  53.782 -54.347  1.00  0.00     0.001 A 
HETATM   28  C   UNL     1     -42.692  54.151 -53.088  1.00  0.00     0.008 A 
ENDBRANCH  19  22
ENDBRANCH  15  16
ENDBRANCH   1  15
TORSDOF 6
ENDMDL
MODEL 2
REMARK VINA RESULT:      -7.5      2.223      3.205
REMARK  6 active torsions:
REMARK  status: ('A' for Active; 'I' for Inactive)
REMARK    1  A    between atoms: C_2  and  C_3 
REMARK    2  A    between atoms: C_7  and  C_8 
REMARK       I    between atoms: C_8  and  N_9 
REMARK    3  A    between atoms: N_9  and  C_10 
REMARK    4  A    between atoms: C_10  and  C_11 
REMARK    5  A    between atoms: C_11  and  N_12 
REMARK    6  A    between atoms: C_15  and  C_16 
ROOT
HETATM    1  C   UNL     1     -42.456  55.436 -56.242  1.00  0.00     0.150 C 
ENDROOT
BRANCH   1   2
HETATM    2  N   UNL     1     -43.350  55.440 -57.375  1.00  0.00    -0.354 N 
HETATM    3  C   UNL     1     -43.320  56.418 -58.350  1.00  0.00     0.272 C 
HETATM    4  O   UNL     1     -42.484  57.318 -58.343  1.00  0.00    -0.266 OA
HETATM    5  H   UNL     1     -44.148  54.807 -57.445  1.00  0.00     0.162 HD
BRANCH   3   6
HETATM    6  C   UNL     1     -44.344  56.237 -59.390  1.00  0.00     0.152 A 
HETATM    7  N   UNL     1     -44.064  55.547 -60.515  1.00  0.00    -0.169 NA
HETATM    8  N   UNL     1     -45.208  55.592 -61.218  1.00  0.00    -0.281 N 
HETATM    9  C   UNL     1     -46.203  56.303 -60.609  1.00  0.00     0.036 A 
HETATM   10  H   UNL     1     -45.242  55.120 -62.117  1.00  0.00     0.189 HD
HETATM   11  C   UNL     1     -45.680  56.739 -59.406  1.00  0.00    -0.002 A 
HETATM   12  C   UNL     1     -46.347  57.558 -58.362  1.00  0.00     0.053 C 
BRANCH   9  13
HETATM   13  C   UNL     1     -47.538  56.489 -61.245  1.00  0.00     0.055 C 
HETATM   14  C   UNL     1     -47.841  57.960 -61.485  1.00  0.00     0.011 C 
ENDBRANCH   9  13
ENDBRANCH   3   6
ENDBRANCH   1   2
BRANCH   1  15
HETATM   15  C   UNL     1     -43.009  54.635 -55.047  1.00  0.00     0.254 C 
BRANCH  15  16
HETATM   16  N   UNL     1     -43.016  55.449 -53.766  1.00  0.00    -0.069 N 
HETATM   17  H   UNL     1     -43.524  56.323 -53.958  1.00  0.00     0.280 HD
HETATM   18  C   UNL     1     -41.602  55.835 -53.337  1.00  0.00     0.244 C 
HETATM   19  C   UNL     1     -41.253  54.880 -52.186  1.00  0.00     0.046 C 
HETATM   20  C   UNL     1     -42.606  54.839 -51.468  1.00  0.00     0.039 C 
HETATM   21  C   UNL     1     -43.642  54.745 -52.580  1.00  0.00     0.235 C 
BRANCH  19  22
HETATM   22  C   UNL     1     -40.657  53.561 -52.674  1.00  0.00    -0.046 A 
HETATM   23  C   UNL     1     -40.214  52.574 -51.758  1.00  0.00    -0.055 A 
HETATM   24  C   UNL     1     -40.344  52.693 -50.259  1.00  0.00     0.049 C 
HETATM   25  C   UNL     1     -39.589  51.406 -52.237  1.00  0.00     0.007 A 
HETATM   26  C   UNL     1     -39.451  51.170 -53.601  1.00  0.00     0.001 A 
HETATM   27  C   UNL     1     -39.945  52.095 -54.507  1.00  0.00     0.001 A 
HETATM   28  C   UNL     1     -40.546  53.270 -54.050  1.00  0.00     0.008 A 
ENDBRANCH  19  22
ENDBRANCH  15  16
ENDBRANCH   1  15
TORSDOF 6
ENDMDL
MODEL 3
REMARK VINA RESULT:      -7.4      1.896      2.103
REMARK  6 active torsions:
REMARK  status: ('A' for Active; 'I' for Inactive)
REMARK    1  A    between atoms: C_2  and  C_3 
REMARK    2  A    between atoms: C_7  and  C_8 
REMARK       I    between atoms: C_8  and  N_9 
REMARK    3  A    between atoms: N_9  and  C_10 
REMARK    4  A    between atoms: C_10  and  C_11 
REMARK    5  A    between atoms: C_11  and  N_12 
REMARK    6  A    between atoms: C_15  and  C_16 
ROOT
HETATM    1  C   UNL     1     -42.776  58.622 -52.189  1.00  0.00     0.150 C 
ENDROOT
BRANCH   1   2
HETATM    2  N   UNL     1     -42.804  58.747 -53.628  1.00  0.00    -0.354 N 
HETATM    3  C   UNL     1     -41.724  59.193 -54.364  1.00  0.00     0.272 C 
HETATM    4  O   UNL     1     -40.644  59.456 -53.840  1.00  0.00    -0.266 OA
HETATM    5  H   UNL     1     -43.666  58.654 -54.169  1.00  0.00     0.162 HD
BRANCH   3   6
HETATM    6  C   UNL     1     -41.993  59.272 -55.807  1.00  0.00     0.152 A 
HETATM    7  N   UNL     1     -41.820  60.432 -56.474  1.00  0.00    -0.169 NA
HETATM    8  N   UNL     1     -42.158  60.134 -57.739  1.00  0.00    -0.281 N 
HETATM    9  C   UNL     1     -42.567  58.842 -57.912  1.00  0.00     0.036 A 
HETATM   10  H   UNL     1     -42.096  60.865 -58.442  1.00  0.00     0.189 HD
HETATM   11  C   UNL     1     -42.470  58.241 -56.671  1.00  0.00    -0.002 A 
HETATM   12  C   UNL     1     -42.796  56.839 -56.305  1.00  0.00     0.053 C 
BRANCH   9  13
HETATM   13  C   UNL     1     -43.009  58.328 -59.240  1.00  0.00     0.055 C 
HETATM   14  C   UNL     1     -41.835  57.814 -60.058  1.00  0.00     0.011 C 
ENDBRANCH   9  13
ENDBRANCH   3   6
ENDBRANCH   1   2
BRANCH   1  15
HETATM   15  C   UNL     1     -41.988  57.387 -51.713  1.00  0.00     0.254 C 
BRANCH  15  16
HETATM   16  N   UNL     1     -42.664  56.693 -50.543  1.00  0.00    -0.069 N 
HETATM   17  H   UNL     1     -42.745  57.380 -49.782  1.00  0.00     0.280 HD
HETATM   18  C   UNL     1     -41.822  55.534 -50.015  1.00  0.00     0.244 C 
HETATM   19  C   UNL     1     -42.492  54.264 -50.560  1.00  0.00     0.046 C 
HETATM   20  C   UNL     1     -43.963  54.665 -50.405  1.00  0.00     0.039 C 
HETATM   21  C   UNL     1     -44.028  56.117 -50.860  1.00  0.00     0.235 C 
BRANCH  19  22
HETATM   22  C   UNL     1     -41.993  53.885 -51.953  1.00  0.00    -0.046 A 
HETATM   23  C   UNL     1     -40.747  53.231 -52.131  1.00  0.00    -0.055 A 
HETATM   24  C   UNL     1     -39.852  52.795 -50.997  1.00  0.00     0.049 C 
HETATM   25  C   UNL     1     -40.273  52.973 -53.433  1.00  0.00     0.007 A 
HETATM   26  C   UNL     1     -41.032  53.294 -54.553  1.00  0.00     0.001 A 
HETATM   27  C   UNL     1     -42.282  53.870 -54.388  1.00  0.00     0.001 A 
HETATM   28  C   UNL     1     -42.759  54.154 -53.106  1.00  0.00     0.008 A 
ENDBRANCH  19  22
ENDBRANCH  15  16
ENDBRANCH   1  15
TORSDOF 6
ENDMDL
MODEL 4
REMARK VINA RESULT:      -7.4      2.349      3.434
REMARK  6 active torsions:
REMARK  status: ('A' for Active; 'I' for Inactive)
REMARK    1  A    between atoms: C_2  and  C_3 
REMARK    2  A    between atoms: C_7  and  C_8 
REMARK       I    between atoms: C_8  and  N_9 
REMARK    3  A    between atoms: N_9  and  C_10 
REMARK    4  A    between atoms: C_10  and  C_11 
REMARK    5  A    between atoms: C_11  and  N_12 
REMARK    6  A    between atoms: C_15  and  C_16 
ROOT
HETATM    1  C   UNL     1     -42.520  55.174 -56.522  1.00  0.00     0.150 C 
ENDROOT
BRANCH   1   2
HETATM    2  N   UNL     1     -43.627  55.576 -57.358  1.00  0.00    -0.354 N 
HETATM    3  C   UNL     1     -43.560  56.647 -58.228  1.00  0.00     0.272 C 
HETATM    4  O   UNL     1     -42.527  57.291 -58.389  1.00  0.00    -0.266 OA
HETATM    5  H   UNL     1     -44.566  55.187 -57.248  1.00  0.00     0.162 HD
BRANCH   3   6
HETATM    6  C   UNL     1     -44.818  56.891 -58.951  1.00  0.00     0.152 A 
HETATM    7  N   UNL     1     -45.627  57.909 -58.592  1.00  0.00    -0.169 NA
HETATM    8  N   UNL     1     -46.657  57.824 -59.450  1.00  0.00    -0.281 N 
HETATM    9  C   UNL     1     -46.561  56.781 -60.326  1.00  0.00     0.036 A 
HETATM   10  H   UNL     1     -47.404  58.508 -59.379  1.00  0.00     0.189 HD
HETATM   11  C   UNL     1     -45.368  56.146 -60.037  1.00  0.00    -0.002 A 
HETATM   12  C   UNL     1     -44.784  54.949 -60.695  1.00  0.00     0.053 C 
BRANCH   9  13
HETATM   13  C   UNL     1     -47.620  56.503 -61.339  1.00  0.00     0.055 C 
HETATM   14  C   UNL     1     -48.196  57.790 -61.909  1.00  0.00     0.011 C 
ENDBRANCH   9  13
ENDBRANCH   3   6
ENDBRANCH   1   2
BRANCH   1  15
HETATM   15  C   UNL     1     -42.973  54.607 -55.163  1.00  0.00     0.254 C 
BRANCH  15  16
HETATM   16  N   UNL     1     -42.819  55.617 -54.040  1.00  0.00    -0.069 N 
HETATM   17  H   UNL     1     -43.267  56.491 -54.347  1.00  0.00     0.280 HD
HETATM   18  C   UNL     1     -41.350  55.936 -53.768  1.00  0.00     0.244 C 
HETATM   19  C   UNL     1     -40.995  55.154 -52.495  1.00  0.00     0.046 C 
HETATM   20  C   UNL     1     -42.290  55.356 -51.701  1.00  0.00     0.039 C 
HETATM   21  C   UNL     1     -43.410  55.177 -52.717  1.00  0.00     0.235 C 
BRANCH  19  22
HETATM   22  C   UNL     1     -40.546  53.724 -52.787  1.00  0.00    -0.046 A 
HETATM   23  C   UNL     1     -40.119  52.862 -51.744  1.00  0.00    -0.055 A 
HETATM   24  C   UNL     1     -40.130  53.237 -50.283  1.00  0.00     0.049 C 
HETATM   25  C   UNL     1     -39.628  51.579 -52.055  1.00  0.00     0.007 A 
HETATM   26  C   UNL     1     -39.609  51.112 -53.365  1.00  0.00     0.001 A 
HETATM   27  C   UNL     1     -40.091  51.919 -54.384  1.00  0.00     0.001 A 
HETATM   28  C   UNL     1     -40.560  53.203 -54.098  1.00  0.00     0.008 A 
ENDBRANCH  19  22
ENDBRANCH  15  16
ENDBRANCH   1  15
TORSDOF 6
ENDMDL
MODEL 5
REMARK VINA RESULT:      -7.3      1.946      3.559
REMARK  6 active torsions:
REMARK  status: ('A' for Active; 'I' for Inactive)
REMARK    1  A    between atoms: C_2  and  C_3 
REMARK    2  A    between atoms: C_7  and  C_8 
REMARK       I    between atoms: C_8  and  N_9 
REMARK    3  A    between atoms: N_9  and  C_10 
REMARK    4  A    between atoms: C_10  and  C_11 
REMARK    5  A    between atoms: C_11  and  N_12 
REMARK    6  A    between atoms: C_15  and  C_16 
ROOT
HETATM    1  C   UNL     1     -42.077  57.851 -54.623  1.00  0.00     0.150 C 
ENDROOT
BRANCH   1   2
HETATM    2  N   UNL     1     -43.036  57.515 -55.648  1.00  0.00    -0.354 N 
HETATM    3  C   UNL     1     -42.913  57.937 -56.958  1.00  0.00     0.272 C 
HETATM    4  O   UNL     1     -41.940  58.580 -57.345  1.00  0.00    -0.266 OA
HETATM    5  H   UNL     1     -43.932  57.072 -55.437  1.00  0.00     0.162 HD
BRANCH   3   6
HETATM    6  C   UNL     1     -44.024  57.504 -57.818  1.00  0.00     0.152 A 
HETATM    7  N   UNL     1     -45.283  57.919 -57.572  1.00  0.00    -0.169 NA
HETATM    8  N   UNL     1     -46.014  57.333 -58.534  1.00  0.00    -0.281 N 
HETATM    9  C   UNL     1     -45.286  56.537 -59.372  1.00  0.00     0.036 A 
HETATM   10  H   UNL     1     -47.014  57.511 -58.559  1.00  0.00     0.189 HD
HETATM   11  C   UNL     1     -43.975  56.624 -58.941  1.00  0.00    -0.002 A 
HETATM   12  C   UNL     1     -42.779  55.949 -59.506  1.00  0.00     0.053 C 
BRANCH   9  13
HETATM   13  C   UNL     1     -45.922  55.779 -60.488  1.00  0.00     0.055 C 
HETATM   14  C   UNL     1     -47.279  56.361 -60.854  1.00  0.00     0.011 C 
ENDBRANCH   9  13
ENDBRANCH   3   6
ENDBRANCH   1   2
BRANCH   1  15
HETATM   15  C   UNL     1     -41.580  56.619 -53.842  1.00  0.00     0.254 C 
BRANCH  15  16
HETATM   16  N   UNL     1     -41.580  55.363 -54.695  1.00  0.00    -0.069 N 
HETATM   17  H   UNL     1     -41.937  55.621 -55.625  1.00  0.00     0.280 HD
HETATM   18  C   UNL     1     -42.521  54.301 -54.131  1.00  0.00     0.244 C 
HETATM   19  C   UNL     1     -41.609  53.277 -53.439  1.00  0.00     0.046 C 
HETATM   20  C   UNL     1     -40.452  53.246 -54.444  1.00  0.00     0.039 C 
HETATM   21  C   UNL     1     -40.226  54.700 -54.833  1.00  0.00     0.235 C 
BRANCH  19  22
HETATM   22  C   UNL     1     -41.294  53.651 -51.991  1.00  0.00    -0.046 A 
HETATM   23  C   UNL     1     -42.324  54.034 -51.094  1.00  0.00    -0.055 A 
HETATM   24  C   UNL     1     -43.791  54.044 -51.446  1.00  0.00     0.049 C 
HETATM   25  C   UNL     1     -41.993  54.458 -49.792  1.00  0.00     0.007 A 
HETATM   26  C   UNL     1     -40.676  54.452 -49.344  1.00  0.00     0.001 A 
HETATM   27  C   UNL     1     -39.670  54.012 -50.189  1.00  0.00     0.001 A 
HETATM   28  C   UNL     1     -39.976  53.610 -51.492  1.00  0.00     0.008 A 
ENDBRANCH  19  22
ENDBRANCH  15  16
ENDBRANCH   1  15
TORSDOF 6
ENDMDL
MODEL 6
REMARK VINA RESULT:      -7.0      2.853      5.888
REMARK  6 active torsions:
REMARK  status: ('A' for Active; 'I' for Inactive)
REMARK    1  A    between atoms: C_2  and  C_3 
REMARK    2  A    between atoms: C_7  and  C_8 
REMARK       I    between atoms: C_8  and  N_9 
REMARK    3  A    between atoms: N_9  and  C_10 
REMARK    4  A    between atoms: C_10  and  C_11 
REMARK    5  A    between atoms: C_11  and  N_12 
REMARK    6  A    between atoms: C_15  and  C_16 
ROOT
HETATM    1  C   UNL     1     -42.077  57.287 -54.753  1.00  0.00     0.150 C 
ENDROOT
BRANCH   1   2
HETATM    2  N   UNL     1     -42.382  58.019 -53.547  1.00  0.00    -0.354 N 
HETATM    3  C   UNL     1     -41.753  59.202 -53.208  1.00  0.00     0.272 C 
HETATM    4  O   UNL     1     -40.931  59.736 -53.948  1.00  0.00    -0.266 OA
HETATM    5  H   UNL     1     -42.971  57.634 -52.806  1.00  0.00     0.162 HD
BRANCH   3   6
HETATM    6  C   UNL     1     -42.199  59.752 -51.919  1.00  0.00     0.152 A 
HETATM    7  N   UNL     1     -41.544  59.445 -50.780  1.00  0.00    -0.169 NA
HETATM    8  N   UNL     1     -42.220  60.108 -49.827  1.00  0.00    -0.281 N 
HETATM    9  C   UNL     1     -43.297  60.804 -50.297  1.00  0.00     0.036 A 
HETATM   10  H   UNL     1     -41.898  60.036 -48.866  1.00  0.00     0.189 HD
HETATM   11  C   UNL     1     -43.317  60.601 -51.664  1.00  0.00    -0.002 A 
HETATM   12  C   UNL     1     -44.287  61.134 -52.655  1.00  0.00     0.053 C 
BRANCH   9  13
HETATM   13  C   UNL     1     -44.189  61.580 -49.389  1.00  0.00     0.055 C 
HETATM   14  C   UNL     1     -43.889  63.070 -49.453  1.00  0.00     0.011 C 
ENDBRANCH   9  13
ENDBRANCH   3   6
ENDBRANCH   1   2
BRANCH   1  15
HETATM   15  C   UNL     1     -40.920  56.286 -54.568  1.00  0.00     0.254 C 
BRANCH  15  16
HETATM   16  N   UNL     1     -41.264  54.908 -55.105  1.00  0.00    -0.069 N 
HETATM   17  H   UNL     1     -41.613  55.028 -56.065  1.00  0.00     0.280 HD
HETATM   18  C   UNL     1     -42.383  54.254 -54.298  1.00  0.00     0.244 C 
HETATM   19  C   UNL     1     -41.686  53.225 -53.397  1.00  0.00     0.046 C 
HETATM   20  C   UNL     1     -40.636  52.695 -54.379  1.00  0.00     0.039 C 
HETATM   21  C   UNL     1     -40.109  53.929 -55.099  1.00  0.00     0.235 C 
BRANCH  19  22
HETATM   22  C   UNL     1     -41.200  53.828 -52.080  1.00  0.00    -0.046 A 
HETATM   23  C   UNL     1     -40.229  53.167 -51.285  1.00  0.00    -0.055 A 
HETATM   24  C   UNL     1     -39.550  51.878 -51.680  1.00  0.00     0.049 C 
HETATM   25  C   UNL     1     -39.865  53.704 -50.035  1.00  0.00     0.007 A 
HETATM   26  C   UNL     1     -40.396  54.908 -49.586  1.00  0.00     0.001 A 
HETATM   27  C   UNL     1     -41.292  55.599 -50.386  1.00  0.00     0.001 A 
HETATM   28  C   UNL     1     -41.683  55.070 -51.619  1.00  0.00     0.008 A 
ENDBRANCH  19  22
ENDBRANCH  15  16
ENDBRANCH   1  15
TORSDOF 6
ENDMDL
MODEL 7
REMARK VINA RESULT:      -7.0     16.051     17.874
REMARK  6 active torsions:
REMARK  status: ('A' for Active; 'I' for Inactive)
REMARK    1  A    between atoms: C_2  and  C_3 
REMARK    2  A    between atoms: C_7  and  C_8 
REMARK       I    between atoms: C_8  and  N_9 
REMARK    3  A    between atoms: N_9  and  C_10 
REMARK    4  A    between atoms: C_10  and  C_11 
REMARK    5  A    between atoms: C_11  and  N_12 
REMARK    6  A    between atoms: C_15  and  C_16 
ROOT
HETATM    1  C   UNL     1     -32.464  39.372 -53.402  1.00  0.00     0.150 C 
ENDROOT
BRANCH   1   2
HETATM    2  N   UNL     1     -33.426  39.632 -54.446  1.00  0.00    -0.354 N 
HETATM    3  C   UNL     1     -33.084  40.200 -55.659  1.00  0.00     0.272 C 
HETATM    4  O   UNL     1     -31.919  40.464 -55.947  1.00  0.00    -0.266 OA
HETATM    5  H   UNL     1     -34.434  39.550 -54.296  1.00  0.00     0.162 HD
BRANCH   3   6
HETATM    6  C   UNL     1     -34.232  40.403 -56.554  1.00  0.00     0.152 A 
HETATM    7  N   UNL     1     -34.548  39.477 -57.483  1.00  0.00    -0.169 NA
HETATM    8  N   UNL     1     -35.623  39.992 -58.103  1.00  0.00    -0.281 N 
HETATM    9  C   UNL     1     -35.996  41.219 -57.633  1.00  0.00     0.036 A 
HETATM   10  H   UNL     1     -36.054  39.456 -58.851  1.00  0.00     0.189 HD
HETATM   11  C   UNL     1     -35.114  41.524 -56.614  1.00  0.00    -0.002 A 
HETATM   12  C   UNL     1     -35.075  42.746 -55.771  1.00  0.00     0.053 C 
BRANCH   9  13
HETATM   13  C   UNL     1     -37.150  41.966 -58.212  1.00  0.00     0.055 C 
HETATM   14  C   UNL     1     -37.244  41.768 -59.717  1.00  0.00     0.011 C 
ENDBRANCH   9  13
ENDBRANCH   3   6
ENDBRANCH   1   2
BRANCH   1  15
HETATM   15  C   UNL     1     -32.834  38.151 -52.540  1.00  0.00     0.254 C 
BRANCH  15  16
HETATM   16  N   UNL     1     -32.362  38.299 -51.104  1.00  0.00    -0.069 N 
HETATM   17  H   UNL     1     -31.715  37.523 -50.910  1.00  0.00     0.280 HD
HETATM   18  C   UNL     1     -33.520  38.178 -50.116  1.00  0.00     0.244 C 
HETATM   19  C   UNL     1     -33.832  39.616 -49.677  1.00  0.00     0.046 C 
HETATM   20  C   UNL     1     -32.405  40.168 -49.579  1.00  0.00     0.039 C 
HETATM   21  C   UNL     1     -31.683  39.618 -50.802  1.00  0.00     0.235 C 
BRANCH  19  22
HETATM   22  C   UNL     1     -34.812  40.318 -50.615  1.00  0.00    -0.046 A 
HETATM   23  C   UNL     1     -36.141  39.849 -50.770  1.00  0.00    -0.055 A 
HETATM   24  C   UNL     1     -36.723  38.689 -49.999  1.00  0.00     0.049 C 
HETATM   25  C   UNL     1     -36.995  40.464 -51.707  1.00  0.00     0.007 A 
HETATM   26  C   UNL     1     -36.579  41.568 -52.445  1.00  0.00     0.001 A 
HETATM   27  C   UNL     1     -35.306  42.079 -52.250  1.00  0.00     0.001 A 
HETATM   28  C   UNL     1     -34.438  41.468 -51.342  1.00  0.00     0.008 A 
ENDBRANCH  19  22
ENDBRANCH  15  16
ENDBRANCH   1  15
TORSDOF 6
ENDMDL
MODEL 8
REMARK VINA RESULT:      -7.0      2.377      3.463
REMARK  6 active torsions:
REMARK  status: ('A' for Active; 'I' for Inactive)
REMARK    1  A    between atoms: C_2  and  C_3 
REMARK    2  A    between atoms: C_7  and  C_8 
REMARK       I    between atoms: C_8  and  N_9 
REMARK    3  A    between atoms: N_9  and  C_10 
REMARK    4  A    between atoms: C_10  and  C_11 
REMARK    5  A    between atoms: C_11  and  N_12 
REMARK    6  A    between atoms: C_15  and  C_16 
ROOT
HETATM    1  C   UNL     1     -43.004  55.002 -56.581  1.00  0.00     0.150 C 
ENDROOT
BRANCH   1   2
HETATM    2  N   UNL     1     -42.728  56.065 -57.519  1.00  0.00    -0.354 N 
HETATM    3  C   UNL     1     -43.223  56.074 -58.808  1.00  0.00     0.272 C 
HETATM    4  O   UNL     1     -43.984  55.202 -59.219  1.00  0.00    -0.266 OA
HETATM    5  H   UNL     1     -42.035  56.792 -57.334  1.00  0.00     0.162 HD
BRANCH   3   6
HETATM    6  C   UNL     1     -42.784  57.237 -59.594  1.00  0.00     0.152 A 
HETATM    7  N   UNL     1     -41.711  57.149 -60.406  1.00  0.00    -0.169 NA
HETATM    8  N   UNL     1     -41.608  58.376 -60.944  1.00  0.00    -0.281 N 
HETATM    9  C   UNL     1     -42.549  59.257 -60.494  1.00  0.00     0.036 A 
HETATM   10  H   UNL     1     -40.862  58.551 -61.611  1.00  0.00     0.189 HD
HETATM   11  C   UNL     1     -43.343  58.551 -59.610  1.00  0.00    -0.002 A 
HETATM   12  C   UNL     1     -44.512  59.041 -58.837  1.00  0.00     0.053 C 
BRANCH   9  13
HETATM   13  C   UNL     1     -42.583  60.675 -60.953  1.00  0.00     0.055 C 
HETATM   14  C   UNL     1     -41.459  61.490 -60.331  1.00  0.00     0.011 C 
ENDBRANCH   9  13
ENDBRANCH   3   6
ENDBRANCH   1   2
BRANCH   1  15
HETATM   15  C   UNL     1     -41.917  54.864 -55.498  1.00  0.00     0.254 C 
BRANCH  15  16
HETATM   16  N   UNL     1     -42.236  55.679 -54.258  1.00  0.00    -0.069 N 
HETATM   17  H   UNL     1     -42.532  56.614 -54.570  1.00  0.00     0.280 HD
HETATM   18  C   UNL     1     -41.003  55.869 -53.377  1.00  0.00     0.244 C 
HETATM   19  C   UNL     1     -41.179  54.883 -52.214  1.00  0.00     0.046 C 
HETATM   20  C   UNL     1     -42.686  55.034 -51.978  1.00  0.00     0.039 C 
HETATM   21  C   UNL     1     -43.303  55.076 -53.369  1.00  0.00     0.235 C 
BRANCH  19  22
HETATM   22  C   UNL     1     -40.636  53.492 -52.533  1.00  0.00    -0.046 A 
HETATM   23  C   UNL     1     -40.205  52.619 -51.501  1.00  0.00    -0.055 A 
HETATM   24  C   UNL     1     -40.300  52.940 -50.030  1.00  0.00     0.049 C 
HETATM   25  C   UNL     1     -39.628  51.377 -51.832  1.00  0.00     0.007 A 
HETATM   26  C   UNL     1     -39.527  50.959 -53.154  1.00  0.00     0.001 A 
HETATM   27  C   UNL     1     -40.011  51.773 -54.166  1.00  0.00     0.001 A 
HETATM   28  C   UNL     1     -40.564  53.018 -53.859  1.00  0.00     0.008 A 
ENDBRANCH  19  22
ENDBRANCH  15  16
ENDBRANCH   1  15
TORSDOF 6
ENDMDL
MODEL 9
REMARK VINA RESULT:      -6.9      2.959      5.982
REMARK  6 active torsions:
REMARK  status: ('A' for Active; 'I' for Inactive)
REMARK    1  A    between atoms: C_2  and  C_3 
REMARK    2  A    between atoms: C_7  and  C_8 
REMARK       I    between atoms: C_8  and  N_9 
REMARK    3  A    between atoms: N_9  and  C_10 
REMARK    4  A    between atoms: C_10  and  C_11 
REMARK    5  A    between atoms: C_11  and  N_12 
REMARK    6  A    between atoms: C_15  and  C_16 
ROOT
HETATM    1  C   UNL     1     -41.299  56.655 -50.198  1.00  0.00     0.150 C 
ENDROOT
BRANCH   1   2
HETATM    2  N   UNL     1     -40.780  55.424 -50.745  1.00  0.00    -0.354 N 
HETATM    3  C   UNL     1     -41.553  54.290 -50.906  1.00  0.00     0.272 C 
HETATM    4  O   UNL     1     -42.754  54.280 -50.647  1.00  0.00    -0.266 OA
HETATM    5  H   UNL     1     -39.782  55.274 -50.907  1.00  0.00     0.162 HD
BRANCH   3   6
HETATM    6  C   UNL     1     -40.805  53.146 -51.450  1.00  0.00     0.152 A 
HETATM    7  N   UNL     1     -40.272  52.222 -50.624  1.00  0.00    -0.169 NA
HETATM    8  N   UNL     1     -39.674  51.351 -51.453  1.00  0.00    -0.281 N 
HETATM    9  C   UNL     1     -39.773  51.688 -52.773  1.00  0.00     0.036 A 
HETATM   10  H   UNL     1     -39.203  50.546 -51.051  1.00  0.00     0.189 HD
HETATM   11  C   UNL     1     -40.511  52.856 -52.816  1.00  0.00    -0.002 A 
HETATM   12  C   UNL     1     -40.906  53.646 -54.010  1.00  0.00     0.053 C 
BRANCH   9  13
HETATM   13  C   UNL     1     -39.150  50.860 -53.845  1.00  0.00     0.055 C 
HETATM   14  C   UNL     1     -40.152  49.895 -54.458  1.00  0.00     0.011 C 
ENDBRANCH   9  13
ENDBRANCH   3   6
ENDBRANCH   1   2
BRANCH   1  15
HETATM   15  C   UNL     1     -41.847  57.606 -51.279  1.00  0.00     0.254 C 
BRANCH  15  16
HETATM   16  N   UNL     1     -43.263  58.061 -50.977  1.00  0.00    -0.069 N 
HETATM   17  H   UNL     1     -43.419  57.939 -49.968  1.00  0.00     0.280 HD
HETATM   18  C   UNL     1     -44.297  57.200 -51.700  1.00  0.00     0.244 C 
HETATM   19  C   UNL     1     -44.770  58.046 -52.891  1.00  0.00     0.046 C 
HETATM   20  C   UNL     1     -44.816  59.424 -52.222  1.00  0.00     0.039 C 
HETATM   21  C   UNL     1     -43.557  59.494 -51.370  1.00  0.00     0.235 C 
BRANCH  19  22
HETATM   22  C   UNL     1     -43.884  57.874 -54.124  1.00  0.00    -0.046 A 
HETATM   23  C   UNL     1     -43.592  56.586 -54.642  1.00  0.00    -0.055 A 
HETATM   24  C   UNL     1     -44.162  55.304 -54.088  1.00  0.00     0.049 C 
HETATM   25  C   UNL     1     -42.703  56.455 -55.727  1.00  0.00     0.007 A 
HETATM   26  C   UNL     1     -42.148  57.572 -56.343  1.00  0.00     0.001 A 
HETATM   27  C   UNL     1     -42.483  58.838 -55.891  1.00  0.00     0.001 A 
HETATM   28  C   UNL     1     -43.345  58.987 -54.801  1.00  0.00     0.008 A 
ENDBRANCH  19  22
ENDBRANCH  15  16
ENDBRANCH   1  15
TORSDOF 6
ENDMDL
MODEL 10
REMARK VINA RESULT:      -6.8      3.549      6.311
REMARK  6 active torsions:
REMARK  status: ('A' for Active; 'I' for Inactive)
REMARK    1  A    between atoms: C_2  and  C_3 
REMARK    2  A    between atoms: C_7  and  C_8 
REMARK       I    between atoms: C_8  and  N_9 
REMARK    3  A    between atoms: N_9  and  C_10 
REMARK    4  A    between atoms: C_10  and  C_11 
REMARK    5  A    between atoms: C_11  and  N_12 
REMARK    6  A    between atoms: C_15  and  C_16 
ROOT
HETATM    1  C   UNL     1     -43.507  56.165 -51.329  1.00  0.00     0.150 C 
ENDROOT
BRANCH   1   2
HETATM    2  N   UNL     1     -42.701  54.981 -51.515  1.00  0.00    -0.354 N 
HETATM    3  C   UNL     1     -41.428  55.017 -52.052  1.00  0.00     0.272 C 
HETATM    4  O   UNL     1     -40.878  56.074 -52.350  1.00  0.00    -0.266 OA
HETATM    5  H   UNL     1     -43.077  54.039 -51.399  1.00  0.00     0.162 HD
BRANCH   3   6
HETATM    6  C   UNL     1     -40.811  53.688 -52.179  1.00  0.00     0.152 A 
HETATM    7  N   UNL     1     -40.550  52.947 -51.082  1.00  0.00    -0.169 NA
HETATM    8  N   UNL     1     -39.996  51.825 -51.572  1.00  0.00    -0.281 N 
HETATM    9  C   UNL     1     -39.863  51.823 -52.931  1.00  0.00     0.036 A 
HETATM   10  H   UNL     1     -39.720  51.097 -50.920  1.00  0.00     0.189 HD
HETATM   11  C   UNL     1     -40.389  53.024 -53.370  1.00  0.00    -0.002 A 
HETATM   12  C   UNL     1     -40.488  53.526 -54.764  1.00  0.00     0.053 C 
BRANCH   9  13
HETATM   13  C   UNL     1     -39.245  50.678 -53.660  1.00  0.00     0.055 C 
HETATM   14  C   UNL     1     -40.281  49.898 -54.453  1.00  0.00     0.011 C 
ENDBRANCH   9  13
ENDBRANCH   3   6
ENDBRANCH   1   2
BRANCH   1  15
HETATM   15  C   UNL     1     -44.003  56.765 -52.658  1.00  0.00     0.254 C 
BRANCH  15  16
HETATM   16  N   UNL     1     -44.947  57.934 -52.441  1.00  0.00    -0.069 N 
HETATM   17  H   UNL     1     -45.857  57.676 -52.846  1.00  0.00     0.280 HD
HETATM   18  C   UNL     1     -44.469  59.186 -53.173  1.00  0.00     0.244 C 
HETATM   19  C   UNL     1     -43.851  60.080 -52.088  1.00  0.00     0.046 C 
HETATM   20  C   UNL     1     -44.849  59.830 -50.952  1.00  0.00     0.039 C 
HETATM   21  C   UNL     1     -45.127  58.333 -50.992  1.00  0.00     0.235 C 
BRANCH  19  22
HETATM   22  C   UNL     1     -42.378  59.764 -51.833  1.00  0.00    -0.046 A 
HETATM   23  C   UNL     1     -41.477  59.556 -52.909  1.00  0.00    -0.055 A 
HETATM   24  C   UNL     1     -41.854  59.687 -54.364  1.00  0.00     0.049 C 
HETATM   25  C   UNL     1     -40.145  59.181 -52.642  1.00  0.00     0.007 A 
HETATM   26  C   UNL     1     -39.675  59.068 -51.338  1.00  0.00     0.001 A 
HETATM   27  C   UNL     1     -40.528  59.340 -50.280  1.00  0.00     0.001 A 
HETATM   28  C   UNL     1     -41.858  59.690 -50.524  1.00  0.00     0.008 A 
ENDBRANCH  19  22
ENDBRANCH  15  16
ENDBRANCH   1  15
TORSDOF 6
ENDMDL
