MODEL 1
REMARK VINA RESULT:      -9.0      0.000      0.000
REMARK  5 active torsions:
REMARK  status: ('A' for Active; 'I' for Inactive)
REMARK    1  A    between atoms: C_3  and  C_4 
REMARK    2  A    between atoms: C_7  and  C_8 
REMARK    3  A    between atoms: C_8  and  N_9 
REMARK    4  A    between atoms: C_16  and  O_17 
REMARK    5  A    between atoms: C_18  and  O_19 
ROOT
HETATM    1  N   UNL     1     -42.380  56.776 -57.561  1.00  0.00    -0.067 N 
HETATM    2  H   UNL     1     -41.400  56.477 -57.635  1.00  0.00     0.280 HD
HETATM    3  C   UNL     1     -42.467  58.179 -58.135  1.00  0.00     0.240 C 
HETATM    4  C   UNL     1     -43.453  58.075 -59.296  1.00  0.00     0.020 C 
HETATM    5  C   UNL     1     -43.268  56.632 -59.770  1.00  0.00     0.020 C 
HETATM    6  C   UNL     1     -43.175  55.852 -58.465  1.00  0.00     0.240 C 
HETATM    7  C   UNL     1     -44.896  58.398 -58.860  1.00  0.00     0.041 C 
HETATM    8  C   UNL     1     -45.916  57.987 -59.919  1.00  0.00     0.147 C 
HETATM    9  C   UNL     1     -45.774  56.493 -60.252  1.00  0.00     0.147 C 
HETATM   10  C   UNL     1     -44.358  56.141 -60.716  1.00  0.00     0.041 C 
ENDROOT
BRANCH   1  11
HETATM   11  C   UNL     1     -42.732  56.688 -56.100  1.00  0.00     0.273 C 
BRANCH  11  12
HETATM   12  C   UNL     1     -42.139  55.484 -55.424  1.00  0.00    -0.033 A 
HETATM   13  C   UNL     1     -40.777  55.443 -55.095  1.00  0.00     0.010 A 
HETATM   14  C   UNL     1     -40.228  54.305 -54.494  1.00  0.00     0.013 A 
HETATM   15  C   UNL     1     -41.016  53.178 -54.210  1.00  0.00    -0.023 A 
HETATM   16  C   UNL     1     -42.378  53.232 -54.543  1.00  0.00     0.013 A 
HETATM   17  C   UNL     1     -42.934  54.367 -55.139  1.00  0.00     0.010 A 
BRANCH  15  18
HETATM   18  C   UNL     1     -40.438  51.981 -53.576  1.00  0.00     0.013 A 
HETATM   19  C   UNL     1     -40.253  50.794 -54.305  1.00  0.00     0.015 A 
HETATM   20  C   UNL     1     -39.692  49.659 -53.707  1.00  0.00     0.001 A 
HETATM   21  C   UNL     1     -39.308  49.690 -52.369  1.00  0.00     0.003 A 
HETATM   22  C   UNL     1     -39.484  50.855 -51.626  1.00  0.00     0.043 A 
HETATM   23  C   UNL     1     -40.042  51.982 -52.228  1.00  0.00     0.127 A 
HETATM   24  F   UNL     1     -40.204  53.085 -51.479  1.00  0.00    -0.205 F 
ENDBRANCH  15  18
ENDBRANCH  11  12
ENDBRANCH   1  11
BRANCH   8  25
HETATM   25  O   UNL     1     -45.682  58.744 -61.107  1.00  0.00    -0.393 OA
HETATM   26  H   UNL     1     -45.618  59.684 -60.851  1.00  0.00     0.210 HD
ENDBRANCH   8  25
BRANCH   9  27
HETATM   27  O   UNL     1     -46.689  56.142 -61.283  1.00  0.00    -0.393 OA
HETATM   28  H   UNL     1     -46.168  56.083 -62.109  1.00  0.00     0.210 HD
ENDBRANCH   9  27
TORSDOF 5
ENDMDL
MODEL 2
REMARK VINA RESULT:      -8.9      3.840      5.131
REMARK  5 active torsions:
REMARK  status: ('A' for Active; 'I' for Inactive)
REMARK    1  A    between atoms: C_3  and  C_4 
REMARK    2  A    between atoms: C_7  and  C_8 
REMARK    3  A    between atoms: C_8  and  N_9 
REMARK    4  A    between atoms: C_16  and  O_17 
REMARK    5  A    between atoms: C_18  and  O_19 
ROOT
HETATM    1  N   UNL     1     -43.198  57.765 -55.585  1.00  0.00    -0.067 N 
HETATM    2  H   UNL     1     -43.582  58.486 -56.207  1.00  0.00     0.280 HD
HETATM    3  C   UNL     1     -42.089  58.413 -54.775  1.00  0.00     0.240 C 
HETATM    4  C   UNL     1     -42.519  58.263 -53.318  1.00  0.00     0.020 C 
HETATM    5  C   UNL     1     -44.047  58.265 -53.414  1.00  0.00     0.020 C 
HETATM    6  C   UNL     1     -44.315  57.389 -54.630  1.00  0.00     0.240 C 
HETATM    7  C   UNL     1     -41.946  56.985 -52.675  1.00  0.00     0.041 C 
HETATM    8  C   UNL     1     -42.622  56.664 -51.345  1.00  0.00     0.147 C 
HETATM    9  C   UNL     1     -44.143  56.540 -51.531  1.00  0.00     0.147 C 
HETATM   10  C   UNL     1     -44.752  57.804 -52.143  1.00  0.00     0.041 C 
ENDROOT
BRANCH   1  11
HETATM   11  C   UNL     1     -42.730  56.649 -56.482  1.00  0.00     0.273 C 
BRANCH  11  12
HETATM   12  C   UNL     1     -42.145  55.492 -55.723  1.00  0.00    -0.033 A 
HETATM   13  C   UNL     1     -40.764  55.401 -55.501  1.00  0.00     0.010 A 
HETATM   14  C   UNL     1     -40.227  54.303 -54.819  1.00  0.00     0.013 A 
HETATM   15  C   UNL     1     -41.046  53.266 -54.347  1.00  0.00    -0.023 A 
HETATM   16  C   UNL     1     -42.427  53.368 -54.575  1.00  0.00     0.013 A 
HETATM   17  C   UNL     1     -42.972  54.464 -55.250  1.00  0.00     0.010 A 
BRANCH  15  18
HETATM   18  C   UNL     1     -40.481  52.111 -53.629  1.00  0.00     0.013 A 
HETATM   19  C   UNL     1     -40.338  50.864 -54.261  1.00  0.00     0.015 A 
HETATM   20  C   UNL     1     -39.789  49.770 -53.583  1.00  0.00     0.001 A 
HETATM   21  C   UNL     1     -39.373  49.901 -52.261  1.00  0.00     0.003 A 
HETATM   22  C   UNL     1     -39.507  51.127 -51.613  1.00  0.00     0.043 A 
HETATM   23  C   UNL     1     -40.053  52.213 -52.294  1.00  0.00     0.127 A 
HETATM   24  F   UNL     1     -40.174  53.378 -51.636  1.00  0.00    -0.205 F 
ENDBRANCH  15  18
ENDBRANCH  11  12
ENDBRANCH   1  11
BRANCH   8  25
HETATM   25  O   UNL     1     -42.359  57.723 -50.423  1.00  0.00    -0.393 OA
HETATM   26  H   UNL     1     -42.184  57.321 -49.552  1.00  0.00     0.210 HD
ENDBRANCH   8  25
BRANCH   9  27
HETATM   27  O   UNL     1     -44.763  56.302 -50.272  1.00  0.00    -0.393 OA
HETATM   28  H   UNL     1     -44.969  55.347 -50.239  1.00  0.00     0.210 HD
ENDBRANCH   9  27
TORSDOF 5
ENDMDL
MODEL 3
REMARK VINA RESULT:      -8.7      4.048      5.534
REMARK  5 active torsions:
REMARK  status: ('A' for Active; 'I' for Inactive)
REMARK    1  A    between atoms: C_3  and  C_4 
REMARK    2  A    between atoms: C_7  and  C_8 
REMARK    3  A    between atoms: C_8  and  N_9 
REMARK    4  A    between atoms: C_16  and  O_17 
REMARK    5  A    between atoms: C_18  and  O_19 
ROOT
HETATM    1  N   UNL     1     -43.295  57.754 -55.243  1.00  0.00    -0.067 N 
HETATM    2  H   UNL     1     -44.226  57.985 -55.609  1.00  0.00     0.280 HD
HETATM    3  C   UNL     1     -42.537  59.061 -55.084  1.00  0.00     0.240 C 
HETATM    4  C   UNL     1     -42.189  59.143 -53.601  1.00  0.00     0.020 C 
HETATM    5  C   UNL     1     -43.335  58.373 -52.940  1.00  0.00     0.020 C 
HETATM    6  C   UNL     1     -43.515  57.172 -53.859  1.00  0.00     0.240 C 
HETATM    7  C   UNL     1     -40.798  58.551 -53.300  1.00  0.00     0.041 C 
HETATM    8  C   UNL     1     -40.582  58.337 -51.803  1.00  0.00     0.147 C 
HETATM    9  C   UNL     1     -41.688  57.440 -51.224  1.00  0.00     0.147 C 
HETATM   10  C   UNL     1     -43.084  58.012 -51.480  1.00  0.00     0.041 C 
ENDROOT
BRANCH   1  11
HETATM   11  C   UNL     1     -42.680  56.806 -56.237  1.00  0.00     0.273 C 
BRANCH  11  12
HETATM   12  C   UNL     1     -42.102  55.575 -55.596  1.00  0.00    -0.033 A 
HETATM   13  C   UNL     1     -42.889  54.434 -55.392  1.00  0.00     0.010 A 
HETATM   14  C   UNL     1     -42.350  53.304 -54.766  1.00  0.00     0.013 A 
HETATM   15  C   UNL     1     -41.019  53.282 -54.323  1.00  0.00    -0.023 A 
HETATM   16  C   UNL     1     -40.240  54.430 -54.534  1.00  0.00     0.013 A 
HETATM   17  C   UNL     1     -40.770  55.561 -55.162  1.00  0.00     0.010 A 
BRANCH  15  18
HETATM   18  C   UNL     1     -40.451  52.093 -53.665  1.00  0.00     0.013 A 
HETATM   19  C   UNL     1     -40.286  50.887 -54.368  1.00  0.00     0.015 A 
HETATM   20  C   UNL     1     -39.734  49.760 -53.748  1.00  0.00     0.001 A 
HETATM   21  C   UNL     1     -39.338  49.817 -52.414  1.00  0.00     0.003 A 
HETATM   22  C   UNL     1     -39.493  51.001 -51.698  1.00  0.00     0.043 A 
HETATM   23  C   UNL     1     -40.042  52.120 -52.321  1.00  0.00     0.127 A 
HETATM   24  F   UNL     1     -40.185  53.243 -51.597  1.00  0.00    -0.205 F 
ENDBRANCH  15  18
ENDBRANCH  11  12
ENDBRANCH   1  11
BRANCH   8  25
HETATM   25  O   UNL     1     -40.626  59.602 -51.142  1.00  0.00    -0.393 OA
HETATM   26  H   UNL     1     -40.947  60.261 -51.786  1.00  0.00     0.210 HD
ENDBRANCH   8  25
BRANCH   9  27
HETATM   27  O   UNL     1     -41.506  57.301 -49.819  1.00  0.00    -0.393 OA
HETATM   28  H   UNL     1     -40.548  57.403 -49.652  1.00  0.00     0.210 HD
ENDBRANCH   9  27
TORSDOF 5
ENDMDL
MODEL 4
REMARK VINA RESULT:      -8.6      1.769      2.661
REMARK  5 active torsions:
REMARK  status: ('A' for Active; 'I' for Inactive)
REMARK    1  A    between atoms: C_3  and  C_4 
REMARK    2  A    between atoms: C_7  and  C_8 
REMARK    3  A    between atoms: C_8  and  N_9 
REMARK    4  A    between atoms: C_16  and  O_17 
REMARK    5  A    between atoms: C_18  and  O_19 
ROOT
HETATM    1  N   UNL     1     -42.733  58.048 -54.794  1.00  0.00    -0.067 N 
HETATM    2  H   UNL     1     -43.227  58.751 -54.231  1.00  0.00     0.280 HD
HETATM    3  C   UNL     1     -43.604  56.804 -54.824  1.00  0.00     0.240 C 
HETATM    4  C   UNL     1     -43.908  56.565 -56.300  1.00  0.00     0.020 C 
HETATM    5  C   UNL     1     -43.874  57.979 -56.886  1.00  0.00     0.020 C 
HETATM    6  C   UNL     1     -42.665  58.604 -56.204  1.00  0.00     0.240 C 
HETATM    7  C   UNL     1     -42.892  55.606 -56.951  1.00  0.00     0.041 C 
HETATM    8  C   UNL     1     -42.994  55.618 -58.475  1.00  0.00     0.147 C 
HETATM    9  C   UNL     1     -42.812  57.045 -59.015  1.00  0.00     0.147 C 
HETATM   10  C   UNL     1     -43.824  58.021 -58.410  1.00  0.00     0.041 C 
ENDROOT
BRANCH   1  11
HETATM   11  C   UNL     1     -41.398  57.846 -54.128  1.00  0.00     0.273 C 
BRANCH  11  12
HETATM   12  C   UNL     1     -41.065  56.397 -53.907  1.00  0.00    -0.033 A 
HETATM   13  C   UNL     1     -40.377  55.660 -54.881  1.00  0.00     0.010 A 
HETATM   14  C   UNL     1     -40.100  54.304 -54.678  1.00  0.00     0.013 A 
HETATM   15  C   UNL     1     -40.503  53.644 -53.507  1.00  0.00    -0.023 A 
HETATM   16  C   UNL     1     -41.190  54.392 -52.539  1.00  0.00     0.013 A 
HETATM   17  C   UNL     1     -41.467  55.748 -52.732  1.00  0.00     0.010 A 
BRANCH  15  18
HETATM   18  C   UNL     1     -40.210  52.217 -53.293  1.00  0.00     0.013 A 
HETATM   19  C   UNL     1     -40.381  51.279 -54.326  1.00  0.00     0.015 A 
HETATM   20  C   UNL     1     -40.090  49.925 -54.127  1.00  0.00     0.001 A 
HETATM   21  C   UNL     1     -39.623  49.482 -52.892  1.00  0.00     0.003 A 
HETATM   22  C   UNL     1     -39.447  50.393 -51.853  1.00  0.00     0.043 A 
HETATM   23  C   UNL     1     -39.738  51.740 -52.058  1.00  0.00     0.127 A 
HETATM   24  F   UNL     1     -39.563  52.589 -51.032  1.00  0.00    -0.205 F 
ENDBRANCH  15  18
ENDBRANCH  11  12
ENDBRANCH   1  11
BRANCH   8  25
HETATM   25  O   UNL     1     -44.286  55.145 -58.857  1.00  0.00    -0.393 OA
HETATM   26  H   UNL     1     -44.852  55.925 -59.014  1.00  0.00     0.210 HD
ENDBRANCH   8  25
BRANCH   9  27
HETATM   27  O   UNL     1     -42.972  57.047 -60.429  1.00  0.00    -0.393 OA
HETATM   28  H   UNL     1     -43.810  56.578 -60.615  1.00  0.00     0.210 HD
ENDBRANCH   9  27
TORSDOF 5
ENDMDL
MODEL 5
REMARK VINA RESULT:      -8.3      4.365      5.712
REMARK  5 active torsions:
REMARK  status: ('A' for Active; 'I' for Inactive)
REMARK    1  A    between atoms: C_3  and  C_4 
REMARK    2  A    between atoms: C_7  and  C_8 
REMARK    3  A    between atoms: C_8  and  N_9 
REMARK    4  A    between atoms: C_16  and  O_17 
REMARK    5  A    between atoms: C_18  and  O_19 
ROOT
HETATM    1  N   UNL     1     -42.166  58.324 -53.696  1.00  0.00    -0.067 N 
HETATM    2  H   UNL     1     -41.248  58.741 -53.891  1.00  0.00     0.280 HD
HETATM    3  C   UNL     1     -42.095  57.707 -52.310  1.00  0.00     0.240 C 
HETATM    4  C   UNL     1     -43.172  58.423 -51.499  1.00  0.00     0.020 C 
HETATM    5  C   UNL     1     -43.234  59.802 -52.160  1.00  0.00     0.020 C 
HETATM    6  C   UNL     1     -43.153  59.475 -53.645  1.00  0.00     0.240 C 
HETATM    7  C   UNL     1     -44.516  57.667 -51.530  1.00  0.00     0.041 C 
HETATM    8  C   UNL     1     -45.663  58.526 -51.003  1.00  0.00     0.147 C 
HETATM    9  C   UNL     1     -45.763  59.837 -51.798  1.00  0.00     0.147 C 
HETATM   10  C   UNL     1     -44.453  60.629 -51.766  1.00  0.00     0.041 C 
ENDROOT
BRANCH   1  11
HETATM   11  C   UNL     1     -42.413  57.328 -54.798  1.00  0.00     0.273 C 
BRANCH  11  12
HETATM   12  C   UNL     1     -41.901  55.952 -54.472  1.00  0.00    -0.033 A 
HETATM   13  C   UNL     1     -42.686  55.047 -53.745  1.00  0.00     0.010 A 
HETATM   14  C   UNL     1     -42.189  53.780 -53.420  1.00  0.00     0.013 A 
HETATM   15  C   UNL     1     -40.898  53.384 -53.804  1.00  0.00    -0.023 A 
HETATM   16  C   UNL     1     -40.122  54.298 -54.532  1.00  0.00     0.013 A 
HETATM   17  C   UNL     1     -40.614  55.564 -54.864  1.00  0.00     0.010 A 
BRANCH  15  18
HETATM   18  C   UNL     1     -40.375  52.050 -53.464  1.00  0.00     0.013 A 
HETATM   19  C   UNL     1     -40.317  51.027 -54.426  1.00  0.00     0.015 A 
HETATM   20  C   UNL     1     -39.808  49.763 -54.108  1.00  0.00     0.001 A 
HETATM   21  C   UNL     1     -39.347  49.497 -52.820  1.00  0.00     0.003 A 
HETATM   22  C   UNL     1     -39.397  50.494 -51.850  1.00  0.00     0.043 A 
HETATM   23  C   UNL     1     -39.904  51.751 -52.174  1.00  0.00     0.127 A 
HETATM   24  F   UNL     1     -39.943  52.686 -51.210  1.00  0.00    -0.205 F 
ENDBRANCH  15  18
ENDBRANCH  11  12
ENDBRANCH   1  11
BRANCH   8  25
HETATM   25  O   UNL     1     -45.416  58.840 -49.632  1.00  0.00    -0.393 OA
HETATM   26  H   UNL     1     -44.793  58.174 -49.283  1.00  0.00     0.210 HD
ENDBRANCH   8  25
BRANCH   9  27
HETATM   27  O   UNL     1     -46.796  60.651 -51.254  1.00  0.00    -0.393 OA
HETATM   28  H   UNL     1     -47.480  60.040 -50.913  1.00  0.00     0.210 HD
ENDBRANCH   9  27
TORSDOF 5
ENDMDL
MODEL 6
REMARK VINA RESULT:      -8.3      2.622      3.714
REMARK  5 active torsions:
REMARK  status: ('A' for Active; 'I' for Inactive)
REMARK    1  A    between atoms: C_3  and  C_4 
REMARK    2  A    between atoms: C_7  and  C_8 
REMARK    3  A    between atoms: C_8  and  N_9 
REMARK    4  A    between atoms: C_16  and  O_17 
REMARK    5  A    between atoms: C_18  and  O_19 
ROOT
HETATM    1  N   UNL     1     -43.905  58.845 -53.361  1.00  0.00    -0.067 N 
HETATM    2  H   UNL     1     -44.412  59.677 -53.034  1.00  0.00     0.280 HD
HETATM    3  C   UNL     1     -44.939  57.865 -53.886  1.00  0.00     0.240 C 
HETATM    4  C   UNL     1     -44.573  57.645 -55.351  1.00  0.00     0.020 C 
HETATM    5  C   UNL     1     -43.923  58.974 -55.742  1.00  0.00     0.020 C 
HETATM    6  C   UNL     1     -43.056  59.300 -54.534  1.00  0.00     0.240 C 
HETATM    7  C   UNL     1     -43.643  56.429 -55.538  1.00  0.00     0.041 C 
HETATM    8  C   UNL     1     -43.021  56.397 -56.932  1.00  0.00     0.147 C 
HETATM    9  C   UNL     1     -42.263  57.704 -57.213  1.00  0.00     0.147 C 
HETATM   10  C   UNL     1     -43.164  58.933 -57.064  1.00  0.00     0.041 C 
ENDROOT
BRANCH   1  11
HETATM   11  C   UNL     1     -43.127  58.339 -52.176  1.00  0.00     0.273 C 
BRANCH  11  12
HETATM   12  C   UNL     1     -42.537  56.975 -52.400  1.00  0.00    -0.033 A 
HETATM   13  C   UNL     1     -43.151  55.831 -51.873  1.00  0.00     0.010 A 
HETATM   14  C   UNL     1     -42.576  54.569 -52.061  1.00  0.00     0.013 A 
HETATM   15  C   UNL     1     -41.376  54.413 -52.771  1.00  0.00    -0.023 A 
HETATM   16  C   UNL     1     -40.771  55.565 -53.295  1.00  0.00     0.013 A 
HETATM   17  C   UNL     1     -41.341  56.829 -53.115  1.00  0.00     0.010 A 
BRANCH  15  18
HETATM   18  C   UNL     1     -40.772  53.084 -52.971  1.00  0.00     0.013 A 
HETATM   19  C   UNL     1     -40.945  52.384 -54.177  1.00  0.00     0.015 A 
HETATM   20  C   UNL     1     -40.360  51.127 -54.373  1.00  0.00     0.001 A 
HETATM   21  C   UNL     1     -39.594  50.547 -53.366  1.00  0.00     0.003 A 
HETATM   22  C   UNL     1     -39.411  51.221 -52.161  1.00  0.00     0.043 A 
HETATM   23  C   UNL     1     -39.994  52.473 -51.973  1.00  0.00     0.127 A 
HETATM   24  F   UNL     1     -39.802  53.090 -50.796  1.00  0.00    -0.205 F 
ENDBRANCH  15  18
ENDBRANCH  11  12
ENDBRANCH   1  11
BRANCH   8  25
HETATM   25  O   UNL     1     -44.060  56.253 -57.900  1.00  0.00    -0.393 OA
HETATM   26  H   UNL     1     -44.913  56.270 -57.425  1.00  0.00     0.210 HD
ENDBRANCH   8  25
BRANCH   9  27
HETATM   27  O   UNL     1     -41.743  57.682 -58.537  1.00  0.00    -0.393 OA
HETATM   28  H   UNL     1     -41.671  58.615 -58.823  1.00  0.00     0.210 HD
ENDBRANCH   9  27
TORSDOF 5
ENDMDL
MODEL 7
REMARK VINA RESULT:      -7.9      1.951      2.875
REMARK  5 active torsions:
REMARK  status: ('A' for Active; 'I' for Inactive)
REMARK    1  A    between atoms: C_3  and  C_4 
REMARK    2  A    between atoms: C_7  and  C_8 
REMARK    3  A    between atoms: C_8  and  N_9 
REMARK    4  A    between atoms: C_16  and  O_17 
REMARK    5  A    between atoms: C_18  and  O_19 
ROOT
HETATM    1  N   UNL     1     -44.127  56.935 -57.102  1.00  0.00    -0.067 N 
HETATM    2  H   UNL     1     -44.846  56.207 -57.011  1.00  0.00     0.280 HD
HETATM    3  C   UNL     1     -42.985  56.341 -57.908  1.00  0.00     0.240 C 
HETATM    4  C   UNL     1     -42.861  57.232 -59.141  1.00  0.00     0.020 C 
HETATM    5  C   UNL     1     -44.294  57.733 -59.343  1.00  0.00     0.020 C 
HETATM    6  C   UNL     1     -44.750  58.047 -57.924  1.00  0.00     0.240 C 
HETATM    7  C   UNL     1     -41.838  58.367 -58.934  1.00  0.00     0.041 C 
HETATM    8  C   UNL     1     -41.945  59.435 -60.020  1.00  0.00     0.147 C 
HETATM    9  C   UNL     1     -43.373  60.000 -60.080  1.00  0.00     0.147 C 
HETATM   10  C   UNL     1     -44.415  58.903 -60.313  1.00  0.00     0.041 C 
ENDROOT
BRANCH   1  11
HETATM   11  C   UNL     1     -43.749  57.322 -55.697  1.00  0.00     0.273 C 
BRANCH  11  12
HETATM   12  C   UNL     1     -43.003  56.239 -54.969  1.00  0.00    -0.033 A 
HETATM   13  C   UNL     1     -43.612  55.008 -54.692  1.00  0.00     0.010 A 
HETATM   14  C   UNL     1     -42.919  54.018 -53.987  1.00  0.00     0.013 A 
HETATM   15  C   UNL     1     -41.606  54.228 -53.536  1.00  0.00    -0.023 A 
HETATM   16  C   UNL     1     -41.006  55.463 -53.822  1.00  0.00     0.013 A 
HETATM   17  C   UNL     1     -41.690  56.456 -54.529  1.00  0.00     0.010 A 
BRANCH  15  18
HETATM   18  C   UNL     1     -40.876  53.185 -52.796  1.00  0.00     0.013 A 
HETATM   19  C   UNL     1     -40.820  53.198 -51.391  1.00  0.00     0.015 A 
HETATM   20  C   UNL     1     -40.137  52.200 -50.686  1.00  0.00     0.001 A 
HETATM   21  C   UNL     1     -39.496  51.171 -51.372  1.00  0.00     0.003 A 
HETATM   22  C   UNL     1     -39.536  51.139 -52.764  1.00  0.00     0.043 A 
HETATM   23  C   UNL     1     -40.219  52.134 -53.460  1.00  0.00     0.127 A 
HETATM   24  F   UNL     1     -40.230  52.076 -54.801  1.00  0.00    -0.205 F 
ENDBRANCH  15  18
ENDBRANCH  11  12
ENDBRANCH   1  11
BRANCH   8  25
HETATM   25  O   UNL     1     -41.632  58.845 -61.282  1.00  0.00    -0.393 OA
HETATM   26  H   UNL     1     -42.429  58.904 -61.842  1.00  0.00     0.210 HD
ENDBRANCH   8  25
BRANCH   9  27
HETATM   27  O   UNL     1     -43.470  60.947 -61.137  1.00  0.00    -0.393 OA
HETATM   28  H   UNL     1     -43.350  60.448 -61.970  1.00  0.00     0.210 HD
ENDBRANCH   9  27
TORSDOF 5
ENDMDL
MODEL 8
REMARK VINA RESULT:      -7.8      3.909      5.249
REMARK  5 active torsions:
REMARK  status: ('A' for Active; 'I' for Inactive)
REMARK    1  A    between atoms: C_3  and  C_4 
REMARK    2  A    between atoms: C_7  and  C_8 
REMARK    3  A    between atoms: C_8  and  N_9 
REMARK    4  A    between atoms: C_16  and  O_17 
REMARK    5  A    between atoms: C_18  and  O_19 
ROOT
HETATM    1  N   UNL     1     -43.069  57.897 -50.950  1.00  0.00    -0.067 N 
HETATM    2  H   UNL     1     -43.345  57.823 -49.963  1.00  0.00     0.280 HD
HETATM    3  C   UNL     1     -43.884  56.874 -51.722  1.00  0.00     0.240 C 
HETATM    4  C   UNL     1     -44.677  57.685 -52.743  1.00  0.00     0.020 C 
HETATM    5  C   UNL     1     -44.862  59.031 -52.038  1.00  0.00     0.020 C 
HETATM    6  C   UNL     1     -43.498  59.278 -51.408  1.00  0.00     0.240 C 
HETATM    7  C   UNL     1     -43.939  57.795 -54.092  1.00  0.00     0.041 C 
HETATM    8  C   UNL     1     -44.562  58.857 -54.997  1.00  0.00     0.147 C 
HETATM    9  C   UNL     1     -44.592  60.219 -54.285  1.00  0.00     0.147 C 
HETATM   10  C   UNL     1     -45.342  60.154 -52.952  1.00  0.00     0.041 C 
ENDROOT
BRANCH   1  11
HETATM   11  C   UNL     1     -41.584  57.651 -50.986  1.00  0.00     0.273 C 
BRANCH  11  12
HETATM   12  C   UNL     1     -41.233  56.217 -51.269  1.00  0.00    -0.033 A 
HETATM   13  C   UNL     1     -40.976  55.320 -50.224  1.00  0.00     0.010 A 
HETATM   14  C   UNL     1     -40.620  53.994 -50.500  1.00  0.00     0.013 A 
HETATM   15  C   UNL     1     -40.505  53.530 -51.820  1.00  0.00    -0.023 A 
HETATM   16  C   UNL     1     -40.766  54.438 -52.857  1.00  0.00     0.013 A 
HETATM   17  C   UNL     1     -41.126  55.761 -52.590  1.00  0.00     0.010 A 
BRANCH  15  18
HETATM   18  C   UNL     1     -40.132  52.135 -52.110  1.00  0.00     0.013 A 
HETATM   19  C   UNL     1     -39.902  51.216 -51.072  1.00  0.00     0.015 A 
HETATM   20  C   UNL     1     -39.560  49.887 -51.347  1.00  0.00     0.001 A 
HETATM   21  C   UNL     1     -39.441  49.452 -52.665  1.00  0.00     0.003 A 
HETATM   22  C   UNL     1     -39.663  50.346 -53.709  1.00  0.00     0.043 A 
HETATM   23  C   UNL     1     -40.004  51.668 -53.429  1.00  0.00     0.127 A 
HETATM   24  F   UNL     1     -40.203  52.503 -54.461  1.00  0.00    -0.205 F 
ENDBRANCH  15  18
ENDBRANCH  11  12
ENDBRANCH   1  11
BRANCH   8  25
HETATM   25  O   UNL     1     -45.902  58.473 -55.308  1.00  0.00    -0.393 OA
HETATM   26  H   UNL     1     -46.164  58.947 -56.119  1.00  0.00     0.210 HD
ENDBRANCH   8  25
BRANCH   9  27
HETATM   27  O   UNL     1     -45.230  61.181 -55.117  1.00  0.00    -0.393 OA
HETATM   28  H   UNL     1     -46.192  61.024 -55.035  1.00  0.00     0.210 HD
ENDBRANCH   9  27
TORSDOF 5
ENDMDL
MODEL 9
REMARK VINA RESULT:      -7.8      4.668      5.818
REMARK  5 active torsions:
REMARK  status: ('A' for Active; 'I' for Inactive)
REMARK    1  A    between atoms: C_3  and  C_4 
REMARK    2  A    between atoms: C_7  and  C_8 
REMARK    3  A    between atoms: C_8  and  N_9 
REMARK    4  A    between atoms: C_16  and  O_17 
REMARK    5  A    between atoms: C_18  and  O_19 
ROOT
HETATM    1  N   UNL     1     -42.799  58.038 -51.744  1.00  0.00    -0.067 N 
HETATM    2  H   UNL     1     -42.538  57.498 -50.910  1.00  0.00     0.280 HD
HETATM    3  C   UNL     1     -44.195  57.596 -52.146  1.00  0.00     0.240 C 
HETATM    4  C   UNL     1     -45.048  58.860 -52.079  1.00  0.00     0.020 C 
HETATM    5  C   UNL     1     -44.354  59.680 -50.989  1.00  0.00     0.020 C 
HETATM    6  C   UNL     1     -42.877  59.487 -51.303  1.00  0.00     0.240 C 
HETATM    7  C   UNL     1     -45.119  59.582 -53.439  1.00  0.00     0.041 C 
HETATM    8  C   UNL     1     -45.690  60.992 -53.305  1.00  0.00     0.147 C 
HETATM    9  C   UNL     1     -44.865  61.813 -52.300  1.00  0.00     0.147 C 
HETATM   10  C   UNL     1     -44.796  61.138 -50.928  1.00  0.00     0.041 C 
ENDROOT
BRANCH   1  11
HETATM   11  C   UNL     1     -41.742  57.745 -52.776  1.00  0.00     0.273 C 
BRANCH  11  12
HETATM   12  C   UNL     1     -41.373  56.290 -52.842  1.00  0.00    -0.033 A 
HETATM   13  C   UNL     1     -41.260  55.523 -51.675  1.00  0.00     0.010 A 
HETATM   14  C   UNL     1     -40.885  54.176 -51.746  1.00  0.00     0.013 A 
HETATM   15  C   UNL     1     -40.609  53.560 -52.976  1.00  0.00    -0.023 A 
HETATM   16  C   UNL     1     -40.727  54.338 -54.138  1.00  0.00     0.013 A 
HETATM   17  C   UNL     1     -41.105  55.682 -54.076  1.00  0.00     0.010 A 
BRANCH  15  18
HETATM   18  C   UNL     1     -40.217  52.143 -53.052  1.00  0.00     0.013 A 
HETATM   19  C   UNL     1     -40.213  51.457 -54.278  1.00  0.00     0.015 A 
HETATM   20  C   UNL     1     -39.827  50.113 -54.353  1.00  0.00     0.001 A 
HETATM   21  C   UNL     1     -39.440  49.430 -53.202  1.00  0.00     0.003 A 
HETATM   22  C   UNL     1     -39.438  50.089 -51.976  1.00  0.00     0.043 A 
HETATM   23  C   UNL     1     -39.821  51.428 -51.908  1.00  0.00     0.127 A 
HETATM   24  F   UNL     1     -39.815  52.029 -50.707  1.00  0.00    -0.205 F 
ENDBRANCH  15  18
ENDBRANCH  11  12
ENDBRANCH   1  11
BRANCH   8  25
HETATM   25  O   UNL     1     -47.034  60.906 -52.832  1.00  0.00    -0.393 OA
HETATM   26  H   UNL     1     -47.086  61.407 -51.996  1.00  0.00     0.210 HD
ENDBRANCH   8  25
BRANCH   9  27
HETATM   27  O   UNL     1     -45.447  63.102 -52.142  1.00  0.00    -0.393 OA
HETATM   28  H   UNL     1     -46.403  63.000 -52.322  1.00  0.00     0.210 HD
ENDBRANCH   9  27
TORSDOF 5
ENDMDL
MODEL 10
REMARK VINA RESULT:      -7.5      2.073      2.928
REMARK  5 active torsions:
REMARK  status: ('A' for Active; 'I' for Inactive)
REMARK    1  A    between atoms: C_3  and  C_4 
REMARK    2  A    between atoms: C_7  and  C_8 
REMARK    3  A    between atoms: C_8  and  N_9 
REMARK    4  A    between atoms: C_16  and  O_17 
REMARK    5  A    between atoms: C_18  and  O_19 
ROOT
HETATM    1  N   UNL     1     -42.984  57.936 -57.280  1.00  0.00    -0.067 N 
HETATM    2  H   UNL     1     -42.617  58.100 -56.334  1.00  0.00     0.280 HD
HETATM    3  C   UNL     1     -44.210  58.816 -57.445  1.00  0.00     0.240 C 
HETATM    4  C   UNL     1     -43.890  59.728 -58.626  1.00  0.00     0.020 C 
HETATM    5  C   UNL     1     -42.367  59.854 -58.554  1.00  0.00     0.020 C 
HETATM    6  C   UNL     1     -41.920  58.433 -58.240  1.00  0.00     0.240 C 
HETATM    7  C   UNL     1     -44.395  59.145 -59.961  1.00  0.00     0.041 C 
HETATM    8  C   UNL     1     -43.805  59.878 -61.163  1.00  0.00     0.147 C 
HETATM    9  C   UNL     1     -42.269  59.850 -61.108  1.00  0.00     0.147 C 
HETATM   10  C   UNL     1     -41.730  60.448 -59.806  1.00  0.00     0.041 C 
ENDROOT
BRANCH   1  11
HETATM   11  C   UNL     1     -43.272  56.460 -57.363  1.00  0.00     0.273 C 
BRANCH  11  12
HETATM   12  C   UNL     1     -42.676  55.681 -56.224  1.00  0.00    -0.033 A 
HETATM   13  C   UNL     1     -41.611  56.201 -55.477  1.00  0.00     0.010 A 
HETATM   14  C   UNL     1     -41.043  55.453 -54.439  1.00  0.00     0.013 A 
HETATM   15  C   UNL     1     -41.514  54.170 -54.122  1.00  0.00    -0.023 A 
HETATM   16  C   UNL     1     -42.582  53.661 -54.877  1.00  0.00     0.013 A 
HETATM   17  C   UNL     1     -43.157  54.402 -55.912  1.00  0.00     0.010 A 
BRANCH  15  18
HETATM   18  C   UNL     1     -40.918  53.384 -53.028  1.00  0.00     0.013 A 
HETATM   19  C   UNL     1     -41.115  53.747 -51.685  1.00  0.00     0.015 A 
HETATM   20  C   UNL     1     -40.559  52.993 -50.644  1.00  0.00     0.001 A 
HETATM   21  C   UNL     1     -39.796  51.863 -50.928  1.00  0.00     0.003 A 
HETATM   22  C   UNL     1     -39.586  51.486 -52.252  1.00  0.00     0.043 A 
HETATM   23  C   UNL     1     -40.143  52.240 -53.283  1.00  0.00     0.127 A 
HETATM   24  F   UNL     1     -39.913  51.851 -54.548  1.00  0.00    -0.205 F 
ENDBRANCH  15  18
ENDBRANCH  11  12
ENDBRANCH   1  11
BRANCH   8  25
HETATM   25  O   UNL     1     -44.238  61.239 -61.135  1.00  0.00    -0.393 OA
HETATM   26  H   UNL     1     -45.209  61.242 -61.231  1.00  0.00     0.210 HD
ENDBRANCH   8  25
BRANCH   9  27
HETATM   27  O   UNL     1     -41.736  60.590 -62.200  1.00  0.00    -0.393 OA
HETATM   28  H   UNL     1     -42.368  61.315 -62.380  1.00  0.00     0.210 HD
ENDBRANCH   9  27
TORSDOF 5
ENDMDL
