MODEL 1
REMARK VINA RESULT:      -8.5      0.000      0.000
REMARK  2 active torsions:
REMARK  status: ('A' for Active; 'I' for Inactive)
REMARK    1  A    between atoms: C_2  and  N_3 
REMARK    2  A    between atoms: N_3  and  C_4 
ROOT
HETATM    1  N   UNL     1     -42.101  55.670 -52.628  1.00  0.00    -0.340 N 
HETATM    2  H   UNL     1     -43.089  55.536 -52.473  1.00  0.00     0.167 HD
ENDROOT
BRANCH   1   3
HETATM    3  C   UNL     1     -41.315  54.533 -52.375  1.00  0.00     0.036 A 
HETATM    4  C   UNL     1     -40.912  54.144 -51.092  1.00  0.00     0.032 A 
HETATM    5  C   UNL     1     -40.150  52.987 -50.892  1.00  0.00     0.042 A 
HETATM    6  C   UNL     1     -39.820  52.173 -51.971  1.00  0.00     0.102 A 
HETATM    7  C   UNL     1     -40.222  52.535 -53.255  1.00  0.00     0.104 A 
HETATM    8  O   UNL     1     -39.020  51.095 -51.711  1.00  0.00    -0.348 OA
HETATM    9  C   UNL     1     -40.948  53.714 -53.454  1.00  0.00     0.069 A 
HETATM   10  O   UNL     1     -39.870  51.834 -54.376  1.00  0.00    -0.348 OA
HETATM   11  C   UNL     1     -40.395  50.506 -54.365  1.00  0.00     0.178 C 
HETATM   12  C   UNL     1     -39.538  49.557 -53.540  1.00  0.00     0.053 C 
HETATM   13  C   UNL     1     -39.655  49.863 -52.055  1.00  0.00     0.178 C 
ENDBRANCH   1   3
BRANCH   1  14
HETATM   14  C   UNL     1     -41.762  56.974 -53.016  1.00  0.00     0.143 A 
HETATM   15  N   UNL     1     -41.221  57.846 -52.130  1.00  0.00    -0.223 NA
HETATM   16  C   UNL     1     -40.957  59.103 -52.513  1.00  0.00     0.236 A 
HETATM   17  N   UNL     1     -41.163  59.650 -53.711  1.00  0.00    -0.234 NA
HETATM   18  C   UNL     1     -41.694  58.776 -54.581  1.00  0.00     0.114 A 
HETATM   19  C   UNL     1     -42.017  57.442 -54.325  1.00  0.00     0.053 A 
HETATM   20  S   UNL     1     -42.051  59.268 -56.191  1.00  0.00    -0.073 SA
HETATM   21  C   UNL     1     -42.544  56.853 -55.513  1.00  0.00    -0.028 A 
HETATM   22  C   UNL     1     -42.609  57.738 -56.555  1.00  0.00    -0.008 A 
HETATM   23  C   UNL     1     -43.043  55.517 -55.930  1.00  0.00     0.041 C 
HETATM   24  C   UNL     1     -43.153  57.167 -57.808  1.00  0.00     0.047 C 
HETATM   25  C   UNL     1     -43.093  55.645 -57.484  1.00  0.00     0.010 C 
ENDBRANCH   1  14
TORSDOF 2
ENDMDL
MODEL 2
REMARK VINA RESULT:      -8.4      0.997      1.224
REMARK  2 active torsions:
REMARK  status: ('A' for Active; 'I' for Inactive)
REMARK    1  A    between atoms: C_2  and  N_3 
REMARK    2  A    between atoms: N_3  and  C_4 
ROOT
HETATM    1  N   UNL     1     -41.912  55.515 -51.406  1.00  0.00    -0.340 N 
HETATM    2  H   UNL     1     -42.886  55.432 -51.157  1.00  0.00     0.167 HD
ENDROOT
BRANCH   1   3
HETATM    3  C   UNL     1     -41.209  54.298 -51.413  1.00  0.00     0.036 A 
HETATM    4  C   UNL     1     -40.970  53.538 -50.262  1.00  0.00     0.032 A 
HETATM    5  C   UNL     1     -40.286  52.319 -50.329  1.00  0.00     0.042 A 
HETATM    6  C   UNL     1     -39.873  51.816 -51.558  1.00  0.00     0.102 A 
HETATM    7  C   UNL     1     -40.113  52.550 -52.718  1.00  0.00     0.104 A 
HETATM    8  O   UNL     1     -39.156  50.651 -51.542  1.00  0.00    -0.348 OA
HETATM    9  C   UNL     1     -40.760  53.787 -52.641  1.00  0.00     0.069 A 
HETATM   10  O   UNL     1     -39.668  52.165 -53.954  1.00  0.00    -0.348 OA
HETATM   11  C   UNL     1     -40.249  50.929 -54.372  1.00  0.00     0.178 C 
HETATM   12  C   UNL     1     -39.532  49.728 -53.774  1.00  0.00     0.053 C 
HETATM   13  C   UNL     1     -39.801  49.615 -52.281  1.00  0.00     0.178 C 
ENDBRANCH   1   3
BRANCH   1  14
HETATM   14  C   UNL     1     -41.499  56.835 -51.638  1.00  0.00     0.143 A 
HETATM   15  N   UNL     1     -40.870  57.548 -50.671  1.00  0.00    -0.223 NA
HETATM   16  C   UNL     1     -40.534  58.826 -50.902  1.00  0.00     0.236 A 
HETATM   17  N   UNL     1     -40.744  59.536 -52.011  1.00  0.00    -0.234 NA
HETATM   18  C   UNL     1     -41.362  58.817 -52.962  1.00  0.00     0.114 A 
HETATM   19  C   UNL     1     -41.765  57.484 -52.865  1.00  0.00     0.053 A 
HETATM   20  S   UNL     1     -41.739  59.536 -54.480  1.00  0.00    -0.073 SA
HETATM   21  C   UNL     1     -42.370  57.089 -54.095  1.00  0.00    -0.028 A 
HETATM   22  C   UNL     1     -42.411  58.104 -55.011  1.00  0.00    -0.008 A 
HETATM   23  C   UNL     1     -42.972  55.852 -54.657  1.00  0.00     0.041 C 
HETATM   24  C   UNL     1     -43.035  57.737 -56.303  1.00  0.00     0.047 C 
HETATM   25  C   UNL     1     -43.067  56.184 -56.179  1.00  0.00     0.010 C 
ENDBRANCH   1  14
TORSDOF 2
ENDMDL
MODEL 3
REMARK VINA RESULT:      -8.1      3.227      6.864
REMARK  2 active torsions:
REMARK  status: ('A' for Active; 'I' for Inactive)
REMARK    1  A    between atoms: C_2  and  N_3 
REMARK    2  A    between atoms: N_3  and  C_4 
ROOT
HETATM    1  N   UNL     1     -41.057  55.687 -54.383  1.00  0.00    -0.340 N 
HETATM    2  H   UNL     1     -40.165  55.440 -54.784  1.00  0.00     0.167 HD
ENDROOT
BRANCH   1   3
HETATM    3  C   UNL     1     -41.962  56.261 -55.292  1.00  0.00     0.036 A 
HETATM    4  C   UNL     1     -42.484  57.552 -55.150  1.00  0.00     0.032 A 
HETATM    5  C   UNL     1     -43.364  58.086 -56.099  1.00  0.00     0.042 A 
HETATM    6  C   UNL     1     -43.698  57.352 -57.232  1.00  0.00     0.102 A 
HETATM    7  C   UNL     1     -43.179  56.070 -57.400  1.00  0.00     0.104 A 
HETATM    8  O   UNL     1     -44.611  57.909 -58.084  1.00  0.00    -0.348 OA
HETATM    9  C   UNL     1     -42.333  55.525 -56.429  1.00  0.00     0.069 A 
HETATM   10  O   UNL     1     -43.522  55.253 -58.443  1.00  0.00    -0.348 OA
HETATM   11  C   UNL     1     -43.127  55.798 -59.703  1.00  0.00     0.178 C 
HETATM   12  C   UNL     1     -44.122  56.825 -60.220  1.00  0.00     0.053 C 
HETATM   13  C   UNL     1     -44.075  58.101 -59.393  1.00  0.00     0.178 C 
ENDBRANCH   1   3
BRANCH   1  14
HETATM   14  C   UNL     1     -41.147  55.433 -53.007  1.00  0.00     0.143 A 
HETATM   15  N   UNL     1     -41.549  56.399 -52.145  1.00  0.00    -0.223 NA
HETATM   16  C   UNL     1     -41.575  56.145 -50.829  1.00  0.00     0.236 A 
HETATM   17  N   UNL     1     -41.241  55.011 -50.211  1.00  0.00    -0.234 NA
HETATM   18  C   UNL     1     -40.850  54.062 -51.075  1.00  0.00     0.114 A 
HETATM   19  C   UNL     1     -40.777  54.181 -52.465  1.00  0.00     0.053 A 
HETATM   20  S   UNL     1     -40.367  52.514 -50.497  1.00  0.00    -0.073 SA
HETATM   21  C   UNL     1     -40.331  52.944 -53.017  1.00  0.00    -0.028 A 
HETATM   22  C   UNL     1     -40.080  52.000 -52.058  1.00  0.00    -0.008 A 
HETATM   23  C   UNL     1     -40.066  52.396 -54.372  1.00  0.00     0.041 C 
HETATM   24  C   UNL     1     -39.612  50.699 -52.590  1.00  0.00     0.047 C 
HETATM   25  C   UNL     1     -39.950  50.864 -54.101  1.00  0.00     0.010 C 
ENDBRANCH   1  14
TORSDOF 2
ENDMDL
MODEL 4
REMARK VINA RESULT:      -8.1      1.468      3.245
REMARK  2 active torsions:
REMARK  status: ('A' for Active; 'I' for Inactive)
REMARK    1  A    between atoms: C_2  and  N_3 
REMARK    2  A    between atoms: N_3  and  C_4 
ROOT
HETATM    1  N   UNL     1     -43.065  54.959 -52.738  1.00  0.00    -0.340 N 
HETATM    2  H   UNL     1     -43.891  54.859 -52.166  1.00  0.00     0.167 HD
ENDROOT
BRANCH   1   3
HETATM    3  C   UNL     1     -42.062  54.011 -52.478  1.00  0.00     0.036 A 
HETATM    4  C   UNL     1     -41.585  53.723 -51.194  1.00  0.00     0.032 A 
HETATM    5  C   UNL     1     -40.601  52.750 -50.988  1.00  0.00     0.042 A 
HETATM    6  C   UNL     1     -40.112  52.012 -52.061  1.00  0.00     0.102 A 
HETATM    7  C   UNL     1     -40.584  52.272 -53.346  1.00  0.00     0.104 A 
HETATM    8  O   UNL     1     -39.108  51.122 -51.796  1.00  0.00    -0.348 OA
HETATM    9  C   UNL     1     -41.536  53.274 -53.553  1.00  0.00     0.069 A 
HETATM   10  O   UNL     1     -40.096  51.649 -54.464  1.00  0.00    -0.348 OA
HETATM   11  C   UNL     1     -40.337  50.241 -54.440  1.00  0.00     0.178 C 
HETATM   12  C   UNL     1     -39.302  49.496 -53.611  1.00  0.00     0.053 C 
HETATM   13  C   UNL     1     -39.476  49.784 -52.127  1.00  0.00     0.178 C 
ENDBRANCH   1   3
BRANCH   1  14
HETATM   14  C   UNL     1     -43.116  56.050 -53.617  1.00  0.00     0.143 A 
HETATM   15  N   UNL     1     -43.746  55.952 -54.813  1.00  0.00    -0.223 NA
HETATM   16  C   UNL     1     -43.733  56.994 -55.657  1.00  0.00     0.236 A 
HETATM   17  N   UNL     1     -43.154  58.182 -55.477  1.00  0.00    -0.234 NA
HETATM   18  C   UNL     1     -42.539  58.268 -54.287  1.00  0.00     0.114 A 
HETATM   19  C   UNL     1     -42.474  57.272 -53.311  1.00  0.00     0.053 A 
HETATM   20  S   UNL     1     -41.719  59.714 -53.841  1.00  0.00    -0.073 SA
HETATM   21  C   UNL     1     -41.744  57.764 -52.189  1.00  0.00    -0.028 A 
HETATM   22  C   UNL     1     -41.295  59.044 -52.374  1.00  0.00    -0.008 A 
HETATM   23  C   UNL     1     -41.337  57.255 -50.854  1.00  0.00     0.041 C 
HETATM   24  C   UNL     1     -40.529  59.594 -51.232  1.00  0.00     0.047 C 
HETATM   25  C   UNL     1     -40.872  58.554 -50.124  1.00  0.00     0.010 C 
ENDBRANCH   1  14
TORSDOF 2
ENDMDL
MODEL 5
REMARK VINA RESULT:      -8.0      3.656      7.364
REMARK  2 active torsions:
REMARK  status: ('A' for Active; 'I' for Inactive)
REMARK    1  A    between atoms: C_2  and  N_3 
REMARK    2  A    between atoms: N_3  and  C_4 
ROOT
HETATM    1  N   UNL     1     -43.542  55.489 -55.977  1.00  0.00    -0.340 N 
HETATM    2  H   UNL     1     -43.855  54.541 -56.127  1.00  0.00     0.167 HD
ENDROOT
BRANCH   1   3
HETATM    3  C   UNL     1     -43.082  56.137 -57.135  1.00  0.00     0.036 A 
HETATM    4  C   UNL     1     -43.187  55.590 -58.420  1.00  0.00     0.032 A 
HETATM    5  C   UNL     1     -42.735  56.289 -59.544  1.00  0.00     0.042 A 
HETATM    6  C   UNL     1     -42.213  57.571 -59.406  1.00  0.00     0.102 A 
HETATM    7  C   UNL     1     -42.111  58.140 -58.138  1.00  0.00     0.104 A 
HETATM    8  O   UNL     1     -41.732  58.170 -60.538  1.00  0.00    -0.348 OA
HETATM    9  C   UNL     1     -42.526  57.420 -57.013  1.00  0.00     0.069 A 
HETATM   10  O   UNL     1     -41.535  59.360 -57.908  1.00  0.00    -0.348 OA
HETATM   11  C   UNL     1     -42.249  60.419 -58.549  1.00  0.00     0.178 C 
HETATM   12  C   UNL     1     -41.877  60.554 -60.018  1.00  0.00     0.053 C 
HETATM   13  C   UNL     1     -42.417  59.388 -60.831  1.00  0.00     0.178 C 
ENDBRANCH   1   3
BRANCH   1  14
HETATM   14  C   UNL     1     -43.608  55.900 -54.638  1.00  0.00     0.143 A 
HETATM   15  N   UNL     1     -44.445  56.896 -54.256  1.00  0.00    -0.223 NA
HETATM   16  C   UNL     1     -44.448  57.306 -52.979  1.00  0.00     0.236 A 
HETATM   17  N   UNL     1     -43.702  56.848 -51.974  1.00  0.00    -0.234 NA
HETATM   18  C   UNL     1     -42.882  55.859 -52.364  1.00  0.00     0.114 A 
HETATM   19  C   UNL     1     -42.773  55.329 -53.651  1.00  0.00     0.053 A 
HETATM   20  S   UNL     1     -41.819  55.119 -51.229  1.00  0.00    -0.073 SA
HETATM   21  C   UNL     1     -41.800  54.285 -53.646  1.00  0.00    -0.028 A 
HETATM   22  C   UNL     1     -41.233  54.101 -52.413  1.00  0.00    -0.008 A 
HETATM   23  C   UNL     1     -41.234  53.328 -54.630  1.00  0.00     0.041 C 
HETATM   24  C   UNL     1     -40.215  53.027 -52.364  1.00  0.00     0.047 C 
HETATM   25  C   UNL     1     -40.487  52.306 -53.717  1.00  0.00     0.010 C 
ENDBRANCH   1  14
TORSDOF 2
ENDMDL
MODEL 6
REMARK VINA RESULT:      -7.9      1.784      2.896
REMARK  2 active torsions:
REMARK  status: ('A' for Active; 'I' for Inactive)
REMARK    1  A    between atoms: C_2  and  N_3 
REMARK    2  A    between atoms: N_3  and  C_4 
ROOT
HETATM    1  N   UNL     1     -43.073  56.490 -54.851  1.00  0.00    -0.340 N 
HETATM    2  H   UNL     1     -44.077  56.392 -54.856  1.00  0.00     0.167 HD
ENDROOT
BRANCH   1   3
HETATM    3  C   UNL     1     -42.382  55.355 -54.397  1.00  0.00     0.036 A 
HETATM    4  C   UNL     1     -41.436  54.668 -55.168  1.00  0.00     0.032 A 
HETATM    5  C   UNL     1     -40.756  53.556 -54.657  1.00  0.00     0.042 A 
HETATM    6  C   UNL     1     -40.976  53.143 -53.348  1.00  0.00     0.102 A 
HETATM    7  C   UNL     1     -41.904  53.820 -52.559  1.00  0.00     0.104 A 
HETATM    8  O   UNL     1     -40.325  52.012 -52.937  1.00  0.00    -0.348 OA
HETATM    9  C   UNL     1     -42.611  54.905 -53.087  1.00  0.00     0.069 A 
HETATM   10  O   UNL     1     -42.238  53.428 -51.291  1.00  0.00    -0.348 OA
HETATM   11  C   UNL     1     -41.125  53.495 -50.399  1.00  0.00     0.178 C 
HETATM   12  C   UNL     1     -40.228  52.271 -50.508  1.00  0.00     0.053 C 
HETATM   13  C   UNL     1     -39.467  52.263 -51.825  1.00  0.00     0.178 C 
ENDBRANCH   1   3
BRANCH   1  14
HETATM   14  C   UNL     1     -42.628  57.755 -55.260  1.00  0.00     0.143 A 
HETATM   15  N   UNL     1     -42.347  58.721 -54.351  1.00  0.00    -0.223 NA
HETATM   16  C   UNL     1     -41.974  59.939 -54.772  1.00  0.00     0.236 A 
HETATM   17  N   UNL     1     -41.834  60.360 -56.029  1.00  0.00    -0.234 NA
HETATM   18  C   UNL     1     -42.110  59.392 -56.919  1.00  0.00     0.114 A 
HETATM   19  C   UNL     1     -42.503  58.084 -56.629  1.00  0.00     0.053 A 
HETATM   20  S   UNL     1     -41.999  59.714 -58.606  1.00  0.00    -0.073 SA
HETATM   21  C   UNL     1     -42.684  57.370 -57.850  1.00  0.00    -0.028 A 
HETATM   22  C   UNL     1     -42.448  58.145 -58.953  1.00  0.00    -0.008 A 
HETATM   23  C   UNL     1     -43.059  55.990 -58.251  1.00  0.00     0.041 C 
HETATM   24  C   UNL     1     -42.627  57.441 -60.244  1.00  0.00     0.047 C 
HETATM   25  C   UNL     1     -42.674  55.960 -59.763  1.00  0.00     0.010 C 
ENDBRANCH   1  14
TORSDOF 2
ENDMDL
MODEL 7
REMARK VINA RESULT:      -7.9      2.699      4.050
REMARK  2 active torsions:
REMARK  status: ('A' for Active; 'I' for Inactive)
REMARK    1  A    between atoms: C_2  and  N_3 
REMARK    2  A    between atoms: N_3  and  C_4 
ROOT
HETATM    1  N   UNL     1     -42.237  55.350 -56.673  1.00  0.00    -0.340 N 
HETATM    2  H   UNL     1     -42.211  54.770 -57.498  1.00  0.00     0.167 HD
ENDROOT
BRANCH   1   3
HETATM    3  C   UNL     1     -41.813  54.708 -55.498  1.00  0.00     0.036 A 
HETATM    4  C   UNL     1     -40.550  54.121 -55.353  1.00  0.00     0.032 A 
HETATM    5  C   UNL     1     -40.167  53.515 -54.151  1.00  0.00     0.042 A 
HETATM    6  C   UNL     1     -41.025  53.530 -53.056  1.00  0.00     0.102 A 
HETATM    7  C   UNL     1     -42.281  54.121 -53.175  1.00  0.00     0.104 A 
HETATM    8  O   UNL     1     -40.612  52.865 -51.935  1.00  0.00    -0.348 OA
HETATM    9  C   UNL     1     -42.676  54.688 -54.391  1.00  0.00     0.069 A 
HETATM   10  O   UNL     1     -43.214  54.106 -52.173  1.00  0.00    -0.348 OA
HETATM   11  C   UNL     1     -42.767  54.811 -51.014  1.00  0.00     0.178 C 
HETATM   12  C   UNL     1     -41.860  53.958 -50.140  1.00  0.00     0.053 C 
HETATM   13  C   UNL     1     -40.511  53.731 -50.805  1.00  0.00     0.178 C 
ENDBRANCH   1   3
BRANCH   1  14
HETATM   14  C   UNL     1     -42.735  56.641 -56.906  1.00  0.00     0.143 A 
HETATM   15  N   UNL     1     -42.366  57.682 -56.120  1.00  0.00    -0.223 NA
HETATM   16  C   UNL     1     -42.899  58.894 -56.332  1.00  0.00     0.236 A 
HETATM   17  N   UNL     1     -43.793  59.241 -57.258  1.00  0.00    -0.234 NA
HETATM   18  C   UNL     1     -44.146  58.203 -58.033  1.00  0.00     0.114 A 
HETATM   19  C   UNL     1     -43.673  56.893 -57.932  1.00  0.00     0.053 A 
HETATM   20  S   UNL     1     -45.295  58.419 -59.295  1.00  0.00    -0.073 SA
HETATM   21  C   UNL     1     -44.283  56.098 -58.948  1.00  0.00    -0.028 A 
HETATM   22  C   UNL     1     -45.162  56.811 -59.717  1.00  0.00    -0.008 A 
HETATM   23  C   UNL     1     -44.216  54.685 -59.403  1.00  0.00     0.041 C 
HETATM   24  C   UNL     1     -45.821  56.021 -60.784  1.00  0.00     0.047 C 
HETATM   25  C   UNL     1     -44.931  54.742 -60.789  1.00  0.00     0.010 C 
ENDBRANCH   1  14
TORSDOF 2
ENDMDL
MODEL 8
REMARK VINA RESULT:      -7.8     14.822     16.684
REMARK  2 active torsions:
REMARK  status: ('A' for Active; 'I' for Inactive)
REMARK    1  A    between atoms: C_2  and  N_3 
REMARK    2  A    between atoms: N_3  and  C_4 
ROOT
HETATM    1  N   UNL     1     -37.412  41.956 -55.470  1.00  0.00    -0.340 N 
HETATM    2  H   UNL     1     -37.567  42.944 -55.341  1.00  0.00     0.167 HD
ENDROOT
BRANCH   1   3
HETATM    3  C   UNL     1     -37.456  41.532 -56.809  1.00  0.00     0.036 A 
HETATM    4  C   UNL     1     -36.991  42.305 -57.879  1.00  0.00     0.032 A 
HETATM    5  C   UNL     1     -37.034  41.824 -59.193  1.00  0.00     0.042 A 
HETATM    6  C   UNL     1     -37.498  40.539 -59.451  1.00  0.00     0.102 A 
HETATM    7  C   UNL     1     -37.953  39.747 -58.398  1.00  0.00     0.104 A 
HETATM    8  O   UNL     1     -37.572  40.158 -60.762  1.00  0.00    -0.348 OA
HETATM    9  C   UNL     1     -37.947  40.247 -57.093  1.00  0.00     0.069 A 
HETATM   10  O   UNL     1     -38.500  38.505 -58.577  1.00  0.00    -0.348 OA
HETATM   11  C   UNL     1     -37.564  37.582 -59.137  1.00  0.00     0.178 C 
HETATM   12  C   UNL     1     -37.458  37.719 -60.648  1.00  0.00     0.053 C 
HETATM   13  C   UNL     1     -36.762  39.015 -61.034  1.00  0.00     0.178 C 
ENDBRANCH   1   3
BRANCH   1  14
HETATM   14  C   UNL     1     -37.235  41.251 -54.271  1.00  0.00     0.143 A 
HETATM   15  N   UNL     1     -38.270  41.061 -53.415  1.00  0.00    -0.223 NA
HETATM   16  C   UNL     1     -38.060  40.430 -52.251  1.00  0.00     0.236 A 
HETATM   17  N   UNL     1     -36.913  39.935 -51.787  1.00  0.00    -0.234 NA
HETATM   18  C   UNL     1     -35.898  40.124 -52.645  1.00  0.00     0.114 A 
HETATM   19  C   UNL     1     -35.968  40.757 -53.888  1.00  0.00     0.053 A 
HETATM   20  S   UNL     1     -34.317  39.569 -52.250  1.00  0.00    -0.073 SA
HETATM   21  C   UNL     1     -34.676  40.739 -54.494  1.00  0.00    -0.028 A 
HETATM   22  C   UNL     1     -33.733  40.139 -53.704  1.00  0.00    -0.008 A 
HETATM   23  C   UNL     1     -34.073  41.199 -55.771  1.00  0.00     0.041 C 
HETATM   24  C   UNL     1     -32.375  40.102 -54.296  1.00  0.00     0.047 C 
HETATM   25  C   UNL     1     -32.693  40.472 -55.775  1.00  0.00     0.010 C 
ENDBRANCH   1  14
TORSDOF 2
ENDMDL
MODEL 9
REMARK VINA RESULT:      -7.7      1.342      1.342
REMARK  2 active torsions:
REMARK  status: ('A' for Active; 'I' for Inactive)
REMARK    1  A    between atoms: C_2  and  N_3 
REMARK    2  A    between atoms: N_3  and  C_4 
ROOT
HETATM    1  N   UNL     1     -43.425  55.112 -52.953  1.00  0.00    -0.340 N 
HETATM    2  H   UNL     1     -44.311  54.644 -53.066  1.00  0.00     0.167 HD
ENDROOT
BRANCH   1   3
HETATM    3  C   UNL     1     -42.349  54.257 -52.664  1.00  0.00     0.036 A 
HETATM    4  C   UNL     1     -41.796  54.116 -51.385  1.00  0.00     0.032 A 
HETATM    5  C   UNL     1     -40.740  53.229 -51.146  1.00  0.00     0.042 A 
HETATM    6  C   UNL     1     -40.252  52.431 -52.175  1.00  0.00     0.102 A 
HETATM    7  C   UNL     1     -40.796  52.545 -53.452  1.00  0.00     0.104 A 
HETATM    8  O   UNL     1     -39.178  51.635 -51.885  1.00  0.00    -0.348 OA
HETATM    9  C   UNL     1     -41.823  53.463 -53.696  1.00  0.00     0.069 A 
HETATM   10  O   UNL     1     -40.318  51.858 -54.535  1.00  0.00    -0.348 OA
HETATM   11  C   UNL     1     -40.462  50.445 -54.378  1.00  0.00     0.178 C 
HETATM   12  C   UNL     1     -39.343  49.844 -53.541  1.00  0.00     0.053 C 
HETATM   13  C   UNL     1     -39.470  50.251 -52.081  1.00  0.00     0.178 C 
ENDBRANCH   1   3
BRANCH   1  14
HETATM   14  C   UNL     1     -43.505  56.508 -53.071  1.00  0.00     0.143 A 
HETATM   15  N   UNL     1     -43.611  57.294 -51.972  1.00  0.00    -0.223 NA
HETATM   16  C   UNL     1     -43.740  58.621 -52.117  1.00  0.00     0.236 A 
HETATM   17  N   UNL     1     -43.783  59.317 -53.253  1.00  0.00    -0.234 NA
HETATM   18  C   UNL     1     -43.671  58.527 -54.333  1.00  0.00     0.114 A 
HETATM   19  C   UNL     1     -43.527  57.138 -54.335  1.00  0.00     0.053 A 
HETATM   20  S   UNL     1     -43.706  59.213 -55.912  1.00  0.00    -0.073 SA
HETATM   21  C   UNL     1     -43.427  56.682 -55.683  1.00  0.00    -0.028 A 
HETATM   22  C   UNL     1     -43.517  57.701 -56.592  1.00  0.00    -0.008 A 
HETATM   23  C   UNL     1     -43.245  55.380 -56.374  1.00  0.00     0.041 C 
HETATM   24  C   UNL     1     -43.421  57.270 -58.006  1.00  0.00     0.047 C 
HETATM   25  C   UNL     1     -42.889  55.816 -57.830  1.00  0.00     0.010 C 
ENDBRANCH   1  14
TORSDOF 2
ENDMDL
MODEL 10
REMARK VINA RESULT:      -7.7      3.522      7.006
REMARK  2 active torsions:
REMARK  status: ('A' for Active; 'I' for Inactive)
REMARK    1  A    between atoms: C_2  and  N_3 
REMARK    2  A    between atoms: N_3  and  C_4 
ROOT
HETATM    1  N   UNL     1     -41.630  56.886 -54.714  1.00  0.00    -0.340 N 
HETATM    2  H   UNL     1     -40.757  57.387 -54.781  1.00  0.00     0.167 HD
ENDROOT
BRANCH   1   3
HETATM    3  C   UNL     1     -42.285  56.695 -55.941  1.00  0.00     0.036 A 
HETATM    4  C   UNL     1     -42.658  55.436 -56.429  1.00  0.00     0.032 A 
HETATM    5  C   UNL     1     -43.333  55.303 -57.648  1.00  0.00     0.042 A 
HETATM    6  C   UNL     1     -43.689  56.433 -58.377  1.00  0.00     0.102 A 
HETATM    7  C   UNL     1     -43.340  57.696 -57.902  1.00  0.00     0.104 A 
HETATM    8  O   UNL     1     -44.290  56.226 -59.587  1.00  0.00    -0.348 OA
HETATM    9  C   UNL     1     -42.629  57.822 -56.705  1.00  0.00     0.069 A 
HETATM   10  O   UNL     1     -43.581  58.850 -58.598  1.00  0.00    -0.348 OA
HETATM   11  C   UNL     1     -44.978  59.082 -58.784  1.00  0.00     0.178 C 
HETATM   12  C   UNL     1     -45.538  58.294 -59.958  1.00  0.00     0.053 C 
HETATM   13  C   UNL     1     -45.592  56.807 -59.646  1.00  0.00     0.178 C 
ENDBRANCH   1   3
BRANCH   1  14
HETATM   14  C   UNL     1     -41.987  56.548 -53.400  1.00  0.00     0.143 A 
HETATM   15  N   UNL     1     -42.696  57.407 -52.628  1.00  0.00    -0.223 NA
HETATM   16  C   UNL     1     -42.977  57.080 -51.358  1.00  0.00     0.236 A 
HETATM   17  N   UNL     1     -42.638  55.966 -50.709  1.00  0.00    -0.234 NA
HETATM   18  C   UNL     1     -41.941  55.122 -51.486  1.00  0.00     0.114 A 
HETATM   19  C   UNL     1     -41.581  55.325 -52.819  1.00  0.00     0.053 A 
HETATM   20  S   UNL     1     -41.393  53.618 -50.852  1.00  0.00    -0.073 SA
HETATM   21  C   UNL     1     -40.861  54.186 -53.287  1.00  0.00    -0.028 A 
HETATM   22  C   UNL     1     -40.703  53.230 -52.320  1.00  0.00    -0.008 A 
HETATM   23  C   UNL     1     -40.232  53.751 -54.561  1.00  0.00     0.041 C 
HETATM   24  C   UNL     1     -39.957  52.029 -52.765  1.00  0.00     0.047 C 
HETATM   25  C   UNL     1     -39.973  52.232 -54.309  1.00  0.00     0.010 C 
ENDBRANCH   1  14
TORSDOF 2
ENDMDL
