MODEL 1
REMARK VINA RESULT:      -8.5      0.000      0.000
REMARK  6 active torsions:
REMARK  status: ('A' for Active; 'I' for Inactive)
REMARK    1  A    between atoms: C_4  and  N_5 
REMARK    2  A    between atoms: C_7  and  C_8 
REMARK       I    between atoms: C_8  and  N_9 
REMARK    3  A    between atoms: N_9  and  N_10 
REMARK       I    between atoms: N_10  and  C_11 
REMARK    4  A    between atoms: C_11  and  C_12 
REMARK    5  A    between atoms: C_12  and  C_13 
REMARK    6  A    between atoms: C_22  and  O_23 
ROOT
HETATM    1  C   UNL     1     -43.247  56.439 -58.466  1.00  0.00     0.293 C 
HETATM    2  N   UNL     1     -43.128  55.540 -57.427  1.00  0.00    -0.262 N 
HETATM    3  O   UNL     1     -42.441  57.346 -58.673  1.00  0.00    -0.264 OA
HETATM    4  H   UNL     1     -43.788  54.765 -57.333  1.00  0.00     0.190 HD
ENDROOT
BRANCH   1   5
HETATM    5  C   UNL     1     -44.420  56.221 -59.311  1.00  0.00     0.181 A 
HETATM    6  N   UNL     1     -45.240  57.217 -59.693  1.00  0.00    -0.159 NA
HETATM    7  N   UNL     1     -46.200  56.614 -60.458  1.00  0.00    -0.242 N 
HETATM    8  C   UNL     1     -45.988  55.256 -60.555  1.00  0.00     0.158 A 
HETATM    9  C   UNL     1     -44.860  54.990 -59.834  1.00  0.00     0.119 A 
BRANCH   7  10
HETATM   10  C   UNL     1     -47.252  57.378 -61.040  1.00  0.00     0.058 A 
HETATM   11  C   UNL     1     -48.136  56.764 -61.942  1.00  0.00     0.031 A 
HETATM   12  C   UNL     1     -49.173  57.498 -62.520  1.00  0.00     0.002 A 
HETATM   13  C   UNL     1     -49.335  58.846 -62.208  1.00  0.00     0.000 A 
HETATM   14  C   UNL     1     -48.461  59.463 -61.315  1.00  0.00     0.002 A 
HETATM   15  C   UNL     1     -47.420  58.735 -60.730  1.00  0.00     0.031 A 
ENDBRANCH   7  10
BRANCH   9  16
HETATM   16  O   UNL     1     -44.333  53.763 -59.698  1.00  0.00    -0.357 OA
HETATM   17  H   UNL     1     -45.046  53.091 -59.717  1.00  0.00     0.218 HD
ENDBRANCH   9  16
ENDBRANCH   1   5
BRANCH   2  18
HETATM   18  N   UNL     1     -42.020  55.589 -56.578  1.00  0.00    -0.267 N 
HETATM   19  C   UNL     1     -41.980  54.710 -55.514  1.00  0.00     0.240 C 
HETATM   20  O   UNL     1     -42.905  53.945 -55.249  1.00  0.00    -0.272 OA
HETATM   21  H   UNL     1     -41.196  56.079 -56.924  1.00  0.00     0.190 HD
BRANCH  19  22
HETATM   22  C   UNL     1     -40.701  54.773 -54.703  1.00  0.00     0.143 C 
BRANCH  22  23
HETATM   23  C   UNL     1     -40.385  53.557 -53.858  1.00  0.00    -0.049 A 
HETATM   24  C   UNL     1     -40.074  52.301 -54.395  1.00  0.00     0.009 A 
HETATM   25  C   UNL     1     -39.814  51.210 -53.557  1.00  0.00     0.019 A 
HETATM   26  C   UNL     1     -39.871  51.368 -52.175  1.00  0.00     0.011 A 
HETATM   27 BR   UNL     1     -39.530  49.891 -51.045  1.00  0.00    -0.051 Br
HETATM   28  C   UNL     1     -40.186  52.604 -51.620  1.00  0.00     0.019 A 
HETATM   29  C   UNL     1     -40.442  53.692 -52.459  1.00  0.00     0.009 A 
ENDBRANCH  22  23
ENDBRANCH  19  22
ENDBRANCH   2  18
TORSDOF 6
ENDMDL
MODEL 2
REMARK VINA RESULT:      -8.4      7.916     11.100
REMARK  6 active torsions:
REMARK  status: ('A' for Active; 'I' for Inactive)
REMARK    1  A    between atoms: C_4  and  N_5 
REMARK    2  A    between atoms: C_7  and  C_8 
REMARK       I    between atoms: C_8  and  N_9 
REMARK    3  A    between atoms: N_9  and  N_10 
REMARK       I    between atoms: N_10  and  C_11 
REMARK    4  A    between atoms: C_11  and  C_12 
REMARK    5  A    between atoms: C_12  and  C_13 
REMARK    6  A    between atoms: C_22  and  O_23 
ROOT
HETATM    1  C   UNL     1     -42.946  57.669 -51.626  1.00  0.00     0.293 C 
HETATM    2  N   UNL     1     -43.890  58.142 -50.739  1.00  0.00    -0.262 N 
HETATM    3  O   UNL     1     -42.272  58.399 -52.352  1.00  0.00    -0.264 OA
HETATM    4  H   UNL     1     -44.380  57.501 -50.112  1.00  0.00     0.190 HD
ENDROOT
BRANCH   1   5
HETATM    5  C   UNL     1     -42.809  56.213 -51.630  1.00  0.00     0.181 A 
HETATM    6  N   UNL     1     -41.778  55.579 -52.218  1.00  0.00    -0.159 NA
HETATM    7  N   UNL     1     -42.014  54.248 -52.007  1.00  0.00    -0.242 N 
HETATM    8  C   UNL     1     -43.178  54.047 -51.298  1.00  0.00     0.158 A 
HETATM    9  C   UNL     1     -43.694  55.286 -51.049  1.00  0.00     0.119 A 
BRANCH   7  10
HETATM   10  C   UNL     1     -41.110  53.263 -52.500  1.00  0.00     0.058 A 
HETATM   11  C   UNL     1     -41.116  52.940 -53.867  1.00  0.00     0.031 A 
HETATM   12  C   UNL     1     -40.235  51.979 -54.367  1.00  0.00     0.002 A 
HETATM   13  C   UNL     1     -39.347  51.333 -53.512  1.00  0.00     0.000 A 
HETATM   14  C   UNL     1     -39.335  51.646 -52.154  1.00  0.00     0.002 A 
HETATM   15  C   UNL     1     -40.213  52.609 -51.645  1.00  0.00     0.031 A 
ENDBRANCH   7  10
BRANCH   9  16
HETATM   16  O   UNL     1     -44.834  55.496 -50.371  1.00  0.00    -0.357 OA
HETATM   17  H   UNL     1     -44.668  55.413 -49.409  1.00  0.00     0.218 HD
ENDBRANCH   9  16
ENDBRANCH   1   5
BRANCH   2  18
HETATM   18  N   UNL     1     -44.081  59.516 -50.583  1.00  0.00    -0.267 N 
HETATM   19  C   UNL     1     -45.336  59.958 -50.209  1.00  0.00     0.240 C 
HETATM   20  O   UNL     1     -46.295  59.200 -50.080  1.00  0.00    -0.272 OA
HETATM   21  H   UNL     1     -43.244  60.092 -50.501  1.00  0.00     0.190 HD
BRANCH  19  22
HETATM   22  C   UNL     1     -45.425  61.453 -49.975  1.00  0.00     0.143 C 
BRANCH  22  23
HETATM   23  C   UNL     1     -45.271  61.915 -48.541  1.00  0.00    -0.049 A 
HETATM   24  C   UNL     1     -45.228  61.040 -47.447  1.00  0.00     0.009 A 
HETATM   25  C   UNL     1     -45.108  61.533 -46.143  1.00  0.00     0.019 A 
HETATM   26  C   UNL     1     -45.036  62.906 -45.923  1.00  0.00     0.011 A 
HETATM   27 BR   UNL     1     -44.884  63.571 -44.161  1.00  0.00    -0.051 Br
HETATM   28  C   UNL     1     -45.085  63.793 -46.994  1.00  0.00     0.019 A 
HETATM   29  C   UNL     1     -45.202  63.298 -48.296  1.00  0.00     0.009 A 
ENDBRANCH  22  23
ENDBRANCH  19  22
ENDBRANCH   2  18
TORSDOF 6
ENDMDL
MODEL 3
REMARK VINA RESULT:      -8.3      4.942      9.991
REMARK  6 active torsions:
REMARK  status: ('A' for Active; 'I' for Inactive)
REMARK    1  A    between atoms: C_4  and  N_5 
REMARK    2  A    between atoms: C_7  and  C_8 
REMARK       I    between atoms: C_8  and  N_9 
REMARK    3  A    between atoms: N_9  and  N_10 
REMARK       I    between atoms: N_10  and  C_11 
REMARK    4  A    between atoms: C_11  and  C_12 
REMARK    5  A    between atoms: C_12  and  C_13 
REMARK    6  A    between atoms: C_22  and  O_23 
ROOT
HETATM    1  C   UNL     1     -42.825  55.877 -57.036  1.00  0.00     0.293 C 
HETATM    2  N   UNL     1     -42.125  57.062 -57.112  1.00  0.00    -0.262 N 
HETATM    3  O   UNL     1     -43.476  55.412 -57.971  1.00  0.00    -0.264 OA
HETATM    4  H   UNL     1     -41.547  57.376 -56.330  1.00  0.00     0.190 HD
ENDROOT
BRANCH   1   5
HETATM    5  C   UNL     1     -42.725  55.209 -55.739  1.00  0.00     0.181 A 
HETATM    6  N   UNL     1     -41.680  54.432 -55.396  1.00  0.00    -0.159 NA
HETATM    7  N   UNL     1     -41.961  53.998 -54.130  1.00  0.00    -0.242 N 
HETATM    8  C   UNL     1     -43.166  54.493 -53.681  1.00  0.00     0.158 A 
HETATM    9  C   UNL     1     -43.663  55.266 -54.691  1.00  0.00     0.119 A 
BRANCH   7  10
HETATM   10  C   UNL     1     -41.057  53.141 -53.439  1.00  0.00     0.058 A 
HETATM   11  C   UNL     1     -40.448  52.079 -54.127  1.00  0.00     0.031 A 
HETATM   12  C   UNL     1     -39.558  51.230 -53.466  1.00  0.00     0.002 A 
HETATM   13  C   UNL     1     -39.272  51.430 -52.118  1.00  0.00     0.000 A 
HETATM   14  C   UNL     1     -39.873  52.480 -51.427  1.00  0.00     0.002 A 
HETATM   15  C   UNL     1     -40.764  53.336 -52.082  1.00  0.00     0.031 A 
ENDBRANCH   7  10
BRANCH   9  16
HETATM   16  O   UNL     1     -44.831  55.924 -54.621  1.00  0.00    -0.357 OA
HETATM   17  H   UNL     1     -45.566  55.323 -54.863  1.00  0.00     0.218 HD
ENDBRANCH   9  16
ENDBRANCH   1   5
BRANCH   2  18
HETATM   18  N   UNL     1     -42.079  57.775 -58.312  1.00  0.00    -0.267 N 
HETATM   19  C   UNL     1     -42.908  58.871 -58.448  1.00  0.00     0.240 C 
HETATM   20  O   UNL     1     -43.726  59.195 -57.589  1.00  0.00    -0.272 OA
HETATM   21  H   UNL     1     -41.271  57.613 -58.913  1.00  0.00     0.190 HD
BRANCH  19  22
HETATM   22  C   UNL     1     -42.723  59.635 -59.744  1.00  0.00     0.143 C 
BRANCH  22  23
HETATM   23  C   UNL     1     -41.724  60.772 -59.712  1.00  0.00    -0.049 A 
HETATM   24  C   UNL     1     -41.112  61.232 -58.539  1.00  0.00     0.009 A 
HETATM   25  C   UNL     1     -40.213  62.304 -58.575  1.00  0.00     0.019 A 
HETATM   26  C   UNL     1     -39.925  62.928 -59.785  1.00  0.00     0.011 A 
HETATM   27 BR   UNL     1     -38.719  64.383 -59.830  1.00  0.00    -0.051 Br
HETATM   28  C   UNL     1     -40.528  62.494 -60.961  1.00  0.00     0.019 A 
HETATM   29  C   UNL     1     -41.423  61.421 -60.923  1.00  0.00     0.009 A 
ENDBRANCH  22  23
ENDBRANCH  19  22
ENDBRANCH   2  18
TORSDOF 6
ENDMDL
MODEL 4
REMARK VINA RESULT:      -8.1     15.877     20.489
REMARK  6 active torsions:
REMARK  status: ('A' for Active; 'I' for Inactive)
REMARK    1  A    between atoms: C_4  and  N_5 
REMARK    2  A    between atoms: C_7  and  C_8 
REMARK       I    between atoms: C_8  and  N_9 
REMARK    3  A    between atoms: N_9  and  N_10 
REMARK       I    between atoms: N_10  and  C_11 
REMARK    4  A    between atoms: C_11  and  C_12 
REMARK    5  A    between atoms: C_12  and  C_13 
REMARK    6  A    between atoms: C_22  and  O_23 
ROOT
HETATM    1  C   UNL     1     -35.079  40.716 -52.484  1.00  0.00     0.293 C 
HETATM    2  N   UNL     1     -35.016  41.897 -53.192  1.00  0.00    -0.262 N 
HETATM    3  O   UNL     1     -36.050  39.961 -52.510  1.00  0.00    -0.264 OA
HETATM    4  H   UNL     1     -34.162  42.460 -53.189  1.00  0.00     0.190 HD
ENDROOT
BRANCH   1   5
HETATM    5  C   UNL     1     -33.881  40.430 -51.695  1.00  0.00     0.181 A 
HETATM    6  N   UNL     1     -33.932  39.986 -50.426  1.00  0.00    -0.159 NA
HETATM    7  N   UNL     1     -32.626  39.846 -50.046  1.00  0.00    -0.242 N 
HETATM    8  C   UNL     1     -31.764  40.198 -51.061  1.00  0.00     0.158 A 
HETATM    9  C   UNL     1     -32.546  40.569 -52.117  1.00  0.00     0.119 A 
BRANCH   7  10
HETATM   10  C   UNL     1     -32.295  39.386 -48.738  1.00  0.00     0.058 A 
HETATM   11  C   UNL     1     -33.081  38.392 -48.135  1.00  0.00     0.031 A 
HETATM   12  C   UNL     1     -32.770  37.928 -46.855  1.00  0.00     0.002 A 
HETATM   13  C   UNL     1     -31.678  38.452 -46.168  1.00  0.00     0.000 A 
HETATM   14  C   UNL     1     -30.893  39.441 -46.759  1.00  0.00     0.002 A 
HETATM   15  C   UNL     1     -31.197  39.910 -48.041  1.00  0.00     0.031 A 
ENDBRANCH   7  10
BRANCH   9  16
HETATM   16  O   UNL     1     -32.058  40.977 -53.299  1.00  0.00    -0.357 OA
HETATM   17  H   UNL     1     -31.106  40.753 -53.361  1.00  0.00     0.218 HD
ENDBRANCH   9  16
ENDBRANCH   1   5
BRANCH   2  18
HETATM   18  N   UNL     1     -36.062  42.266 -54.039  1.00  0.00    -0.267 N 
HETATM   19  C   UNL     1     -35.859  42.168 -55.402  1.00  0.00     0.240 C 
HETATM   20  O   UNL     1     -34.779  41.840 -55.890  1.00  0.00    -0.272 OA
HETATM   21  H   UNL     1     -36.989  42.339 -53.622  1.00  0.00     0.190 HD
BRANCH  19  22
HETATM   22  C   UNL     1     -37.078  42.500 -56.239  1.00  0.00     0.143 C 
BRANCH  22  23
HETATM   23  C   UNL     1     -37.300  41.640 -57.466  1.00  0.00    -0.049 A 
HETATM   24  C   UNL     1     -37.000  42.059 -58.769  1.00  0.00     0.009 A 
HETATM   25  C   UNL     1     -37.251  41.224 -59.863  1.00  0.00     0.019 A 
HETATM   26  C   UNL     1     -37.811  39.965 -59.662  1.00  0.00     0.011 A 
HETATM   27 BR   UNL     1     -38.159  38.842 -61.142  1.00  0.00    -0.051 Br
HETATM   28  C   UNL     1     -38.124  39.532 -58.377  1.00  0.00     0.019 A 
HETATM   29  C   UNL     1     -37.869  40.367 -57.286  1.00  0.00     0.009 A 
ENDBRANCH  22  23
ENDBRANCH  19  22
ENDBRANCH   2  18
TORSDOF 6
ENDMDL
MODEL 5
REMARK VINA RESULT:      -8.0      8.211     10.946
REMARK  6 active torsions:
REMARK  status: ('A' for Active; 'I' for Inactive)
REMARK    1  A    between atoms: C_4  and  N_5 
REMARK    2  A    between atoms: C_7  and  C_8 
REMARK       I    between atoms: C_8  and  N_9 
REMARK    3  A    between atoms: N_9  and  N_10 
REMARK       I    between atoms: N_10  and  C_11 
REMARK    4  A    between atoms: C_11  and  C_12 
REMARK    5  A    between atoms: C_12  and  C_13 
REMARK    6  A    between atoms: C_22  and  O_23 
ROOT
HETATM    1  C   UNL     1     -44.462  58.045 -51.087  1.00  0.00     0.293 C 
HETATM    2  N   UNL     1     -44.183  59.273 -50.526  1.00  0.00    -0.262 N 
HETATM    3  O   UNL     1     -45.438  57.363 -50.775  1.00  0.00    -0.264 OA
HETATM    4  H   UNL     1     -43.395  59.831 -50.863  1.00  0.00     0.190 HD
ENDROOT
BRANCH   1   5
HETATM    5  C   UNL     1     -43.493  57.617 -52.095  1.00  0.00     0.181 A 
HETATM    6  N   UNL     1     -43.056  56.348 -52.195  1.00  0.00    -0.159 NA
HETATM    7  N   UNL     1     -42.174  56.358 -53.240  1.00  0.00    -0.242 N 
HETATM    8  C   UNL     1     -42.056  57.616 -53.790  1.00  0.00     0.158 A 
HETATM    9  C   UNL     1     -42.890  58.427 -53.076  1.00  0.00     0.119 A 
BRANCH   7  10
HETATM   10  C   UNL     1     -41.506  55.164 -53.638  1.00  0.00     0.058 A 
HETATM   11  C   UNL     1     -40.741  55.159 -54.815  1.00  0.00     0.031 A 
HETATM   12  C   UNL     1     -40.078  53.998 -55.219  1.00  0.00     0.002 A 
HETATM   13  C   UNL     1     -40.174  52.837 -54.457  1.00  0.00     0.000 A 
HETATM   14  C   UNL     1     -40.933  52.833 -53.288  1.00  0.00     0.002 A 
HETATM   15  C   UNL     1     -41.599  53.992 -52.875  1.00  0.00     0.031 A 
ENDBRANCH   7  10
BRANCH   9  16
HETATM   16  O   UNL     1     -43.049  59.737 -53.323  1.00  0.00    -0.357 OA
HETATM   17  H   UNL     1     -43.959  60.012 -53.088  1.00  0.00     0.218 HD
ENDBRANCH   9  16
ENDBRANCH   1   5
BRANCH   2  18
HETATM   18  N   UNL     1     -45.058  59.836 -49.595  1.00  0.00    -0.267 N 
HETATM   19  C   UNL     1     -44.822  61.134 -49.185  1.00  0.00     0.240 C 
HETATM   20  O   UNL     1     -43.841  61.778 -49.552  1.00  0.00    -0.272 OA
HETATM   21  H   UNL     1     -45.953  59.368 -49.463  1.00  0.00     0.190 HD
BRANCH  19  22
HETATM   22  C   UNL     1     -45.873  61.692 -48.246  1.00  0.00     0.143 C 
BRANCH  22  23
HETATM   23  C   UNL     1     -45.400  62.059 -46.856  1.00  0.00    -0.049 A 
HETATM   24  C   UNL     1     -45.436  63.363 -46.345  1.00  0.00     0.009 A 
HETATM   25  C   UNL     1     -44.961  63.640 -45.058  1.00  0.00     0.019 A 
HETATM   26  C   UNL     1     -44.441  62.614 -44.275  1.00  0.00     0.011 A 
HETATM   27 BR   UNL     1     -43.791  62.991 -42.541  1.00  0.00    -0.051 Br
HETATM   28  C   UNL     1     -44.389  61.313 -44.764  1.00  0.00     0.019 A 
HETATM   29  C   UNL     1     -44.866  61.038 -46.049  1.00  0.00     0.009 A 
ENDBRANCH  22  23
ENDBRANCH  19  22
ENDBRANCH   2  18
TORSDOF 6
ENDMDL
MODEL 6
REMARK VINA RESULT:      -7.8      3.669      4.971
REMARK  6 active torsions:
REMARK  status: ('A' for Active; 'I' for Inactive)
REMARK    1  A    between atoms: C_4  and  N_5 
REMARK    2  A    between atoms: C_7  and  C_8 
REMARK       I    between atoms: C_8  and  N_9 
REMARK    3  A    between atoms: N_9  and  N_10 
REMARK       I    between atoms: N_10  and  C_11 
REMARK    4  A    between atoms: C_11  and  C_12 
REMARK    5  A    between atoms: C_12  and  C_13 
REMARK    6  A    between atoms: C_22  and  O_23 
ROOT
HETATM    1  C   UNL     1     -43.126  56.284 -58.550  1.00  0.00     0.293 C 
HETATM    2  N   UNL     1     -42.324  56.201 -57.431  1.00  0.00    -0.262 N 
HETATM    3  O   UNL     1     -43.820  55.353 -58.958  1.00  0.00    -0.264 OA
HETATM    4  H   UNL     1     -41.815  57.021 -57.095  1.00  0.00     0.190 HD
ENDROOT
BRANCH   1   5
HETATM    5  C   UNL     1     -43.086  57.586 -59.216  1.00  0.00     0.181 A 
HETATM    6  N   UNL     1     -42.154  58.517 -58.941  1.00  0.00    -0.159 NA
HETATM    7  N   UNL     1     -42.458  59.574 -59.756  1.00  0.00    -0.242 N 
HETATM    8  C   UNL     1     -43.566  59.311 -60.532  1.00  0.00     0.158 A 
HETATM    9  C   UNL     1     -43.975  58.051 -60.202  1.00  0.00     0.119 A 
BRANCH   7  10
HETATM   10  C   UNL     1     -41.668  60.759 -59.733  1.00  0.00     0.058 A 
HETATM   11  C   UNL     1     -41.412  61.442 -60.933  1.00  0.00     0.031 A 
HETATM   12  C   UNL     1     -40.641  62.607 -60.929  1.00  0.00     0.002 A 
HETATM   13  C   UNL     1     -40.119  63.095 -59.734  1.00  0.00     0.000 A 
HETATM   14  C   UNL     1     -40.367  62.422 -58.539  1.00  0.00     0.002 A 
HETATM   15  C   UNL     1     -41.139  61.256 -58.534  1.00  0.00     0.031 A 
ENDBRANCH   7  10
BRANCH   9  16
HETATM   16  O   UNL     1     -45.034  57.442 -60.759  1.00  0.00    -0.357 OA
HETATM   17  H   UNL     1     -45.361  57.969 -61.517  1.00  0.00     0.218 HD
ENDBRANCH   9  16
ENDBRANCH   1   5
BRANCH   2  18
HETATM   18  N   UNL     1     -42.314  55.037 -56.659  1.00  0.00    -0.267 N 
HETATM   19  C   UNL     1     -42.271  55.171 -55.285  1.00  0.00     0.240 C 
HETATM   20  O   UNL     1     -42.172  56.262 -54.727  1.00  0.00    -0.272 OA
HETATM   21  H   UNL     1     -42.593  54.174 -57.124  1.00  0.00     0.190 HD
BRANCH  19  22
HETATM   22  C   UNL     1     -42.356  53.860 -54.529  1.00  0.00     0.143 C 
BRANCH  22  23
HETATM   23  C   UNL     1     -41.977  53.908 -53.064  1.00  0.00    -0.049 A 
HETATM   24  C   UNL     1     -42.869  54.267 -52.045  1.00  0.00     0.009 A 
HETATM   25  C   UNL     1     -42.448  54.314 -50.711  1.00  0.00     0.019 A 
HETATM   26  C   UNL     1     -41.129  54.008 -50.388  1.00  0.00     0.011 A 
HETATM   27 BR   UNL     1     -40.560  54.082 -48.587  1.00  0.00    -0.051 Br
HETATM   28  C   UNL     1     -40.225  53.656 -51.385  1.00  0.00     0.019 A 
HETATM   29  C   UNL     1     -40.648  53.607 -52.716  1.00  0.00     0.009 A 
ENDBRANCH  22  23
ENDBRANCH  19  22
ENDBRANCH   2  18
TORSDOF 6
ENDMDL
MODEL 7
REMARK VINA RESULT:      -7.8      4.087      9.906
REMARK  6 active torsions:
REMARK  status: ('A' for Active; 'I' for Inactive)
REMARK    1  A    between atoms: C_4  and  N_5 
REMARK    2  A    between atoms: C_7  and  C_8 
REMARK       I    between atoms: C_8  and  N_9 
REMARK    3  A    between atoms: N_9  and  N_10 
REMARK       I    between atoms: N_10  and  C_11 
REMARK    4  A    between atoms: C_11  and  C_12 
REMARK    5  A    between atoms: C_12  and  C_13 
REMARK    6  A    between atoms: C_22  and  O_23 
ROOT
HETATM    1  C   UNL     1     -43.576  56.577 -55.268  1.00  0.00     0.293 C 
HETATM    2  N   UNL     1     -43.599  56.068 -56.549  1.00  0.00    -0.262 N 
HETATM    3  O   UNL     1     -43.946  57.716 -54.985  1.00  0.00    -0.264 OA
HETATM    4  H   UNL     1     -43.342  55.095 -56.726  1.00  0.00     0.190 HD
ENDROOT
BRANCH   1   5
HETATM    5  C   UNL     1     -43.074  55.640 -54.264  1.00  0.00     0.181 A 
HETATM    6  N   UNL     1     -42.187  54.670 -54.550  1.00  0.00    -0.159 NA
HETATM    7  N   UNL     1     -41.979  54.019 -53.365  1.00  0.00    -0.242 N 
HETATM    8  C   UNL     1     -42.725  54.572 -52.347  1.00  0.00     0.158 A 
HETATM    9  C   UNL     1     -43.425  55.605 -52.901  1.00  0.00     0.119 A 
BRANCH   7  10
HETATM   10  C   UNL     1     -41.081  52.915 -53.291  1.00  0.00     0.058 A 
HETATM   11  C   UNL     1     -40.970  52.039 -54.382  1.00  0.00     0.031 A 
HETATM   12  C   UNL     1     -40.094  50.953 -54.327  1.00  0.00     0.002 A 
HETATM   13  C   UNL     1     -39.327  50.731 -53.187  1.00  0.00     0.000 A 
HETATM   14  C   UNL     1     -39.432  51.595 -52.098  1.00  0.00     0.002 A 
HETATM   15  C   UNL     1     -40.306  52.685 -52.145  1.00  0.00     0.031 A 
ENDBRANCH   7  10
BRANCH   9  16
HETATM   16  O   UNL     1     -44.267  56.390 -52.211  1.00  0.00    -0.357 OA
HETATM   17  H   UNL     1     -44.251  57.298 -52.578  1.00  0.00     0.218 HD
ENDBRANCH   9  16
ENDBRANCH   1   5
BRANCH   2  18
HETATM   18  N   UNL     1     -44.115  56.830 -57.600  1.00  0.00    -0.267 N 
HETATM   19  C   UNL     1     -44.121  56.272 -58.863  1.00  0.00     0.240 C 
HETATM   20  O   UNL     1     -43.630  55.172 -59.106  1.00  0.00    -0.272 OA
HETATM   21  H   UNL     1     -44.685  57.636 -57.347  1.00  0.00     0.190 HD
BRANCH  19  22
HETATM   22  C   UNL     1     -44.783  57.134 -59.921  1.00  0.00     0.143 C 
BRANCH  22  23
HETATM   23  C   UNL     1     -44.007  58.354 -60.370  1.00  0.00    -0.049 A 
HETATM   24  C   UNL     1     -44.611  59.566 -60.729  1.00  0.00     0.009 A 
HETATM   25  C   UNL     1     -43.837  60.650 -61.159  1.00  0.00     0.019 A 
HETATM   26  C   UNL     1     -42.453  60.526 -61.238  1.00  0.00     0.011 A 
HETATM   27 BR   UNL     1     -41.410  61.988 -61.828  1.00  0.00    -0.051 Br
HETATM   28  C   UNL     1     -41.833  59.329 -60.894  1.00  0.00     0.019 A 
HETATM   29  C   UNL     1     -42.608  58.249 -60.463  1.00  0.00     0.009 A 
ENDBRANCH  22  23
ENDBRANCH  19  22
ENDBRANCH   2  18
TORSDOF 6
ENDMDL
MODEL 8
REMARK VINA RESULT:      -7.7      4.380      9.738
REMARK  6 active torsions:
REMARK  status: ('A' for Active; 'I' for Inactive)
REMARK    1  A    between atoms: C_4  and  N_5 
REMARK    2  A    between atoms: C_7  and  C_8 
REMARK       I    between atoms: C_8  and  N_9 
REMARK    3  A    between atoms: N_9  and  N_10 
REMARK       I    between atoms: N_10  and  C_11 
REMARK    4  A    between atoms: C_11  and  C_12 
REMARK    5  A    between atoms: C_12  and  C_13 
REMARK    6  A    between atoms: C_22  and  O_23 
ROOT
HETATM    1  C   UNL     1     -42.407  56.898 -56.378  1.00  0.00     0.293 C 
HETATM    2  N   UNL     1     -42.418  56.360 -57.648  1.00  0.00    -0.262 N 
HETATM    3  O   UNL     1     -42.352  58.107 -56.154  1.00  0.00    -0.264 OA
HETATM    4  H   UNL     1     -42.529  55.354 -57.785  1.00  0.00     0.190 HD
ENDROOT
BRANCH   1   5
HETATM    5  C   UNL     1     -42.471  55.902 -55.309  1.00  0.00     0.181 A 
HETATM    6  N   UNL     1     -41.423  55.131 -54.966  1.00  0.00    -0.159 NA
HETATM    7  N   UNL     1     -41.881  54.343 -53.946  1.00  0.00    -0.242 N 
HETATM    8  C   UNL     1     -43.200  54.612 -53.653  1.00  0.00     0.158 A 
HETATM    9  C   UNL     1     -43.589  55.602 -54.508  1.00  0.00     0.119 A 
BRANCH   7  10
HETATM   10  C   UNL     1     -41.025  53.387 -53.326  1.00  0.00     0.058 A 
HETATM   11  C   UNL     1     -40.479  52.347 -54.094  1.00  0.00     0.031 A 
HETATM   12  C   UNL     1     -39.636  51.403 -53.503  1.00  0.00     0.002 A 
HETATM   13  C   UNL     1     -39.335  51.487 -52.146  1.00  0.00     0.000 A 
HETATM   14  C   UNL     1     -39.875  52.516 -51.376  1.00  0.00     0.002 A 
HETATM   15  C   UNL     1     -40.718  53.466 -51.961  1.00  0.00     0.031 A 
ENDBRANCH   7  10
BRANCH   9  16
HETATM   16  O   UNL     1     -44.821  56.136 -54.520  1.00  0.00    -0.357 OA
HETATM   17  H   UNL     1     -45.019  56.495 -55.410  1.00  0.00     0.218 HD
ENDBRANCH   9  16
ENDBRANCH   1   5
BRANCH   2  18
HETATM   18  N   UNL     1     -42.426  57.198 -58.765  1.00  0.00    -0.267 N 
HETATM   19  C   UNL     1     -43.649  57.610 -59.257  1.00  0.00     0.240 C 
HETATM   20  O   UNL     1     -44.718  57.214 -58.796  1.00  0.00    -0.272 OA
HETATM   21  H   UNL     1     -41.549  57.661 -59.000  1.00  0.00     0.190 HD
BRANCH  19  22
HETATM   22  C   UNL     1     -43.558  58.588 -60.412  1.00  0.00     0.143 C 
BRANCH  22  23
HETATM   23  C   UNL     1     -42.662  59.790 -60.201  1.00  0.00    -0.049 A 
HETATM   24  C   UNL     1     -41.955  60.420 -61.234  1.00  0.00     0.009 A 
HETATM   25  C   UNL     1     -41.124  61.513 -60.967  1.00  0.00     0.019 A 
HETATM   26  C   UNL     1     -40.989  61.981 -59.663  1.00  0.00     0.011 A 
HETATM   27 BR   UNL     1     -39.858  63.452 -59.304  1.00  0.00    -0.051 Br
HETATM   28  C   UNL     1     -41.675  61.366 -58.621  1.00  0.00     0.019 A 
HETATM   29  C   UNL     1     -42.506  60.276 -58.890  1.00  0.00     0.009 A 
ENDBRANCH  22  23
ENDBRANCH  19  22
ENDBRANCH   2  18
TORSDOF 6
ENDMDL
MODEL 9
REMARK VINA RESULT:      -7.7      7.783     11.067
REMARK  6 active torsions:
REMARK  status: ('A' for Active; 'I' for Inactive)
REMARK    1  A    between atoms: C_4  and  N_5 
REMARK    2  A    between atoms: C_7  and  C_8 
REMARK       I    between atoms: C_8  and  N_9 
REMARK    3  A    between atoms: N_9  and  N_10 
REMARK       I    between atoms: N_10  and  C_11 
REMARK    4  A    between atoms: C_11  and  C_12 
REMARK    5  A    between atoms: C_12  and  C_13 
REMARK    6  A    between atoms: C_22  and  O_23 
ROOT
HETATM    1  C   UNL     1     -41.882  56.509 -51.087  1.00  0.00     0.293 C 
HETATM    2  N   UNL     1     -42.971  56.477 -51.932  1.00  0.00    -0.262 N 
HETATM    3  O   UNL     1     -41.441  57.544 -50.589  1.00  0.00    -0.264 OA
HETATM    4  H   UNL     1     -43.340  55.585 -52.270  1.00  0.00     0.190 HD
ENDROOT
BRANCH   1   5
HETATM    5  C   UNL     1     -41.293  55.196 -50.824  1.00  0.00     0.181 A 
HETATM    6  N   UNL     1     -41.072  54.289 -51.793  1.00  0.00    -0.159 NA
HETATM    7  N   UNL     1     -40.524  53.212 -51.151  1.00  0.00    -0.242 N 
HETATM    8  C   UNL     1     -40.403  53.438 -49.797  1.00  0.00     0.158 A 
HETATM    9  C   UNL     1     -40.886  54.695 -49.574  1.00  0.00     0.119 A 
BRANCH   7  10
HETATM   10  C   UNL     1     -40.155  52.044 -51.879  1.00  0.00     0.058 A 
HETATM   11  C   UNL     1     -39.856  50.861 -51.183  1.00  0.00     0.031 A 
HETATM   12  C   UNL     1     -39.495  49.706 -51.880  1.00  0.00     0.002 A 
HETATM   13  C   UNL     1     -39.427  49.722 -53.271  1.00  0.00     0.000 A 
HETATM   14  C   UNL     1     -39.721  50.892 -53.969  1.00  0.00     0.002 A 
HETATM   15  C   UNL     1     -40.084  52.053 -53.279  1.00  0.00     0.031 A 
ENDBRANCH   7  10
BRANCH   9  16
HETATM   16  O   UNL     1     -40.929  55.272 -48.362  1.00  0.00    -0.357 OA
HETATM   17  H   UNL     1     -41.757  55.021 -47.904  1.00  0.00     0.218 HD
ENDBRANCH   9  16
ENDBRANCH   1   5
BRANCH   2  18
HETATM   18  N   UNL     1     -43.673  57.649 -52.220  1.00  0.00    -0.267 N 
HETATM   19  C   UNL     1     -44.801  57.928 -51.474  1.00  0.00     0.240 C 
HETATM   20  O   UNL     1     -45.244  57.157 -50.625  1.00  0.00    -0.272 OA
HETATM   21  H   UNL     1     -43.187  58.353 -52.774  1.00  0.00     0.190 HD
BRANCH  19  22
HETATM   22  C   UNL     1     -45.443  59.264 -51.793  1.00  0.00     0.143 C 
BRANCH  22  23
HETATM   23  C   UNL     1     -44.799  60.482 -51.166  1.00  0.00    -0.049 A 
HETATM   24  C   UNL     1     -44.887  60.789 -49.802  1.00  0.00     0.009 A 
HETATM   25  C   UNL     1     -44.286  61.944 -49.290  1.00  0.00     0.019 A 
HETATM   26  C   UNL     1     -43.598  62.805 -50.140  1.00  0.00     0.011 A 
HETATM   27 BR   UNL     1     -42.796  64.370 -49.448  1.00  0.00    -0.051 Br
HETATM   28  C   UNL     1     -43.505  62.524 -51.500  1.00  0.00     0.019 A 
HETATM   29  C   UNL     1     -44.103  61.368 -52.009  1.00  0.00     0.009 A 
ENDBRANCH  22  23
ENDBRANCH  19  22
ENDBRANCH   2  18
TORSDOF 6
ENDMDL
MODEL 10
REMARK VINA RESULT:      -7.6      3.962     10.024
REMARK  6 active torsions:
REMARK  status: ('A' for Active; 'I' for Inactive)
REMARK    1  A    between atoms: C_4  and  N_5 
REMARK    2  A    between atoms: C_7  and  C_8 
REMARK       I    between atoms: C_8  and  N_9 
REMARK    3  A    between atoms: N_9  and  N_10 
REMARK       I    between atoms: N_10  and  C_11 
REMARK    4  A    between atoms: C_11  and  C_12 
REMARK    5  A    between atoms: C_12  and  C_13 
REMARK    6  A    between atoms: C_22  and  O_23 
ROOT
HETATM    1  C   UNL     1     -42.044  56.675 -55.489  1.00  0.00     0.293 C 
HETATM    2  N   UNL     1     -42.051  56.106 -56.745  1.00  0.00    -0.262 N 
HETATM    3  O   UNL     1     -42.369  57.842 -55.271  1.00  0.00    -0.264 OA
HETATM    4  H   UNL     1     -41.835  55.114 -56.867  1.00  0.00     0.190 HD
ENDROOT
BRANCH   1   5
HETATM    5  C   UNL     1     -41.620  55.765 -54.425  1.00  0.00     0.181 A 
HETATM    6  N   UNL     1     -41.243  54.495 -54.659  1.00  0.00    -0.159 NA
HETATM    7  N   UNL     1     -40.929  53.986 -53.429  1.00  0.00    -0.242 N 
HETATM    8  C   UNL     1     -41.107  54.923 -52.434  1.00  0.00     0.158 A 
HETATM    9  C   UNL     1     -41.543  56.060 -53.051  1.00  0.00     0.119 A 
BRANCH   7  10
HETATM   10  C   UNL     1     -40.482  52.640 -53.292  1.00  0.00     0.058 A 
HETATM   11  C   UNL     1     -40.600  51.758 -54.378  1.00  0.00     0.031 A 
HETATM   12  C   UNL     1     -40.165  50.436 -54.262  1.00  0.00     0.002 A 
HETATM   13  C   UNL     1     -39.615  49.984 -53.066  1.00  0.00     0.000 A 
HETATM   14  C   UNL     1     -39.496  50.852 -51.982  1.00  0.00     0.002 A 
HETATM   15  C   UNL     1     -39.927  52.178 -52.090  1.00  0.00     0.031 A 
ENDBRANCH   7  10
BRANCH   9  16
HETATM   16  O   UNL     1     -41.824  57.200 -52.401  1.00  0.00    -0.357 OA
HETATM   17  H   UNL     1     -41.857  57.945 -53.036  1.00  0.00     0.218 HD
ENDBRANCH   9  16
ENDBRANCH   1   5
BRANCH   2  18
HETATM   18  N   UNL     1     -42.497  56.839 -57.846  1.00  0.00    -0.267 N 
HETATM   19  C   UNL     1     -43.344  56.215 -58.741  1.00  0.00     0.240 C 
HETATM   20  O   UNL     1     -43.658  55.030 -58.642  1.00  0.00    -0.272 OA
HETATM   21  H   UNL     1     -42.389  57.852 -57.800  1.00  0.00     0.190 HD
BRANCH  19  22
HETATM   22  C   UNL     1     -43.849  57.114 -59.852  1.00  0.00     0.143 C 
BRANCH  22  23
HETATM   23  C   UNL     1     -45.065  57.956 -59.529  1.00  0.00    -0.049 A 
HETATM   24  C   UNL     1     -45.958  57.660 -58.491  1.00  0.00     0.009 A 
HETATM   25  C   UNL     1     -47.077  58.467 -58.260  1.00  0.00     0.019 A 
HETATM   26  C   UNL     1     -47.315  59.574 -59.070  1.00  0.00     0.011 A 
HETATM   27 BR   UNL     1     -48.832  60.657 -58.762  1.00  0.00    -0.051 Br
HETATM   28  C   UNL     1     -46.445  59.883 -60.111  1.00  0.00     0.019 A 
HETATM   29  C   UNL     1     -45.327  59.077 -60.339  1.00  0.00     0.009 A 
ENDBRANCH  22  23
ENDBRANCH  19  22
ENDBRANCH   2  18
TORSDOF 6
ENDMDL
