MODEL 1
REMARK VINA RESULT:      -9.2      0.000      0.000
REMARK  8 active torsions:
REMARK  status: ('A' for Active; 'I' for Inactive)
REMARK    1  A    between atoms: C_2  and  O_3 
REMARK    2  A    between atoms: O_3  and  C_4 
REMARK    3  A    between atoms: C_4  and  C_5 
REMARK    4  A    between atoms: C_10  and  N_11 
REMARK       I    between atoms: N_11  and  C_12 
REMARK    5  A    between atoms: C_12  and  C_13 
REMARK    6  A    between atoms: C_13  and  N_14 
REMARK    7  A    between atoms: N_18  and  C_19 
REMARK    8  A    between atoms: C_21  and  C_22 
ROOT
HETATM    1  N   UNL     1     -42.942  58.217 -57.361  1.00  0.00    -0.323 N 
HETATM    2  C   UNL     1     -43.786  58.767 -56.419  1.00  0.00     0.248 C 
HETATM    3  O   UNL     1     -44.577  59.683 -56.629  1.00  0.00    -0.271 OA
HETATM    4  H   UNL     1     -42.684  57.234 -57.286  1.00  0.00     0.169 HD
ENDROOT
BRANCH   1   5
HETATM    5  C   UNL     1     -42.729  58.774 -58.622  1.00  0.00     0.080 A 
HETATM    6  C   UNL     1     -43.154  58.145 -59.781  1.00  0.00     0.137 A 
HETATM    7  N   UNL     1     -42.815  58.960 -60.835  1.00  0.00    -0.349 N 
HETATM    8  H   UNL     1     -43.028  58.757 -61.804  1.00  0.00     0.166 HD
HETATM    9  C   UNL     1     -42.155  60.084 -60.397  1.00  0.00     0.048 A 
HETATM   10  C   UNL     1     -42.065  59.990 -59.000  1.00  0.00     0.023 A 
HETATM   11  C   UNL     1     -41.637  61.158 -61.140  1.00  0.00     0.070 A 
HETATM   12  C   UNL     1     -41.369  61.009 -58.305  1.00  0.00     0.055 A 
HETATM   13  C   UNL     1     -40.867  62.065 -59.043  1.00  0.00     0.106 A 
HETATM   14  C   UNL     1     -41.001  62.138 -60.404  1.00  0.00     0.107 A 
HETATM   15  O   UNL     1     -40.195  63.130 -58.525  1.00  0.00    -0.323 OA
HETATM   16  O   UNL     1     -40.434  63.263 -60.919  1.00  0.00    -0.323 OA
HETATM   17  C   UNL     1     -39.954  63.903 -59.719  1.00  0.00     0.352 A 
BRANCH   6  18
HETATM   18  C   UNL     1     -43.878  56.904 -59.910  1.00  0.00     0.312 C 
HETATM   19  O   UNL     1     -43.578  56.017 -60.702  1.00  0.00    -0.258 OA
BRANCH  18  20
HETATM   20  O   UNL     1     -44.894  56.867 -59.008  1.00  0.00    -0.317 OA
BRANCH  20  21
HETATM   21  C   UNL     1     -46.125  57.485 -59.414  1.00  0.00     0.175 C 
HETATM   22  C   UNL     1     -46.985  56.487 -60.163  1.00  0.00     0.034 C 
ENDBRANCH  20  21
ENDBRANCH  18  20
ENDBRANCH   6  18
ENDBRANCH   1   5
BRANCH   2  23
HETATM   23  C   UNL     1     -43.692  58.111 -55.034  1.00  0.00     0.337 C 
BRANCH  23  24
HETATM   24  N   UNL     1     -42.860  56.818 -54.964  1.00  0.00    -0.060 N 
HETATM   25  H   UNL     1     -42.610  56.563 -55.925  1.00  0.00     0.280 HD
HETATM   26  C   UNL     1     -41.535  57.004 -54.206  1.00  0.00     0.255 C 
HETATM   27  C   UNL     1     -40.732  55.686 -54.153  1.00  0.00     0.150 C 
HETATM   28  N   UNL     1     -41.576  54.608 -53.606  1.00  0.00    -0.378 N 
HETATM   29  C   UNL     1     -42.818  54.354 -54.350  1.00  0.00     0.150 C 
HETATM   30  C   UNL     1     -43.666  55.643 -54.395  1.00  0.00     0.255 C 
BRANCH  28  31
HETATM   31  C   UNL     1     -40.928  53.559 -52.960  1.00  0.00     0.030 A 
HETATM   32  C   UNL     1     -40.676  52.364 -53.656  1.00  0.00     0.045 A 
HETATM   33  C   UNL     1     -39.981  51.287 -53.075  1.00  0.00     0.050 A 
HETATM   34  C   UNL     1     -39.514  51.414 -51.763  1.00  0.00     0.016 A 
HETATM   35  C   UNL     1     -39.748  52.588 -51.053  1.00  0.00     0.003 A 
HETATM   36  C   UNL     1     -40.444  53.646 -51.649  1.00  0.00     0.029 A 
BRANCH  33  37
HETATM   37  C   UNL     1     -39.697  50.036 -53.870  1.00  0.00     0.417 C 
HETATM   38  F   UNL     1     -40.763  49.625 -54.614  1.00  0.00    -0.166 F 
HETATM   39  F   UNL     1     -38.669  50.202 -54.746  1.00  0.00    -0.166 F 
HETATM   40  F   UNL     1     -39.360  48.977 -53.086  1.00  0.00    -0.166 F 
ENDBRANCH  33  37
ENDBRANCH  28  31
ENDBRANCH  23  24
ENDBRANCH   2  23
TORSDOF 8
ENDMDL
MODEL 2
REMARK VINA RESULT:      -9.0      4.484      7.139
REMARK  8 active torsions:
REMARK  status: ('A' for Active; 'I' for Inactive)
REMARK    1  A    between atoms: C_2  and  O_3 
REMARK    2  A    between atoms: O_3  and  C_4 
REMARK    3  A    between atoms: C_4  and  C_5 
REMARK    4  A    between atoms: C_10  and  N_11 
REMARK       I    between atoms: N_11  and  C_12 
REMARK    5  A    between atoms: C_12  and  C_13 
REMARK    6  A    between atoms: C_13  and  N_14 
REMARK    7  A    between atoms: N_18  and  C_19 
REMARK    8  A    between atoms: C_21  and  C_22 
ROOT
HETATM    1  N   UNL     1     -43.336  59.717 -53.207  1.00  0.00    -0.323 N 
HETATM    2  C   UNL     1     -44.129  58.672 -53.633  1.00  0.00     0.248 C 
HETATM    3  O   UNL     1     -45.089  58.217 -53.018  1.00  0.00    -0.271 OA
HETATM    4  H   UNL     1     -42.901  60.328 -53.898  1.00  0.00     0.169 HD
ENDROOT
BRANCH   1   5
HETATM    5  C   UNL     1     -43.398  60.254 -51.921  1.00  0.00     0.080 A 
HETATM    6  C   UNL     1     -42.405  60.022 -50.982  1.00  0.00     0.137 A 
HETATM    7  N   UNL     1     -42.754  60.706 -49.842  1.00  0.00    -0.349 N 
HETATM    8  H   UNL     1     -42.194  60.732 -48.999  1.00  0.00     0.166 HD
HETATM    9  C   UNL     1     -43.959  61.349 -50.002  1.00  0.00     0.048 A 
HETATM   10  C   UNL     1     -44.406  61.069 -51.302  1.00  0.00     0.023 A 
HETATM   11  C   UNL     1     -44.671  62.145 -49.089  1.00  0.00     0.070 A 
HETATM   12  C   UNL     1     -45.668  61.574 -51.699  1.00  0.00     0.055 A 
HETATM   13  C   UNL     1     -46.359  62.361 -50.797  1.00  0.00     0.106 A 
HETATM   14  C   UNL     1     -45.877  62.639 -49.546  1.00  0.00     0.107 A 
HETATM   15  O   UNL     1     -47.570  62.938 -51.031  1.00  0.00    -0.323 OA
HETATM   16  O   UNL     1     -46.721  63.434 -48.831  1.00  0.00    -0.323 OA
HETATM   17  C   UNL     1     -47.776  63.646 -49.791  1.00  0.00     0.352 A 
BRANCH   6  18
HETATM   18  C   UNL     1     -41.185  59.268 -51.141  1.00  0.00     0.312 C 
HETATM   19  O   UNL     1     -40.350  59.497 -52.009  1.00  0.00    -0.258 OA
BRANCH  18  20
HETATM   20  O   UNL     1     -41.102  58.316 -50.174  1.00  0.00    -0.317 OA
BRANCH  20  21
HETATM   21  C   UNL     1     -41.064  56.954 -50.627  1.00  0.00     0.175 C 
HETATM   22  C   UNL     1     -42.464  56.376 -50.656  1.00  0.00     0.034 C 
ENDBRANCH  20  21
ENDBRANCH  18  20
ENDBRANCH   6  18
ENDBRANCH   1   5
BRANCH   2  23
HETATM   23  C   UNL     1     -43.733  58.104 -55.005  1.00  0.00     0.337 C 
BRANCH  23  24
HETATM   24  N   UNL     1     -42.894  56.814 -54.976  1.00  0.00    -0.060 N 
HETATM   25  H   UNL     1     -42.676  56.569 -55.947  1.00  0.00     0.280 HD
HETATM   26  C   UNL     1     -41.546  56.998 -54.261  1.00  0.00     0.255 C 
HETATM   27  C   UNL     1     -40.738  55.682 -54.248  1.00  0.00     0.150 C 
HETATM   28  N   UNL     1     -41.559  54.596 -53.683  1.00  0.00    -0.378 N 
HETATM   29  C   UNL     1     -42.824  54.345 -54.388  1.00  0.00     0.150 C 
HETATM   30  C   UNL     1     -43.677  55.631 -54.392  1.00  0.00     0.255 C 
BRANCH  28  31
HETATM   31  C   UNL     1     -40.886  53.543 -53.069  1.00  0.00     0.030 A 
HETATM   32  C   UNL     1     -40.668  52.350 -53.779  1.00  0.00     0.045 A 
HETATM   33  C   UNL     1     -39.952  51.269 -53.233  1.00  0.00     0.050 A 
HETATM   34  C   UNL     1     -39.427  51.391 -51.943  1.00  0.00     0.016 A 
HETATM   35  C   UNL     1     -39.626  52.563 -51.220  1.00  0.00     0.003 A 
HETATM   36  C   UNL     1     -40.344  53.625 -51.780  1.00  0.00     0.029 A 
BRANCH  33  37
HETATM   37  C   UNL     1     -39.707  50.020 -54.043  1.00  0.00     0.417 C 
HETATM   38  F   UNL     1     -40.825  49.570 -54.680  1.00  0.00    -0.166 F 
HETATM   39  F   UNL     1     -38.772  50.208 -55.014  1.00  0.00    -0.166 F 
HETATM   40  F   UNL     1     -39.265  48.978 -53.288  1.00  0.00    -0.166 F 
ENDBRANCH  33  37
ENDBRANCH  28  31
ENDBRANCH  23  24
ENDBRANCH   2  23
TORSDOF 8
ENDMDL
MODEL 3
REMARK VINA RESULT:      -8.8      2.337      4.100
REMARK  8 active torsions:
REMARK  status: ('A' for Active; 'I' for Inactive)
REMARK    1  A    between atoms: C_2  and  O_3 
REMARK    2  A    between atoms: O_3  and  C_4 
REMARK    3  A    between atoms: C_4  and  C_5 
REMARK    4  A    between atoms: C_10  and  N_11 
REMARK       I    between atoms: N_11  and  C_12 
REMARK    5  A    between atoms: C_12  and  C_13 
REMARK    6  A    between atoms: C_13  and  N_14 
REMARK    7  A    between atoms: N_18  and  C_19 
REMARK    8  A    between atoms: C_21  and  C_22 
ROOT
HETATM    1  N   UNL     1     -45.163  57.665 -57.125  1.00  0.00    -0.323 N 
HETATM    2  C   UNL     1     -44.255  58.578 -56.629  1.00  0.00     0.248 C 
HETATM    3  O   UNL     1     -43.882  59.591 -57.213  1.00  0.00    -0.271 OA
HETATM    4  H   UNL     1     -45.761  57.154 -56.476  1.00  0.00     0.169 HD
ENDROOT
BRANCH   1   5
HETATM    5  C   UNL     1     -45.615  57.669 -58.444  1.00  0.00     0.080 A 
HETATM    6  C   UNL     1     -45.087  56.817 -59.401  1.00  0.00     0.137 A 
HETATM    7  N   UNL     1     -45.761  57.055 -60.575  1.00  0.00    -0.349 N 
HETATM    8  H   UNL     1     -45.595  56.554 -61.439  1.00  0.00     0.166 HD
HETATM    9  C   UNL     1     -46.688  58.058 -60.417  1.00  0.00     0.048 A 
HETATM   10  C   UNL     1     -46.610  58.485 -59.082  1.00  0.00     0.023 A 
HETATM   11  C   UNL     1     -47.574  58.608 -61.359  1.00  0.00     0.070 A 
HETATM   12  C   UNL     1     -47.433  59.563 -58.676  1.00  0.00     0.055 A 
HETATM   13  C   UNL     1     -48.306  60.095 -59.607  1.00  0.00     0.106 A 
HETATM   14  C   UNL     1     -48.376  59.632 -60.894  1.00  0.00     0.107 A 
HETATM   15  O   UNL     1     -49.175  61.115 -59.369  1.00  0.00    -0.323 OA
HETATM   16  O   UNL     1     -49.305  60.299 -61.633  1.00  0.00    -0.323 OA
HETATM   17  C   UNL     1     -49.830  61.215 -60.650  1.00  0.00     0.352 A 
BRANCH   6  18
HETATM   18  C   UNL     1     -44.070  55.807 -59.234  1.00  0.00     0.312 C 
HETATM   19  O   UNL     1     -44.273  54.606 -59.369  1.00  0.00    -0.258 OA
BRANCH  18  20
HETATM   20  O   UNL     1     -42.879  56.396 -58.947  1.00  0.00    -0.317 OA
BRANCH  20  21
HETATM   21  C   UNL     1     -42.111  56.855 -60.070  1.00  0.00     0.175 C 
HETATM   22  C   UNL     1     -42.067  58.369 -60.085  1.00  0.00     0.034 C 
ENDBRANCH  20  21
ENDBRANCH  18  20
ENDBRANCH   6  18
ENDBRANCH   1   5
BRANCH   2  23
HETATM   23  C   UNL     1     -43.738  58.245 -55.221  1.00  0.00     0.337 C 
BRANCH  23  24
HETATM   24  N   UNL     1     -43.253  56.799 -55.013  1.00  0.00    -0.060 N 
HETATM   25  H   UNL     1     -43.692  56.223 -55.739  1.00  0.00     0.280 HD
HETATM   26  C   UNL     1     -41.734  56.649 -55.199  1.00  0.00     0.255 C 
HETATM   27  C   UNL     1     -41.287  55.188 -54.978  1.00  0.00     0.150 C 
HETATM   28  N   UNL     1     -41.769  54.710 -53.670  1.00  0.00    -0.378 N 
HETATM   29  C   UNL     1     -43.226  54.771 -53.485  1.00  0.00     0.150 C 
HETATM   30  C   UNL     1     -43.708  56.227 -53.665  1.00  0.00     0.255 C 
BRANCH  28  31
HETATM   31  C   UNL     1     -41.033  53.703 -53.050  1.00  0.00     0.030 A 
HETATM   32  C   UNL     1     -40.857  52.470 -53.701  1.00  0.00     0.045 A 
HETATM   33  C   UNL     1     -40.084  51.431 -53.150  1.00  0.00     0.050 A 
HETATM   34  C   UNL     1     -39.458  51.638 -51.918  1.00  0.00     0.016 A 
HETATM   35  C   UNL     1     -39.613  52.851 -51.254  1.00  0.00     0.003 A 
HETATM   36  C   UNL     1     -40.390  53.869 -51.818  1.00  0.00     0.029 A 
BRANCH  33  37
HETATM   37  C   UNL     1     -39.888  50.137 -53.901  1.00  0.00     0.417 C 
HETATM   38  F   UNL     1     -40.960  49.802 -54.673  1.00  0.00    -0.166 F 
HETATM   39  F   UNL     1     -38.819  50.183 -54.742  1.00  0.00    -0.166 F 
HETATM   40  F   UNL     1     -39.677  49.075 -53.077  1.00  0.00    -0.166 F 
ENDBRANCH  33  37
ENDBRANCH  28  31
ENDBRANCH  23  24
ENDBRANCH   2  23
TORSDOF 8
ENDMDL
MODEL 4
REMARK VINA RESULT:      -8.8      2.437      3.710
REMARK  8 active torsions:
REMARK  status: ('A' for Active; 'I' for Inactive)
REMARK    1  A    between atoms: C_2  and  O_3 
REMARK    2  A    between atoms: O_3  and  C_4 
REMARK    3  A    between atoms: C_4  and  C_5 
REMARK    4  A    between atoms: C_10  and  N_11 
REMARK       I    between atoms: N_11  and  C_12 
REMARK    5  A    between atoms: C_12  and  C_13 
REMARK    6  A    between atoms: C_13  and  N_14 
REMARK    7  A    between atoms: N_18  and  C_19 
REMARK    8  A    between atoms: C_21  and  C_22 
ROOT
HETATM    1  N   UNL     1     -42.094  58.738 -55.179  1.00  0.00    -0.323 N 
HETATM    2  C   UNL     1     -43.028  59.530 -54.545  1.00  0.00     0.248 C 
HETATM    3  O   UNL     1     -44.159  59.760 -54.964  1.00  0.00    -0.271 OA
HETATM    4  H   UNL     1     -41.415  58.222 -54.619  1.00  0.00     0.169 HD
ENDROOT
BRANCH   1   5
HETATM    5  C   UNL     1     -42.243  58.266 -56.483  1.00  0.00     0.080 A 
HETATM    6  C   UNL     1     -42.575  56.948 -56.751  1.00  0.00     0.137 A 
HETATM    7  N   UNL     1     -42.666  56.820 -58.117  1.00  0.00    -0.349 N 
HETATM    8  H   UNL     1     -42.919  55.964 -58.594  1.00  0.00     0.166 HD
HETATM    9  C   UNL     1     -42.374  58.009 -58.744  1.00  0.00     0.048 A 
HETATM   10  C   UNL     1     -42.081  58.944 -57.739  1.00  0.00     0.023 A 
HETATM   11  C   UNL     1     -42.346  58.308 -60.116  1.00  0.00     0.070 A 
HETATM   12  C   UNL     1     -41.687  60.246 -58.132  1.00  0.00     0.055 A 
HETATM   13  C   UNL     1     -41.667  60.533 -59.484  1.00  0.00     0.106 A 
HETATM   14  C   UNL     1     -41.989  59.603 -60.436  1.00  0.00     0.107 A 
HETATM   15  O   UNL     1     -41.334  61.739 -60.021  1.00  0.00    -0.323 OA
HETATM   16  O   UNL     1     -41.905  60.105 -61.698  1.00  0.00    -0.323 OA
HETATM   17  C   UNL     1     -41.521  61.469 -61.426  1.00  0.00     0.352 A 
BRANCH   6  18
HETATM   18  C   UNL     1     -42.848  55.887 -55.813  1.00  0.00     0.312 C 
HETATM   19  O   UNL     1     -43.664  55.974 -54.902  1.00  0.00    -0.258 OA
BRANCH  18  20
HETATM   20  O   UNL     1     -42.098  54.796 -56.119  1.00  0.00    -0.317 OA
BRANCH  20  21
HETATM   21  C   UNL     1     -41.509  54.098 -55.011  1.00  0.00     0.175 C 
HETATM   22  C   UNL     1     -40.008  54.300 -55.007  1.00  0.00     0.034 C 
ENDBRANCH  20  21
ENDBRANCH  18  20
ENDBRANCH   6  18
ENDBRANCH   1   5
BRANCH   2  23
HETATM   23  C   UNL     1     -42.552  60.110 -53.204  1.00  0.00     0.337 C 
BRANCH  23  24
HETATM   24  N   UNL     1     -42.379  59.092 -52.062  1.00  0.00    -0.060 N 
HETATM   25  H   UNL     1     -42.746  59.526 -51.209  1.00  0.00     0.280 HD
HETATM   26  C   UNL     1     -43.195  57.808 -52.282  1.00  0.00     0.255 C 
HETATM   27  C   UNL     1     -42.991  56.812 -51.120  1.00  0.00     0.150 C 
HETATM   28  N   UNL     1     -41.552  56.566 -50.918  1.00  0.00    -0.378 N 
HETATM   29  C   UNL     1     -40.752  57.766 -50.633  1.00  0.00     0.150 C 
HETATM   30  C   UNL     1     -40.903  58.775 -51.792  1.00  0.00     0.255 C 
BRANCH  28  31
HETATM   31  C   UNL     1     -41.187  55.342 -50.364  1.00  0.00     0.030 A 
HETATM   32  C   UNL     1     -40.776  54.294 -51.205  1.00  0.00     0.045 A 
HETATM   33  C   UNL     1     -40.347  53.050 -50.704  1.00  0.00     0.050 A 
HETATM   34  C   UNL     1     -40.316  52.856 -49.320  1.00  0.00     0.016 A 
HETATM   35  C   UNL     1     -40.714  53.879 -48.465  1.00  0.00     0.003 A 
HETATM   36  C   UNL     1     -41.141  55.106 -48.985  1.00  0.00     0.029 A 
BRANCH  33  37
HETATM   37  C   UNL     1     -39.877  51.964 -51.640  1.00  0.00     0.417 C 
HETATM   38  F   UNL     1     -40.567  51.939 -52.816  1.00  0.00    -0.166 F 
HETATM   39  F   UNL     1     -38.566  52.103 -51.977  1.00  0.00    -0.166 F 
HETATM   40  F   UNL     1     -40.003  50.718 -51.109  1.00  0.00    -0.166 F 
ENDBRANCH  33  37
ENDBRANCH  28  31
ENDBRANCH  23  24
ENDBRANCH   2  23
TORSDOF 8
ENDMDL
MODEL 5
REMARK VINA RESULT:      -8.4      1.868      2.479
REMARK  8 active torsions:
REMARK  status: ('A' for Active; 'I' for Inactive)
REMARK    1  A    between atoms: C_2  and  O_3 
REMARK    2  A    between atoms: O_3  and  C_4 
REMARK    3  A    between atoms: C_4  and  C_5 
REMARK    4  A    between atoms: C_10  and  N_11 
REMARK       I    between atoms: N_11  and  C_12 
REMARK    5  A    between atoms: C_12  and  C_13 
REMARK    6  A    between atoms: C_13  and  N_14 
REMARK    7  A    between atoms: N_18  and  C_19 
REMARK    8  A    between atoms: C_21  and  C_22 
ROOT
HETATM    1  N   UNL     1     -42.044  59.910 -56.162  1.00  0.00    -0.323 N 
HETATM    2  C   UNL     1     -43.120  60.412 -55.460  1.00  0.00     0.248 C 
HETATM    3  O   UNL     1     -44.252  60.558 -55.913  1.00  0.00    -0.271 OA
HETATM    4  H   UNL     1     -41.320  59.393 -55.663  1.00  0.00     0.169 HD
ENDROOT
BRANCH   1   5
HETATM    5  C   UNL     1     -42.055  59.698 -57.541  1.00  0.00     0.080 A 
HETATM    6  C   UNL     1     -42.379  58.467 -58.090  1.00  0.00     0.137 A 
HETATM    7  N   UNL     1     -42.321  58.603 -59.456  1.00  0.00    -0.349 N 
HETATM    8  H   UNL     1     -42.534  57.862 -60.112  1.00  0.00     0.166 HD
HETATM    9  C   UNL     1     -41.939  59.876 -59.810  1.00  0.00     0.048 A 
HETATM   10  C   UNL     1     -41.743  60.593 -58.620  1.00  0.00     0.023 A 
HETATM   11  C   UNL     1     -41.754  60.427 -61.089  1.00  0.00     0.070 A 
HETATM   12  C   UNL     1     -41.285  61.930 -58.712  1.00  0.00     0.055 A 
HETATM   13  C   UNL     1     -41.111  62.466 -59.974  1.00  0.00     0.106 A 
HETATM   14  C   UNL     1     -41.341  61.744 -61.115  1.00  0.00     0.107 A 
HETATM   15  O   UNL     1     -40.698  63.737 -60.233  1.00  0.00    -0.323 OA
HETATM   16  O   UNL     1     -41.109  62.472 -62.242  1.00  0.00    -0.323 OA
HETATM   17  C   UNL     1     -40.733  63.744 -61.675  1.00  0.00     0.352 A 
BRANCH   6  18
HETATM   18  C   UNL     1     -42.773  57.260 -57.406  1.00  0.00     0.312 C 
HETATM   19  O   UNL     1     -42.323  56.913 -56.319  1.00  0.00    -0.258 OA
BRANCH  18  20
HETATM   20  O   UNL     1     -43.723  56.610 -58.128  1.00  0.00    -0.317 OA
BRANCH  20  21
HETATM   21  C   UNL     1     -43.316  55.384 -58.755  1.00  0.00     0.175 C 
HETATM   22  C   UNL     1     -44.397  54.900 -59.700  1.00  0.00     0.034 C 
ENDBRANCH  20  21
ENDBRANCH  18  20
ENDBRANCH   6  18
ENDBRANCH   1   5
BRANCH   2  23
HETATM   23  C   UNL     1     -42.804  60.768 -53.999  1.00  0.00     0.337 C 
BRANCH  23  24
HETATM   24  N   UNL     1     -42.523  59.575 -53.069  1.00  0.00    -0.060 N 
HETATM   25  H   UNL     1     -42.742  59.875 -52.113  1.00  0.00     0.280 HD
HETATM   26  C   UNL     1     -43.426  58.366 -53.363  1.00  0.00     0.255 C 
HETATM   27  C   UNL     1     -43.112  57.190 -52.414  1.00  0.00     0.150 C 
HETATM   28  N   UNL     1     -41.673  56.875 -52.468  1.00  0.00    -0.378 N 
HETATM   29  C   UNL     1     -40.780  57.990 -52.121  1.00  0.00     0.150 C 
HETATM   30  C   UNL     1     -41.042  59.177 -53.073  1.00  0.00     0.255 C 
BRANCH  28  31
HETATM   31  C   UNL     1     -41.296  55.568 -52.172  1.00  0.00     0.030 A 
HETATM   32  C   UNL     1     -41.031  54.667 -53.218  1.00  0.00     0.045 A 
HETATM   33  C   UNL     1     -40.599  53.348 -52.985  1.00  0.00     0.050 A 
HETATM   34  C   UNL     1     -40.413  52.924 -51.666  1.00  0.00     0.016 A 
HETATM   35  C   UNL     1     -40.664  53.796 -50.612  1.00  0.00     0.003 A 
HETATM   36  C   UNL     1     -41.098  55.102 -50.866  1.00  0.00     0.029 A 
BRANCH  33  37
HETATM   37  C   UNL     1     -40.288  52.426 -54.138  1.00  0.00     0.417 C 
HETATM   38  F   UNL     1     -41.308  51.568 -54.424  1.00  0.00    -0.166 F 
HETATM   39  F   UNL     1     -40.032  53.104 -55.290  1.00  0.00    -0.166 F 
HETATM   40  F   UNL     1     -39.198  51.643 -53.909  1.00  0.00    -0.166 F 
ENDBRANCH  33  37
ENDBRANCH  28  31
ENDBRANCH  23  24
ENDBRANCH   2  23
TORSDOF 8
ENDMDL
MODEL 6
REMARK VINA RESULT:      -8.4      1.982      4.664
REMARK  8 active torsions:
REMARK  status: ('A' for Active; 'I' for Inactive)
REMARK    1  A    between atoms: C_2  and  O_3 
REMARK    2  A    between atoms: O_3  and  C_4 
REMARK    3  A    between atoms: C_4  and  C_5 
REMARK    4  A    between atoms: C_10  and  N_11 
REMARK       I    between atoms: N_11  and  C_12 
REMARK    5  A    between atoms: C_12  and  C_13 
REMARK    6  A    between atoms: C_13  and  N_14 
REMARK    7  A    between atoms: N_18  and  C_19 
REMARK    8  A    between atoms: C_21  and  C_22 
ROOT
HETATM    1  N   UNL     1     -43.596  60.433 -55.796  1.00  0.00    -0.323 N 
HETATM    2  C   UNL     1     -42.534  60.174 -54.954  1.00  0.00     0.248 C 
HETATM    3  O   UNL     1     -41.388  59.925 -55.319  1.00  0.00    -0.271 OA
HETATM    4  H   UNL     1     -44.339  61.058 -55.485  1.00  0.00     0.169 HD
ENDROOT
BRANCH   1   5
HETATM    5  C   UNL     1     -43.548  60.238 -57.177  1.00  0.00     0.080 A 
HETATM    6  C   UNL     1     -43.401  61.295 -58.061  1.00  0.00     0.137 A 
HETATM    7  N   UNL     1     -43.366  60.764 -59.328  1.00  0.00    -0.349 N 
HETATM    8  H   UNL     1     -43.242  61.311 -60.172  1.00  0.00     0.166 HD
HETATM    9  C   UNL     1     -43.518  59.398 -59.295  1.00  0.00     0.048 A 
HETATM   10  C   UNL     1     -43.656  59.031 -57.948  1.00  0.00     0.023 A 
HETATM   11  C   UNL     1     -43.546  58.480 -60.358  1.00  0.00     0.070 A 
HETATM   12  C   UNL     1     -43.887  57.667 -57.647  1.00  0.00     0.055 A 
HETATM   13  C   UNL     1     -43.907  56.769 -58.698  1.00  0.00     0.106 A 
HETATM   14  C   UNL     1     -43.738  57.160 -59.999  1.00  0.00     0.107 A 
HETATM   15  O   UNL     1     -44.095  55.427 -58.574  1.00  0.00    -0.323 OA
HETATM   16  O   UNL     1     -43.792  56.111 -60.865  1.00  0.00    -0.323 OA
HETATM   17  C   UNL     1     -43.986  55.011 -59.952  1.00  0.00     0.352 A 
BRANCH   6  18
HETATM   18  C   UNL     1     -43.242  62.697 -57.758  1.00  0.00     0.312 C 
HETATM   19  O   UNL     1     -43.759  63.249 -56.794  1.00  0.00    -0.258 OA
BRANCH  18  20
HETATM   20  O   UNL     1     -42.421  63.275 -58.673  1.00  0.00    -0.317 OA
BRANCH  20  21
HETATM   21  C   UNL     1     -41.045  63.422 -58.288  1.00  0.00     0.175 C 
HETATM   22  C   UNL     1     -40.160  62.593 -59.197  1.00  0.00     0.034 C 
ENDBRANCH  20  21
ENDBRANCH  18  20
ENDBRANCH   6  18
ENDBRANCH   1   5
BRANCH   2  23
HETATM   23  C   UNL     1     -42.886  60.249 -53.461  1.00  0.00     0.337 C 
BRANCH  23  24
HETATM   24  N   UNL     1     -42.729  58.937 -52.672  1.00  0.00    -0.060 N 
HETATM   25  H   UNL     1     -43.318  59.010 -51.837  1.00  0.00     0.280 HD
HETATM   26  C   UNL     1     -43.232  57.711 -53.453  1.00  0.00     0.255 C 
HETATM   27  C   UNL     1     -43.054  56.415 -52.632  1.00  0.00     0.150 C 
HETATM   28  N   UNL     1     -41.654  56.294 -52.187  1.00  0.00    -0.378 N 
HETATM   29  C   UNL     1     -41.162  57.417 -51.376  1.00  0.00     0.150 C 
HETATM   30  C   UNL     1     -41.293  58.730 -52.178  1.00  0.00     0.255 C 
BRANCH  28  31
HETATM   31  C   UNL     1     -41.167  55.010 -51.961  1.00  0.00     0.030 A 
HETATM   32  C   UNL     1     -40.955  54.145 -53.048  1.00  0.00     0.045 A 
HETATM   33  C   UNL     1     -40.418  52.854 -52.890  1.00  0.00     0.050 A 
HETATM   34  C   UNL     1     -40.072  52.421 -51.607  1.00  0.00     0.016 A 
HETATM   35  C   UNL     1     -40.268  53.258 -50.514  1.00  0.00     0.003 A 
HETATM   36  C   UNL     1     -40.807  54.537 -50.693  1.00  0.00     0.029 A 
BRANCH  33  37
HETATM   37  C   UNL     1     -40.170  51.972 -54.089  1.00  0.00     0.417 C 
HETATM   38  F   UNL     1     -39.906  52.679 -55.225  1.00  0.00    -0.166 F 
HETATM   39  F   UNL     1     -39.108  51.141 -53.909  1.00  0.00    -0.166 F 
HETATM   40  F   UNL     1     -41.231  51.173 -54.386  1.00  0.00    -0.166 F 
ENDBRANCH  33  37
ENDBRANCH  28  31
ENDBRANCH  23  24
ENDBRANCH   2  23
TORSDOF 8
ENDMDL
MODEL 7
REMARK VINA RESULT:      -8.4      6.660      9.306
REMARK  8 active torsions:
REMARK  status: ('A' for Active; 'I' for Inactive)
REMARK    1  A    between atoms: C_2  and  O_3 
REMARK    2  A    between atoms: O_3  and  C_4 
REMARK    3  A    between atoms: C_4  and  C_5 
REMARK    4  A    between atoms: C_10  and  N_11 
REMARK       I    between atoms: N_11  and  C_12 
REMARK    5  A    between atoms: C_12  and  C_13 
REMARK    6  A    between atoms: C_13  and  N_14 
REMARK    7  A    between atoms: N_18  and  C_19 
REMARK    8  A    between atoms: C_21  and  C_22 
ROOT
HETATM    1  N   UNL     1     -42.714  58.517 -54.654  1.00  0.00    -0.323 N 
HETATM    2  C   UNL     1     -41.927  59.559 -54.208  1.00  0.00     0.248 C 
HETATM    3  O   UNL     1     -40.705  59.521 -54.091  1.00  0.00    -0.271 OA
HETATM    4  H   UNL     1     -43.576  58.724 -55.157  1.00  0.00     0.169 HD
ENDROOT
BRANCH   1   5
HETATM    5  C   UNL     1     -42.241  57.217 -54.829  1.00  0.00     0.080 A 
HETATM    6  C   UNL     1     -42.212  56.611 -56.076  1.00  0.00     0.137 A 
HETATM    7  N   UNL     1     -41.673  55.358 -55.907  1.00  0.00    -0.349 N 
HETATM    8  H   UNL     1     -41.513  54.700 -56.660  1.00  0.00     0.166 HD
HETATM    9  C   UNL     1     -41.381  55.121 -54.584  1.00  0.00     0.048 A 
HETATM   10  C   UNL     1     -41.746  56.271 -53.869  1.00  0.00     0.023 A 
HETATM   11  C   UNL     1     -40.829  53.975 -53.986  1.00  0.00     0.070 A 
HETATM   12  C   UNL     1     -41.596  56.259 -52.460  1.00  0.00     0.055 A 
HETATM   13  C   UNL     1     -41.047  55.130 -51.881  1.00  0.00     0.106 A 
HETATM   14  C   UNL     1     -40.674  54.036 -52.615  1.00  0.00     0.107 A 
HETATM   15  O   UNL     1     -40.819  54.970 -50.549  1.00  0.00    -0.323 OA
HETATM   16  O   UNL     1     -40.156  53.045 -51.839  1.00  0.00    -0.323 OA
HETATM   17  C   UNL     1     -40.220  53.657 -50.534  1.00  0.00     0.352 A 
BRANCH   6  18
HETATM   18  C   UNL     1     -42.600  57.168 -57.349  1.00  0.00     0.312 C 
HETATM   19  O   UNL     1     -42.234  58.266 -57.753  1.00  0.00    -0.258 OA
BRANCH  18  20
HETATM   20  O   UNL     1     -43.384  56.283 -58.019  1.00  0.00    -0.317 OA
BRANCH  20  21
HETATM   21  C   UNL     1     -42.938  55.907 -59.331  1.00  0.00     0.175 C 
HETATM   22  C   UNL     1     -43.870  56.477 -60.381  1.00  0.00     0.034 C 
ENDBRANCH  20  21
ENDBRANCH  18  20
ENDBRANCH   6  18
ENDBRANCH   1   5
BRANCH   2  23
HETATM   23  C   UNL     1     -42.710  60.839 -53.879  1.00  0.00     0.337 C 
BRANCH  23  24
HETATM   24  N   UNL     1     -42.756  61.229 -52.391  1.00  0.00    -0.060 N 
HETATM   25  H   UNL     1     -41.800  61.471 -52.109  1.00  0.00     0.280 HD
HETATM   26  C   UNL     1     -43.615  62.477 -52.130  1.00  0.00     0.255 C 
HETATM   27  C   UNL     1     -43.640  62.832 -50.627  1.00  0.00     0.150 C 
HETATM   28  N   UNL     1     -44.058  61.657 -49.843  1.00  0.00    -0.378 N 
HETATM   29  C   UNL     1     -43.214  60.466 -50.013  1.00  0.00     0.150 C 
HETATM   30  C   UNL     1     -43.191  60.058 -51.502  1.00  0.00     0.255 C 
BRANCH  28  31
HETATM   31  C   UNL     1     -44.680  61.896 -48.620  1.00  0.00     0.030 A 
HETATM   32  C   UNL     1     -45.292  60.835 -47.932  1.00  0.00     0.045 A 
HETATM   33  C   UNL     1     -45.893  61.002 -46.671  1.00  0.00     0.050 A 
HETATM   34  C   UNL     1     -45.868  62.267 -46.075  1.00  0.00     0.016 A 
HETATM   35  C   UNL     1     -45.265  63.334 -46.733  1.00  0.00     0.003 A 
HETATM   36  C   UNL     1     -44.677  63.146 -47.989  1.00  0.00     0.029 A 
BRANCH  33  37
HETATM   37  C   UNL     1     -46.506  59.828 -45.948  1.00  0.00     0.417 C 
HETATM   38  F   UNL     1     -45.826  59.484 -44.818  1.00  0.00    -0.166 F 
HETATM   39  F   UNL     1     -47.786  60.070 -45.557  1.00  0.00    -0.166 F 
HETATM   40  F   UNL     1     -46.549  58.702 -46.712  1.00  0.00    -0.166 F 
ENDBRANCH  33  37
ENDBRANCH  28  31
ENDBRANCH  23  24
ENDBRANCH   2  23
TORSDOF 8
ENDMDL
MODEL 8
REMARK VINA RESULT:      -8.3      6.196     10.383
REMARK  8 active torsions:
REMARK  status: ('A' for Active; 'I' for Inactive)
REMARK    1  A    between atoms: C_2  and  O_3 
REMARK    2  A    between atoms: O_3  and  C_4 
REMARK    3  A    between atoms: C_4  and  C_5 
REMARK    4  A    between atoms: C_10  and  N_11 
REMARK       I    between atoms: N_11  and  C_12 
REMARK    5  A    between atoms: C_12  and  C_13 
REMARK    6  A    between atoms: C_13  and  N_14 
REMARK    7  A    between atoms: N_18  and  C_19 
REMARK    8  A    between atoms: C_21  and  C_22 
ROOT
HETATM    1  N   UNL     1     -42.911  56.037 -53.565  1.00  0.00    -0.323 N 
HETATM    2  C   UNL     1     -42.549  56.600 -54.772  1.00  0.00     0.248 C 
HETATM    3  O   UNL     1     -41.472  56.428 -55.336  1.00  0.00    -0.271 OA
HETATM    4  H   UNL     1     -43.893  55.826 -53.388  1.00  0.00     0.169 HD
ENDROOT
BRANCH   1   5
HETATM    5  C   UNL     1     -42.017  55.368 -52.729  1.00  0.00     0.080 A 
HETATM    6  C   UNL     1     -41.569  55.926 -51.542  1.00  0.00     0.137 A 
HETATM    7  N   UNL     1     -40.730  55.009 -50.953  1.00  0.00    -0.349 N 
HETATM    8  H   UNL     1     -40.275  55.145 -50.059  1.00  0.00     0.166 HD
HETATM    9  C   UNL     1     -40.597  53.888 -51.737  1.00  0.00     0.048 A 
HETATM   10  C   UNL     1     -41.384  54.088 -52.882  1.00  0.00     0.023 A 
HETATM   11  C   UNL     1     -39.836  52.728 -51.511  1.00  0.00     0.070 A 
HETATM   12  C   UNL     1     -41.372  53.090 -53.886  1.00  0.00     0.055 A 
HETATM   13  C   UNL     1     -40.625  51.950 -53.652  1.00  0.00     0.106 A 
HETATM   14  C   UNL     1     -39.893  51.775 -52.508  1.00  0.00     0.107 A 
HETATM   15  O   UNL     1     -40.527  50.893 -54.504  1.00  0.00    -0.323 OA
HETATM   16  O   UNL     1     -39.241  50.580 -52.490  1.00  0.00    -0.323 OA
HETATM   17  C   UNL     1     -39.674  50.013 -53.744  1.00  0.00     0.352 A 
BRANCH   6  18
HETATM   18  C   UNL     1     -41.932  57.193 -50.957  1.00  0.00     0.312 C 
HETATM   19  O   UNL     1     -43.066  57.657 -50.983  1.00  0.00    -0.258 OA
BRANCH  18  20
HETATM   20  O   UNL     1     -40.847  57.752 -50.359  1.00  0.00    -0.317 OA
BRANCH  20  21
HETATM   21  C   UNL     1     -40.780  59.186 -50.379  1.00  0.00     0.175 C 
HETATM   22  C   UNL     1     -39.336  59.638 -50.460  1.00  0.00     0.034 C 
ENDBRANCH  20  21
ENDBRANCH  18  20
ENDBRANCH   6  18
ENDBRANCH   1   5
BRANCH   2  23
HETATM   23  C   UNL     1     -43.640  57.473 -55.409  1.00  0.00     0.337 C 
BRANCH  23  24
HETATM   24  N   UNL     1     -43.817  58.873 -54.795  1.00  0.00    -0.060 N 
HETATM   25  H   UNL     1     -44.117  59.501 -55.548  1.00  0.00     0.280 HD
HETATM   26  C   UNL     1     -44.921  58.917 -53.726  1.00  0.00     0.255 C 
HETATM   27  C   UNL     1     -45.065  60.335 -53.132  1.00  0.00     0.150 C 
HETATM   28  N   UNL     1     -43.757  60.808 -52.645  1.00  0.00    -0.378 N 
HETATM   29  C   UNL     1     -42.695  60.847 -53.660  1.00  0.00     0.150 C 
HETATM   30  C   UNL     1     -42.497  59.437 -54.255  1.00  0.00     0.255 C 
BRANCH  28  31
HETATM   31  C   UNL     1     -43.762  61.740 -51.610  1.00  0.00     0.030 A 
HETATM   32  C   UNL     1     -44.347  61.406 -50.377  1.00  0.00     0.045 A 
HETATM   33  C   UNL     1     -44.340  62.285 -49.278  1.00  0.00     0.050 A 
HETATM   34  C   UNL     1     -43.717  63.529 -49.414  1.00  0.00     0.016 A 
HETATM   35  C   UNL     1     -43.127  63.883 -50.623  1.00  0.00     0.003 A 
HETATM   36  C   UNL     1     -43.149  62.995 -51.705  1.00  0.00     0.029 A 
BRANCH  33  37
HETATM   37  C   UNL     1     -44.946  61.872 -47.959  1.00  0.00     0.417 C 
HETATM   38  F   UNL     1     -46.201  61.357 -48.087  1.00  0.00    -0.166 F 
HETATM   39  F   UNL     1     -44.210  60.917 -47.328  1.00  0.00    -0.166 F 
HETATM   40  F   UNL     1     -45.056  62.906 -47.081  1.00  0.00    -0.166 F 
ENDBRANCH  33  37
ENDBRANCH  28  31
ENDBRANCH  23  24
ENDBRANCH   2  23
TORSDOF 8
ENDMDL
MODEL 9
REMARK VINA RESULT:      -8.3      2.757      3.754
REMARK  8 active torsions:
REMARK  status: ('A' for Active; 'I' for Inactive)
REMARK    1  A    between atoms: C_2  and  O_3 
REMARK    2  A    between atoms: O_3  and  C_4 
REMARK    3  A    between atoms: C_4  and  C_5 
REMARK    4  A    between atoms: C_10  and  N_11 
REMARK       I    between atoms: N_11  and  C_12 
REMARK    5  A    between atoms: C_12  and  C_13 
REMARK    6  A    between atoms: C_13  and  N_14 
REMARK    7  A    between atoms: N_18  and  C_19 
REMARK    8  A    between atoms: C_21  and  C_22 
ROOT
HETATM    1  N   UNL     1     -43.595  59.613 -53.875  1.00  0.00    -0.323 N 
HETATM    2  C   UNL     1     -42.933  60.147 -52.789  1.00  0.00     0.248 C 
HETATM    3  O   UNL     1     -41.961  60.896 -52.853  1.00  0.00    -0.271 OA
HETATM    4  H   UNL     1     -44.594  59.418 -53.803  1.00  0.00     0.169 HD
ENDROOT
BRANCH   1   5
HETATM    5  C   UNL     1     -43.115  59.688 -55.182  1.00  0.00     0.080 A 
HETATM    6  C   UNL     1     -42.451  58.628 -55.779  1.00  0.00     0.137 A 
HETATM    7  N   UNL     1     -42.136  59.014 -57.060  1.00  0.00    -0.349 N 
HETATM    8  H   UNL     1     -41.665  58.423 -57.734  1.00  0.00     0.166 HD
HETATM    9  C   UNL     1     -42.548  60.304 -57.302  1.00  0.00     0.048 A 
HETATM   10  C   UNL     1     -43.156  60.770 -56.126  1.00  0.00     0.023 A 
HETATM   11  C   UNL     1     -42.418  61.076 -58.468  1.00  0.00     0.070 A 
HETATM   12  C   UNL     1     -43.618  62.108 -56.097  1.00  0.00     0.055 A 
HETATM   13  C   UNL     1     -43.491  62.858 -57.250  1.00  0.00     0.106 A 
HETATM   14  C   UNL     1     -42.920  62.360 -58.391  1.00  0.00     0.107 A 
HETATM   15  O   UNL     1     -43.904  64.148 -57.392  1.00  0.00    -0.323 OA
HETATM   16  O   UNL     1     -42.904  63.272 -59.402  1.00  0.00    -0.323 OA
HETATM   17  C   UNL     1     -43.559  64.392 -58.771  1.00  0.00     0.352 A 
BRANCH   6  18
HETATM   18  C   UNL     1     -42.175  57.323 -55.229  1.00  0.00     0.312 C 
HETATM   19  O   UNL     1     -41.445  57.130 -54.263  1.00  0.00    -0.258 OA
BRANCH  18  20
HETATM   20  O   UNL     1     -42.866  56.377 -55.918  1.00  0.00    -0.317 OA
BRANCH  20  21
HETATM   21  C   UNL     1     -42.274  55.070 -55.970  1.00  0.00     0.175 C 
HETATM   22  C   UNL     1     -43.208  54.051 -55.350  1.00  0.00     0.034 C 
ENDBRANCH  20  21
ENDBRANCH  18  20
ENDBRANCH   6  18
ENDBRANCH   1   5
BRANCH   2  23
HETATM   23  C   UNL     1     -43.534  59.752 -51.432  1.00  0.00     0.337 C 
BRANCH  23  24
HETATM   24  N   UNL     1     -43.091  58.385 -50.880  1.00  0.00    -0.060 N 
HETATM   25  H   UNL     1     -43.374  58.346 -49.895  1.00  0.00     0.280 HD
HETATM   26  C   UNL     1     -43.789  57.207 -51.579  1.00  0.00     0.255 C 
HETATM   27  C   UNL     1     -43.316  55.855 -51.003  1.00  0.00     0.150 C 
HETATM   28  N   UNL     1     -41.845  55.779 -51.051  1.00  0.00    -0.378 N 
HETATM   29  C   UNL     1     -41.144  56.850 -50.330  1.00  0.00     0.150 C 
HETATM   30  C   UNL     1     -41.566  58.220 -50.902  1.00  0.00     0.255 C 
BRANCH  28  31
HETATM   31  C   UNL     1     -41.276  54.510 -51.132  1.00  0.00     0.030 A 
HETATM   32  C   UNL     1     -40.981  53.960 -52.390  1.00  0.00     0.045 A 
HETATM   33  C   UNL     1     -40.361  52.705 -52.537  1.00  0.00     0.050 A 
HETATM   34  C   UNL     1     -40.014  51.987 -51.389  1.00  0.00     0.016 A 
HETATM   35  C   UNL     1     -40.292  52.511 -50.130  1.00  0.00     0.003 A 
HETATM   36  C   UNL     1     -40.913  53.759 -50.007  1.00  0.00     0.029 A 
BRANCH  33  37
HETATM   37  C   UNL     1     -40.026  52.167 -53.906  1.00  0.00     0.417 C 
HETATM   38  F   UNL     1     -39.812  53.150 -54.826  1.00  0.00    -0.166 F 
HETATM   39  F   UNL     1     -38.898  51.405 -53.902  1.00  0.00    -0.166 F 
HETATM   40  F   UNL     1     -41.011  51.383 -54.422  1.00  0.00    -0.166 F 
ENDBRANCH  33  37
ENDBRANCH  28  31
ENDBRANCH  23  24
ENDBRANCH   2  23
TORSDOF 8
ENDMDL
MODEL 10
REMARK VINA RESULT:      -8.3      5.896     10.988
REMARK  8 active torsions:
REMARK  status: ('A' for Active; 'I' for Inactive)
REMARK    1  A    between atoms: C_2  and  O_3 
REMARK    2  A    between atoms: O_3  and  C_4 
REMARK    3  A    between atoms: C_4  and  C_5 
REMARK    4  A    between atoms: C_10  and  N_11 
REMARK       I    between atoms: N_11  and  C_12 
REMARK    5  A    between atoms: C_12  and  C_13 
REMARK    6  A    between atoms: C_13  and  N_14 
REMARK    7  A    between atoms: N_18  and  C_19 
REMARK    8  A    between atoms: C_21  and  C_22 
ROOT
HETATM    1  N   UNL     1     -41.315  55.508 -55.407  1.00  0.00    -0.323 N 
HETATM    2  C   UNL     1     -42.588  55.471 -55.937  1.00  0.00     0.248 C 
HETATM    3  O   UNL     1     -43.604  55.177 -55.314  1.00  0.00    -0.271 OA
HETATM    4  H   UNL     1     -40.635  56.167 -55.786  1.00  0.00     0.169 HD
ENDROOT
BRANCH   1   5
HETATM    5  C   UNL     1     -40.993  55.011 -54.143  1.00  0.00     0.080 A 
HETATM    6  C   UNL     1     -40.985  55.821 -53.019  1.00  0.00     0.137 A 
HETATM    7  N   UNL     1     -40.656  55.026 -51.947  1.00  0.00    -0.349 N 
HETATM    8  H   UNL     1     -40.598  55.354 -50.991  1.00  0.00     0.166 HD
HETATM    9  C   UNL     1     -40.419  53.732 -52.347  1.00  0.00     0.048 A 
HETATM   10  C   UNL     1     -40.605  53.689 -53.737  1.00  0.00     0.023 A 
HETATM   11  C   UNL     1     -40.053  52.615 -51.577  1.00  0.00     0.070 A 
HETATM   12  C   UNL     1     -40.361  52.466 -54.407  1.00  0.00     0.055 A 
HETATM   13  C   UNL     1     -40.007  51.371 -53.641  1.00  0.00     0.106 A 
HETATM   14  C   UNL     1     -39.865  51.443 -52.281  1.00  0.00     0.107 A 
HETATM   15  O   UNL     1     -39.761  50.124 -54.129  1.00  0.00    -0.323 OA
HETATM   16  O   UNL     1     -39.515  50.246 -51.735  1.00  0.00    -0.323 OA
HETATM   17  C   UNL     1     -39.483  49.407 -52.908  1.00  0.00     0.352 A 
BRANCH   6  18
HETATM   18  C   UNL     1     -41.316  57.222 -52.925  1.00  0.00     0.312 C 
HETATM   19  O   UNL     1     -41.088  58.038 -53.810  1.00  0.00    -0.258 OA
BRANCH  18  20
HETATM   20  O   UNL     1     -41.937  57.470 -51.742  1.00  0.00    -0.317 OA
BRANCH  20  21
HETATM   21  C   UNL     1     -43.366  57.600 -51.789  1.00  0.00     0.175 C 
HETATM   22  C   UNL     1     -44.015  56.508 -50.963  1.00  0.00     0.034 C 
ENDBRANCH  20  21
ENDBRANCH  18  20
ENDBRANCH   6  18
ENDBRANCH   1   5
BRANCH   2  23
HETATM   23  C   UNL     1     -42.661  55.868 -57.419  1.00  0.00     0.337 C 
BRANCH  23  24
HETATM   24  N   UNL     1     -44.077  55.975 -58.011  1.00  0.00    -0.060 N 
HETATM   25  H   UNL     1     -44.695  55.395 -57.434  1.00  0.00     0.280 HD
HETATM   26  C   UNL     1     -44.640  57.405 -57.949  1.00  0.00     0.255 C 
HETATM   27  C   UNL     1     -46.058  57.473 -58.556  1.00  0.00     0.150 C 
HETATM   28  N   UNL     1     -46.048  56.905 -59.915  1.00  0.00    -0.378 N 
HETATM   29  C   UNL     1     -45.584  55.513 -60.002  1.00  0.00     0.150 C 
HETATM   30  C   UNL     1     -44.152  55.410 -59.435  1.00  0.00     0.255 C 
BRANCH  28  31
HETATM   31  C   UNL     1     -47.010  57.371 -60.807  1.00  0.00     0.030 A 
HETATM   32  C   UNL     1     -47.239  58.753 -60.922  1.00  0.00     0.045 A 
HETATM   33  C   UNL     1     -48.161  59.290 -61.840  1.00  0.00     0.050 A 
HETATM   34  C   UNL     1     -48.865  58.418 -62.676  1.00  0.00     0.016 A 
HETATM   35  C   UNL     1     -48.654  57.046 -62.586  1.00  0.00     0.003 A 
HETATM   36  C   UNL     1     -47.736  56.533 -61.663  1.00  0.00     0.029 A 
BRANCH  33  37
HETATM   37  C   UNL     1     -48.348  60.782 -61.959  1.00  0.00     0.417 C 
HETATM   38  F   UNL     1     -47.488  61.358 -62.846  1.00  0.00    -0.166 F 
HETATM   39  F   UNL     1     -49.599  61.115 -62.380  1.00  0.00    -0.166 F 
HETATM   40  F   UNL     1     -48.158  61.434 -60.780  1.00  0.00    -0.166 F 
ENDBRANCH  33  37
ENDBRANCH  28  31
ENDBRANCH  23  24
ENDBRANCH   2  23
TORSDOF 8
ENDMDL
