MODEL 1
REMARK VINA RESULT:      -8.7      0.000      0.000
REMARK  5 active torsions:
REMARK  status: ('A' for Active; 'I' for Inactive)
REMARK    1  A    between atoms: C_6  and  N_7 
REMARK       I    between atoms: N_7  and  C_8 
REMARK    2  A    between atoms: C_8  and  C_9 
REMARK    3  A    between atoms: C_9  and  C_10 
REMARK    4  A    between atoms: C_12  and  N_13 
REMARK       I    between atoms: N_13  and  C_14 
REMARK       I    between atoms: C_14  and  N_15 
REMARK    5  A    between atoms: N_15  and  C_16 
ROOT
HETATM    1  C   UNL     1     -42.683  57.763 -51.720  1.00  0.00     0.052 A 
HETATM    2  N   UNL     1     -42.024  57.915 -52.939  1.00  0.00    -0.228 NA
HETATM    3  C   UNL     1     -42.367  59.062 -53.479  1.00  0.00     0.174 A 
HETATM    4  S   UNL     1     -43.464  60.026 -52.607  1.00  0.00    -0.062 SA
HETATM    5  C   UNL     1     -43.513  58.823 -51.388  1.00  0.00     0.081 A 
ENDROOT
BRANCH   1   6
HETATM    6  C   UNL     1     -42.499  56.530 -50.889  1.00  0.00     0.163 C 
BRANCH   6   7
HETATM    7  C   UNL     1     -42.318  55.197 -51.602  1.00  0.00     0.227 C 
HETATM    8  N   UNL     1     -41.020  54.763 -51.774  1.00  0.00    -0.327 N 
HETATM    9  H   UNL     1     -40.294  55.449 -51.577  1.00  0.00     0.169 HD
HETATM   10  O   UNL     1     -43.325  54.563 -51.923  1.00  0.00    -0.273 OA
BRANCH   8  11
HETATM   11  C   UNL     1     -40.582  53.548 -52.342  1.00  0.00     0.036 A 
HETATM   12  C   UNL     1     -40.158  52.445 -51.603  1.00  0.00     0.053 A 
HETATM   13  C   UNL     1     -39.778  51.261 -52.249  1.00  0.00     0.042 A 
HETATM   14  C   UNL     1     -39.816  51.157 -53.647  1.00  0.00    -0.040 A 
HETATM   15 CL   UNL     1     -39.268  49.932 -51.265  1.00  0.00    -0.084 Cl
HETATM   16  C   UNL     1     -39.436  49.892 -54.363  1.00  0.00     0.050 C 
HETATM   17  C   UNL     1     -40.219  52.276 -54.384  1.00  0.00     0.011 A 
HETATM   18  C   UNL     1     -40.590  53.460 -53.738  1.00  0.00     0.030 A 
ENDBRANCH   8  11
ENDBRANCH   6   7
ENDBRANCH   1   6
BRANCH   3  19
HETATM   19  N   UNL     1     -41.946  59.604 -54.654  1.00  0.00    -0.287 N 
HETATM   20  C   UNL     1     -42.233  59.161 -55.912  1.00  0.00     0.326 C 
HETATM   21  N   UNL     1     -43.144  58.145 -56.020  1.00  0.00    -0.309 N 
HETATM   22  O   UNL     1     -41.658  59.716 -56.847  1.00  0.00    -0.247 OA
HETATM   23  H   UNL     1     -43.637  57.913 -55.164  1.00  0.00     0.170 HD
HETATM   24  H   UNL     1     -41.306  60.384 -54.611  1.00  0.00     0.172 HD
BRANCH  21  25
HETATM   25  C   UNL     1     -43.536  57.456 -57.186  1.00  0.00     0.036 A 
HETATM   26  C   UNL     1     -44.438  57.967 -58.124  1.00  0.00     0.032 A 
HETATM   27  C   UNL     1     -44.744  57.242 -59.280  1.00  0.00     0.044 A 
HETATM   28  C   UNL     1     -44.148  56.006 -59.495  1.00  0.00     0.116 A 
HETATM   29  F   UNL     1     -44.436  55.319 -60.608  1.00  0.00    -0.206 F 
HETATM   30  C   UNL     1     -43.255  55.478 -58.573  1.00  0.00     0.044 A 
HETATM   31  C   UNL     1     -42.950  56.203 -57.418  1.00  0.00     0.032 A 
ENDBRANCH  21  25
ENDBRANCH   3  19
TORSDOF 5
ENDMDL
MODEL 2
REMARK VINA RESULT:      -8.6      3.410      7.304
REMARK  5 active torsions:
REMARK  status: ('A' for Active; 'I' for Inactive)
REMARK    1  A    between atoms: C_6  and  N_7 
REMARK       I    between atoms: N_7  and  C_8 
REMARK    2  A    between atoms: C_8  and  C_9 
REMARK    3  A    between atoms: C_9  and  C_10 
REMARK    4  A    between atoms: C_12  and  N_13 
REMARK       I    between atoms: N_13  and  C_14 
REMARK       I    between atoms: C_14  and  N_15 
REMARK    5  A    between atoms: N_15  and  C_16 
ROOT
HETATM    1  C   UNL     1     -42.658  58.683 -53.612  1.00  0.00     0.052 A 
HETATM    2  N   UNL     1     -42.806  57.313 -53.399  1.00  0.00    -0.228 NA
HETATM    3  C   UNL     1     -43.510  57.116 -52.309  1.00  0.00     0.174 A 
HETATM    4  S   UNL     1     -44.041  58.500 -51.475  1.00  0.00    -0.062 SA
HETATM    5  C   UNL     1     -43.267  59.476 -52.652  1.00  0.00     0.081 A 
ENDROOT
BRANCH   1   6
HETATM    6  C   UNL     1     -41.876  59.205 -54.779  1.00  0.00     0.163 C 
BRANCH   6   7
HETATM    7  C   UNL     1     -42.291  58.773 -56.179  1.00  0.00     0.227 C 
HETATM    8  N   UNL     1     -43.125  57.677 -56.262  1.00  0.00    -0.327 N 
HETATM    9  H   UNL     1     -43.241  57.143 -55.404  1.00  0.00     0.169 HD
HETATM   10  O   UNL     1     -41.918  59.453 -57.137  1.00  0.00    -0.273 OA
BRANCH   8  11
HETATM   11  C   UNL     1     -43.699  57.113 -57.421  1.00  0.00     0.036 A 
HETATM   12  C   UNL     1     -44.814  57.634 -58.077  1.00  0.00     0.053 A 
HETATM   13  C   UNL     1     -45.295  57.034 -59.248  1.00  0.00     0.042 A 
HETATM   14  C   UNL     1     -44.670  55.901 -59.786  1.00  0.00    -0.040 A 
HETATM   15 CL   UNL     1     -46.679  57.741 -60.007  1.00  0.00    -0.084 Cl
HETATM   16  C   UNL     1     -45.152  55.251 -61.053  1.00  0.00     0.050 C 
HETATM   17  C   UNL     1     -43.567  55.367 -59.110  1.00  0.00     0.011 A 
HETATM   18  C   UNL     1     -43.093  55.963 -57.937  1.00  0.00     0.030 A 
ENDBRANCH   8  11
ENDBRANCH   6   7
ENDBRANCH   1   6
BRANCH   3  19
HETATM   19  N   UNL     1     -43.895  55.936 -51.750  1.00  0.00    -0.287 N 
HETATM   20  C   UNL     1     -43.250  54.737 -51.839  1.00  0.00     0.326 C 
HETATM   21  N   UNL     1     -42.019  54.736 -52.439  1.00  0.00    -0.309 N 
HETATM   22  O   UNL     1     -43.821  53.756 -51.366  1.00  0.00    -0.247 OA
HETATM   23  H   UNL     1     -41.630  55.654 -52.631  1.00  0.00     0.170 HD
HETATM   24  H   UNL     1     -44.778  55.911 -51.263  1.00  0.00     0.172 HD
BRANCH  21  25
HETATM   25  C   UNL     1     -41.202  53.626 -52.734  1.00  0.00     0.036 A 
HETATM   26  C   UNL     1     -40.356  53.015 -51.803  1.00  0.00     0.032 A 
HETATM   27  C   UNL     1     -39.608  51.888 -52.160  1.00  0.00     0.044 A 
HETATM   28  C   UNL     1     -39.706  51.375 -53.446  1.00  0.00     0.116 A 
HETATM   29  F   UNL     1     -38.997  50.290 -53.780  1.00  0.00    -0.206 F 
HETATM   30  C   UNL     1     -40.536  51.970 -54.387  1.00  0.00     0.044 A 
HETATM   31  C   UNL     1     -41.282  53.096 -54.030  1.00  0.00     0.032 A 
ENDBRANCH  21  25
ENDBRANCH   3  19
TORSDOF 5
ENDMDL
MODEL 3
REMARK VINA RESULT:      -8.3      3.278      5.673
REMARK  5 active torsions:
REMARK  status: ('A' for Active; 'I' for Inactive)
REMARK    1  A    between atoms: C_6  and  N_7 
REMARK       I    between atoms: N_7  and  C_8 
REMARK    2  A    between atoms: C_8  and  C_9 
REMARK    3  A    between atoms: C_9  and  C_10 
REMARK    4  A    between atoms: C_12  and  N_13 
REMARK       I    between atoms: N_13  and  C_14 
REMARK       I    between atoms: C_14  and  N_15 
REMARK    5  A    between atoms: N_15  and  C_16 
ROOT
HETATM    1  C   UNL     1     -43.421  57.343 -56.534  1.00  0.00     0.052 A 
HETATM    2  N   UNL     1     -43.397  57.495 -55.149  1.00  0.00    -0.228 NA
HETATM    3  C   UNL     1     -43.903  58.664 -54.831  1.00  0.00     0.174 A 
HETATM    4  S   UNL     1     -44.439  59.645 -56.114  1.00  0.00    -0.062 SA
HETATM    5  C   UNL     1     -43.954  58.425 -57.216  1.00  0.00     0.081 A 
ENDROOT
BRANCH   1   6
HETATM    6  C   UNL     1     -42.880  56.106 -57.187  1.00  0.00     0.163 C 
BRANCH   6   7
HETATM    7  C   UNL     1     -42.604  54.890 -56.313  1.00  0.00     0.227 C 
HETATM    8  N   UNL     1     -41.428  54.907 -55.590  1.00  0.00    -0.327 N 
HETATM    9  H   UNL     1     -40.765  55.637 -55.840  1.00  0.00     0.169 HD
HETATM   10  O   UNL     1     -43.458  54.005 -56.253  1.00  0.00    -0.273 OA
BRANCH   8  11
HETATM   11  C   UNL     1     -40.966  53.944 -54.669  1.00  0.00     0.036 A 
HETATM   12  C   UNL     1     -40.606  52.641 -55.011  1.00  0.00     0.053 A 
HETATM   13  C   UNL     1     -40.117  51.760 -54.037  1.00  0.00     0.042 A 
HETATM   14  C   UNL     1     -39.978  52.165 -52.702  1.00  0.00    -0.040 A 
HETATM   15 CL   UNL     1     -39.686  50.161 -54.538  1.00  0.00    -0.084 Cl
HETATM   16  C   UNL     1     -39.435  51.248 -51.643  1.00  0.00     0.050 C 
HETATM   17  C   UNL     1     -40.365  53.466 -52.360  1.00  0.00     0.011 A 
HETATM   18  C   UNL     1     -40.861  54.341 -53.332  1.00  0.00     0.030 A 
ENDBRANCH   8  11
ENDBRANCH   6   7
ENDBRANCH   1   6
BRANCH   3  19
HETATM   19  N   UNL     1     -44.079  59.203 -53.594  1.00  0.00    -0.287 N 
HETATM   20  C   UNL     1     -43.699  58.661 -52.401  1.00  0.00     0.326 C 
HETATM   21  N   UNL     1     -42.946  57.519 -52.449  1.00  0.00    -0.309 N 
HETATM   22  O   UNL     1     -44.055  59.246 -51.380  1.00  0.00    -0.247 OA
HETATM   23  H   UNL     1     -42.610  57.260 -53.371  1.00  0.00     0.170 HD
HETATM   24  H   UNL     1     -44.594  60.068 -53.525  1.00  0.00     0.172 HD
BRANCH  21  25
HETATM   25  C   UNL     1     -42.511  56.723 -51.370  1.00  0.00     0.036 A 
HETATM   26  C   UNL     1     -43.240  55.646 -50.856  1.00  0.00     0.032 A 
HETATM   27  C   UNL     1     -42.721  54.875 -49.811  1.00  0.00     0.044 A 
HETATM   28  C   UNL     1     -41.474  55.182 -49.281  1.00  0.00     0.116 A 
HETATM   29  F   UNL     1     -40.976  54.435 -48.288  1.00  0.00    -0.206 F 
HETATM   30  C   UNL     1     -40.737  56.250 -49.774  1.00  0.00     0.044 A 
HETATM   31  C   UNL     1     -41.257  57.021 -50.817  1.00  0.00     0.032 A 
ENDBRANCH  21  25
ENDBRANCH   3  19
TORSDOF 5
ENDMDL
MODEL 4
REMARK VINA RESULT:      -8.3      3.342      7.105
REMARK  5 active torsions:
REMARK  status: ('A' for Active; 'I' for Inactive)
REMARK    1  A    between atoms: C_6  and  N_7 
REMARK       I    between atoms: N_7  and  C_8 
REMARK    2  A    between atoms: C_8  and  C_9 
REMARK    3  A    between atoms: C_9  and  C_10 
REMARK    4  A    between atoms: C_12  and  N_13 
REMARK       I    between atoms: N_13  and  C_14 
REMARK       I    between atoms: C_14  and  N_15 
REMARK    5  A    between atoms: N_15  and  C_16 
ROOT
HETATM    1  C   UNL     1     -43.351  57.587 -51.908  1.00  0.00     0.052 A 
HETATM    2  N   UNL     1     -42.916  56.401 -51.319  1.00  0.00    -0.228 NA
HETATM    3  C   UNL     1     -41.790  56.620 -50.680  1.00  0.00     0.174 A 
HETATM    4  S   UNL     1     -41.177  58.206 -50.723  1.00  0.00    -0.062 SA
HETATM    5  C   UNL     1     -42.516  58.671 -51.685  1.00  0.00     0.081 A 
ENDROOT
BRANCH   1   6
HETATM    6  C   UNL     1     -44.606  57.631 -52.725  1.00  0.00     0.163 C 
BRANCH   6   7
HETATM    7  C   UNL     1     -44.486  57.884 -54.222  1.00  0.00     0.227 C 
HETATM    8  N   UNL     1     -43.315  57.469 -54.824  1.00  0.00    -0.327 N 
HETATM    9  H   UNL     1     -42.565  57.200 -54.192  1.00  0.00     0.169 HD
HETATM   10  O   UNL     1     -45.448  58.378 -54.812  1.00  0.00    -0.273 OA
BRANCH   8  11
HETATM   11  C   UNL     1     -42.978  57.529 -56.192  1.00  0.00     0.036 A 
HETATM   12  C   UNL     1     -43.262  56.523 -57.114  1.00  0.00     0.053 A 
HETATM   13  C   UNL     1     -42.927  56.682 -58.466  1.00  0.00     0.042 A 
HETATM   14  C   UNL     1     -42.304  57.853 -58.921  1.00  0.00    -0.040 A 
HETATM   15 CL   UNL     1     -43.316  55.393 -59.551  1.00  0.00    -0.084 Cl
HETATM   16  C   UNL     1     -41.955  58.058 -60.368  1.00  0.00     0.050 C 
HETATM   17  C   UNL     1     -41.999  58.849 -57.986  1.00  0.00     0.011 A 
HETATM   18  C   UNL     1     -42.326  58.684 -56.637  1.00  0.00     0.030 A 
ENDBRANCH   8  11
ENDBRANCH   6   7
ENDBRANCH   1   6
BRANCH   3  19
HETATM   19  N   UNL     1     -41.039  55.742 -49.962  1.00  0.00    -0.287 N 
HETATM   20  C   UNL     1     -40.543  54.544 -50.389  1.00  0.00     0.326 C 
HETATM   21  N   UNL     1     -40.701  54.244 -51.715  1.00  0.00    -0.309 N 
HETATM   22  O   UNL     1     -39.988  53.836 -49.551  1.00  0.00    -0.247 OA
HETATM   23  H   UNL     1     -41.039  55.006 -52.294  1.00  0.00     0.170 HD
HETATM   24  H   UNL     1     -40.867  55.953 -48.990  1.00  0.00     0.172 HD
BRANCH  21  25
HETATM   25  C   UNL     1     -40.364  53.045 -52.376  1.00  0.00     0.036 A 
HETATM   26  C   UNL     1     -39.740  51.962 -51.750  1.00  0.00     0.032 A 
HETATM   27  C   UNL     1     -39.479  50.787 -52.464  1.00  0.00     0.044 A 
HETATM   28  C   UNL     1     -39.842  50.699 -53.801  1.00  0.00     0.116 A 
HETATM   29  F   UNL     1     -39.600  49.569 -54.478  1.00  0.00    -0.206 F 
HETATM   30  C   UNL     1     -40.458  51.765 -54.442  1.00  0.00     0.044 A 
HETATM   31  C   UNL     1     -40.718  52.938 -53.729  1.00  0.00     0.032 A 
ENDBRANCH  21  25
ENDBRANCH   3  19
TORSDOF 5
ENDMDL
MODEL 5
REMARK VINA RESULT:      -8.1      2.051      2.241
REMARK  5 active torsions:
REMARK  status: ('A' for Active; 'I' for Inactive)
REMARK    1  A    between atoms: C_6  and  N_7 
REMARK       I    between atoms: N_7  and  C_8 
REMARK    2  A    between atoms: C_8  and  C_9 
REMARK    3  A    between atoms: C_9  and  C_10 
REMARK    4  A    between atoms: C_12  and  N_13 
REMARK       I    between atoms: N_13  and  C_14 
REMARK       I    between atoms: C_14  and  N_15 
REMARK    5  A    between atoms: N_15  and  C_16 
ROOT
HETATM    1  C   UNL     1     -43.402  57.782 -52.406  1.00  0.00     0.052 A 
HETATM    2  N   UNL     1     -44.002  57.264 -53.553  1.00  0.00    -0.228 NA
HETATM    3  C   UNL     1     -44.885  58.123 -54.007  1.00  0.00     0.174 A 
HETATM    4  S   UNL     1     -45.065  59.574 -53.137  1.00  0.00    -0.062 SA
HETATM    5  C   UNL     1     -43.869  59.033 -52.036  1.00  0.00     0.081 A 
ENDROOT
BRANCH   1   6
HETATM    6  C   UNL     1     -42.364  57.003 -51.656  1.00  0.00     0.163 C 
BRANCH   6   7
HETATM    7  C   UNL     1     -42.207  55.520 -51.968  1.00  0.00     0.227 C 
HETATM    8  N   UNL     1     -41.028  55.142 -52.577  1.00  0.00    -0.327 N 
HETATM    9  H   UNL     1     -40.449  55.901 -52.929  1.00  0.00     0.169 HD
HETATM   10  O   UNL     1     -43.097  54.748 -51.609  1.00  0.00    -0.273 OA
BRANCH   8  11
HETATM   11  C   UNL     1     -40.609  53.838 -52.915  1.00  0.00     0.036 A 
HETATM   12  C   UNL     1     -40.216  52.875 -51.987  1.00  0.00     0.053 A 
HETATM   13  C   UNL     1     -39.853  51.589 -52.407  1.00  0.00     0.042 A 
HETATM   14  C   UNL     1     -39.877  51.241 -53.765  1.00  0.00    -0.040 A 
HETATM   15 CL   UNL     1     -39.382  50.446 -51.197  1.00  0.00    -0.084 Cl
HETATM   16  C   UNL     1     -39.515  49.862 -54.241  1.00  0.00     0.050 C 
HETATM   17  C   UNL     1     -40.248  52.219 -54.695  1.00  0.00     0.011 A 
HETATM   18  C   UNL     1     -40.602  53.505 -54.274  1.00  0.00     0.030 A 
ENDBRANCH   8  11
ENDBRANCH   6   7
ENDBRANCH   1   6
BRANCH   3  19
HETATM   19  N   UNL     1     -45.680  58.020 -55.107  1.00  0.00    -0.287 N 
HETATM   20  C   UNL     1     -45.300  58.164 -56.410  1.00  0.00     0.326 C 
HETATM   21  N   UNL     1     -43.960  58.296 -56.655  1.00  0.00    -0.309 N 
HETATM   22  O   UNL     1     -46.190  58.154 -57.258  1.00  0.00    -0.247 OA
HETATM   23  H   UNL     1     -43.355  58.125 -55.859  1.00  0.00     0.170 HD
HETATM   24  H   UNL     1     -46.669  57.878 -54.963  1.00  0.00     0.172 HD
BRANCH  21  25
HETATM   25  C   UNL     1     -43.328  58.549 -57.889  1.00  0.00     0.036 A 
HETATM   26  C   UNL     1     -43.090  59.832 -58.392  1.00  0.00     0.032 A 
HETATM   27  C   UNL     1     -42.416  60.002 -59.606  1.00  0.00     0.044 A 
HETATM   28  C   UNL     1     -41.981  58.890 -60.314  1.00  0.00     0.116 A 
HETATM   29  F   UNL     1     -41.326  59.058 -61.470  1.00  0.00    -0.206 F 
HETATM   30  C   UNL     1     -42.211  57.608 -59.835  1.00  0.00     0.044 A 
HETATM   31  C   UNL     1     -42.885  57.438 -58.623  1.00  0.00     0.032 A 
ENDBRANCH  21  25
ENDBRANCH   3  19
TORSDOF 5
ENDMDL
MODEL 6
REMARK VINA RESULT:      -8.0      3.543      5.889
REMARK  5 active torsions:
REMARK  status: ('A' for Active; 'I' for Inactive)
REMARK    1  A    between atoms: C_6  and  N_7 
REMARK       I    between atoms: N_7  and  C_8 
REMARK    2  A    between atoms: C_8  and  C_9 
REMARK    3  A    between atoms: C_9  and  C_10 
REMARK    4  A    between atoms: C_12  and  N_13 
REMARK       I    between atoms: N_13  and  C_14 
REMARK       I    between atoms: C_14  and  N_15 
REMARK    5  A    between atoms: N_15  and  C_16 
ROOT
HETATM    1  C   UNL     1     -42.796  57.294 -57.873  1.00  0.00     0.052 A 
HETATM    2  N   UNL     1     -43.197  58.136 -56.837  1.00  0.00    -0.228 NA
HETATM    3  C   UNL     1     -42.741  59.347 -57.059  1.00  0.00     0.174 A 
HETATM    4  S   UNL     1     -41.831  59.578 -58.477  1.00  0.00    -0.062 SA
HETATM    5  C   UNL     1     -42.038  57.918 -58.851  1.00  0.00     0.081 A 
ENDROOT
BRANCH   1   6
HETATM    6  C   UNL     1     -43.155  55.839 -57.872  1.00  0.00     0.163 C 
BRANCH   6   7
HETATM    7  C   UNL     1     -42.834  55.016 -56.631  1.00  0.00     0.227 C 
HETATM    8  N   UNL     1     -41.808  55.481 -55.834  1.00  0.00    -0.327 N 
HETATM    9  H   UNL     1     -41.237  56.222 -56.234  1.00  0.00     0.169 HD
HETATM   10  O   UNL     1     -43.537  54.036 -56.380  1.00  0.00    -0.273 OA
BRANCH   8  11
HETATM   11  C   UNL     1     -41.354  54.946 -54.610  1.00  0.00     0.036 A 
HETATM   12  C   UNL     1     -41.505  55.575 -53.375  1.00  0.00     0.053 A 
HETATM   13  C   UNL     1     -41.060  54.953 -52.201  1.00  0.00     0.042 A 
HETATM   14  C   UNL     1     -40.457  53.688 -52.239  1.00  0.00    -0.040 A 
HETATM   15 CL   UNL     1     -41.287  55.794 -50.706  1.00  0.00    -0.084 Cl
HETATM   16  C   UNL     1     -39.991  52.989 -50.993  1.00  0.00     0.050 C 
HETATM   17  C   UNL     1     -40.285  53.072 -53.484  1.00  0.00     0.011 A 
HETATM   18  C   UNL     1     -40.722  53.699 -54.656  1.00  0.00     0.030 A 
ENDBRANCH   8  11
ENDBRANCH   6   7
ENDBRANCH   1   6
BRANCH   3  19
HETATM   19  N   UNL     1     -42.914  60.468 -56.308  1.00  0.00    -0.287 N 
HETATM   20  C   UNL     1     -42.595  60.630 -54.991  1.00  0.00     0.326 C 
HETATM   21  N   UNL     1     -41.911  59.610 -54.387  1.00  0.00    -0.309 N 
HETATM   22  O   UNL     1     -42.939  61.683 -54.456  1.00  0.00    -0.247 OA
HETATM   23  H   UNL     1     -41.570  58.887 -55.012  1.00  0.00     0.170 HD
HETATM   24  H   UNL     1     -43.377  61.256 -56.736  1.00  0.00     0.172 HD
BRANCH  21  25
HETATM   25  C   UNL     1     -41.551  59.495 -53.029  1.00  0.00     0.036 A 
HETATM   26  C   UNL     1     -40.278  59.116 -52.592  1.00  0.00     0.032 A 
HETATM   27  C   UNL     1     -39.984  59.068 -51.225  1.00  0.00     0.044 A 
HETATM   28  C   UNL     1     -40.964  59.400 -50.298  1.00  0.00     0.116 A 
HETATM   29  F   UNL     1     -40.675  59.363 -48.991  1.00  0.00    -0.206 F 
HETATM   30  C   UNL     1     -42.235  59.774 -50.711  1.00  0.00     0.044 A 
HETATM   31  C   UNL     1     -42.528  59.821 -52.076  1.00  0.00     0.032 A 
ENDBRANCH  21  25
ENDBRANCH   3  19
TORSDOF 5
ENDMDL
MODEL 7
REMARK VINA RESULT:      -8.0      1.669      2.333
REMARK  5 active torsions:
REMARK  status: ('A' for Active; 'I' for Inactive)
REMARK    1  A    between atoms: C_6  and  N_7 
REMARK       I    between atoms: N_7  and  C_8 
REMARK    2  A    between atoms: C_8  and  C_9 
REMARK    3  A    between atoms: C_9  and  C_10 
REMARK    4  A    between atoms: C_12  and  N_13 
REMARK       I    between atoms: N_13  and  C_14 
REMARK       I    between atoms: C_14  and  N_15 
REMARK    5  A    between atoms: N_15  and  C_16 
ROOT
HETATM    1  C   UNL     1     -43.259  59.966 -52.259  1.00  0.00     0.052 A 
HETATM    2  N   UNL     1     -42.626  59.612 -53.450  1.00  0.00    -0.228 NA
HETATM    3  C   UNL     1     -42.552  60.663 -54.233  1.00  0.00     0.174 A 
HETATM    4  S   UNL     1     -43.205  62.115 -53.635  1.00  0.00    -0.062 SA
HETATM    5  C   UNL     1     -43.644  61.296 -52.195  1.00  0.00     0.081 A 
ENDROOT
BRANCH   1   6
HETATM    6  C   UNL     1     -43.502  58.955 -51.181  1.00  0.00     0.163 C 
BRANCH   6   7
HETATM    7  C   UNL     1     -43.250  57.486 -51.496  1.00  0.00     0.227 C 
HETATM    8  N   UNL     1     -41.935  57.119 -51.702  1.00  0.00    -0.327 N 
HETATM    9  H   UNL     1     -41.273  57.884 -51.807  1.00  0.00     0.169 HD
HETATM   10  O   UNL     1     -44.208  56.712 -51.487  1.00  0.00    -0.273 OA
BRANCH   8  11
HETATM   11  C   UNL     1     -41.428  55.826 -51.947  1.00  0.00     0.036 A 
HETATM   12  C   UNL     1     -41.187  55.306 -53.218  1.00  0.00     0.053 A 
HETATM   13  C   UNL     1     -40.642  54.024 -53.371  1.00  0.00     0.042 A 
HETATM   14  C   UNL     1     -40.326  53.238 -52.254  1.00  0.00    -0.040 A 
HETATM   15 CL   UNL     1     -40.366  53.450 -54.979  1.00  0.00    -0.084 Cl
HETATM   16  C   UNL     1     -39.719  51.869 -52.389  1.00  0.00     0.050 C 
HETATM   17  C   UNL     1     -40.593  53.755 -50.981  1.00  0.00     0.011 A 
HETATM   18  C   UNL     1     -41.145  55.031 -50.831  1.00  0.00     0.030 A 
ENDBRANCH   8  11
ENDBRANCH   6   7
ENDBRANCH   1   6
BRANCH   3  19
HETATM   19  N   UNL     1     -42.001  60.758 -55.473  1.00  0.00    -0.287 N 
HETATM   20  C   UNL     1     -42.159  59.886 -56.511  1.00  0.00     0.326 C 
HETATM   21  N   UNL     1     -43.067  58.876 -56.341  1.00  0.00    -0.309 N 
HETATM   22  O   UNL     1     -41.480  60.082 -57.517  1.00  0.00    -0.247 OA
HETATM   23  H   UNL     1     -43.652  58.954 -55.515  1.00  0.00     0.170 HD
HETATM   24  H   UNL     1     -41.358  61.517 -55.647  1.00  0.00     0.172 HD
BRANCH  21  25
HETATM   25  C   UNL     1     -43.344  57.805 -57.215  1.00  0.00     0.036 A 
HETATM   26  C   UNL     1     -44.114  57.929 -58.375  1.00  0.00     0.032 A 
HETATM   27  C   UNL     1     -44.306  56.828 -59.217  1.00  0.00     0.044 A 
HETATM   28  C   UNL     1     -43.729  55.606 -58.896  1.00  0.00     0.116 A 
HETATM   29  F   UNL     1     -43.907  54.558 -59.710  1.00  0.00    -0.206 F 
HETATM   30  C   UNL     1     -42.965  55.462 -57.747  1.00  0.00     0.044 A 
HETATM   31  C   UNL     1     -42.773  56.561 -56.906  1.00  0.00     0.032 A 
ENDBRANCH  21  25
ENDBRANCH   3  19
TORSDOF 5
ENDMDL
MODEL 8
REMARK VINA RESULT:      -8.0      3.401      5.711
REMARK  5 active torsions:
REMARK  status: ('A' for Active; 'I' for Inactive)
REMARK    1  A    between atoms: C_6  and  N_7 
REMARK       I    between atoms: N_7  and  C_8 
REMARK    2  A    between atoms: C_8  and  C_9 
REMARK    3  A    between atoms: C_9  and  C_10 
REMARK    4  A    between atoms: C_12  and  N_13 
REMARK       I    between atoms: N_13  and  C_14 
REMARK       I    between atoms: C_14  and  N_15 
REMARK    5  A    between atoms: N_15  and  C_16 
ROOT
HETATM    1  C   UNL     1     -43.887  57.173 -57.302  1.00  0.00     0.052 A 
HETATM    2  N   UNL     1     -44.185  57.572 -56.000  1.00  0.00    -0.228 NA
HETATM    3  C   UNL     1     -45.078  58.533 -56.033  1.00  0.00     0.174 A 
HETATM    4  S   UNL     1     -45.624  59.024 -57.568  1.00  0.00    -0.062 SA
HETATM    5  C   UNL     1     -44.581  57.866 -58.282  1.00  0.00     0.081 A 
ENDROOT
BRANCH   1   6
HETATM    6  C   UNL     1     -42.876  56.100 -57.572  1.00  0.00     0.163 C 
BRANCH   6   7
HETATM    7  C   UNL     1     -42.660  55.028 -56.512  1.00  0.00     0.227 C 
HETATM    8  N   UNL     1     -41.495  55.117 -55.776  1.00  0.00    -0.327 N 
HETATM    9  H   UNL     1     -40.801  55.774 -56.124  1.00  0.00     0.169 HD
HETATM   10  O   UNL     1     -43.549  54.195 -56.331  1.00  0.00    -0.273 OA
BRANCH   8  11
HETATM   11  C   UNL     1     -41.085  54.295 -54.705  1.00  0.00     0.036 A 
HETATM   12  C   UNL     1     -40.554  53.015 -54.858  1.00  0.00     0.053 A 
HETATM   13  C   UNL     1     -40.133  52.283 -53.740  1.00  0.00     0.042 A 
HETATM   14  C   UNL     1     -40.234  52.817 -52.448  1.00  0.00    -0.040 A 
HETATM   15 CL   UNL     1     -39.480  50.703 -54.009  1.00  0.00    -0.084 Cl
HETATM   16  C   UNL     1     -39.769  52.062 -51.234  1.00  0.00     0.050 C 
HETATM   17  C   UNL     1     -40.791  54.093 -52.298  1.00  0.00     0.011 A 
HETATM   18  C   UNL     1     -41.219  54.819 -53.415  1.00  0.00     0.030 A 
ENDBRANCH   8  11
ENDBRANCH   6   7
ENDBRANCH   1   6
BRANCH   3  19
HETATM   19  N   UNL     1     -45.652  59.193 -54.991  1.00  0.00    -0.287 N 
HETATM   20  C   UNL     1     -45.073  59.497 -53.793  1.00  0.00     0.326 C 
HETATM   21  N   UNL     1     -43.736  59.231 -53.664  1.00  0.00    -0.309 N 
HETATM   22  O   UNL     1     -45.795  59.992 -52.930  1.00  0.00    -0.247 OA
HETATM   23  H   UNL     1     -43.262  58.970 -54.523  1.00  0.00     0.170 HD
HETATM   24  H   UNL     1     -46.627  59.443 -55.070  1.00  0.00     0.172 HD
BRANCH  21  25
HETATM   25  C   UNL     1     -42.935  59.365 -52.512  1.00  0.00     0.036 A 
HETATM   26  C   UNL     1     -42.854  60.537 -51.755  1.00  0.00     0.032 A 
HETATM   27  C   UNL     1     -42.070  60.578 -50.597  1.00  0.00     0.044 A 
HETATM   28  C   UNL     1     -41.368  59.447 -50.199  1.00  0.00     0.116 A 
HETATM   29  F   UNL     1     -40.628  59.487 -49.084  1.00  0.00    -0.206 F 
HETATM   30  C   UNL     1     -41.432  58.275 -50.941  1.00  0.00     0.044 A 
HETATM   31  C   UNL     1     -42.214  58.235 -52.097  1.00  0.00     0.032 A 
ENDBRANCH  21  25
ENDBRANCH   3  19
TORSDOF 5
ENDMDL
MODEL 9
REMARK VINA RESULT:      -7.9      3.002      4.131
REMARK  5 active torsions:
REMARK  status: ('A' for Active; 'I' for Inactive)
REMARK    1  A    between atoms: C_6  and  N_7 
REMARK       I    between atoms: N_7  and  C_8 
REMARK    2  A    between atoms: C_8  and  C_9 
REMARK    3  A    between atoms: C_9  and  C_10 
REMARK    4  A    between atoms: C_12  and  N_13 
REMARK       I    between atoms: N_13  and  C_14 
REMARK       I    between atoms: C_14  and  N_15 
REMARK    5  A    between atoms: N_15  and  C_16 
ROOT
HETATM    1  C   UNL     1     -43.041  59.949 -52.142  1.00  0.00     0.052 A 
HETATM    2  N   UNL     1     -42.755  59.095 -53.205  1.00  0.00    -0.228 NA
HETATM    3  C   UNL     1     -43.608  59.312 -54.179  1.00  0.00     0.174 A 
HETATM    4  S   UNL     1     -44.781  60.516 -53.920  1.00  0.00    -0.062 SA
HETATM    5  C   UNL     1     -44.121  60.790 -52.363  1.00  0.00     0.081 A 
ENDROOT
BRANCH   1   6
HETATM    6  C   UNL     1     -42.239  59.907 -50.877  1.00  0.00     0.163 C 
BRANCH   6   7
HETATM    7  C   UNL     1     -41.453  58.641 -50.561  1.00  0.00     0.227 C 
HETATM    8  N   UNL     1     -42.163  57.458 -50.577  1.00  0.00    -0.327 N 
HETATM    9  H   UNL     1     -43.175  57.549 -50.615  1.00  0.00     0.169 HD
HETATM   10  O   UNL     1     -40.239  58.736 -50.375  1.00  0.00    -0.273 OA
BRANCH   8  11
HETATM   11  C   UNL     1     -41.668  56.151 -50.380  1.00  0.00     0.036 A 
HETATM   12  C   UNL     1     -41.215  55.660 -49.157  1.00  0.00     0.053 A 
HETATM   13  C   UNL     1     -40.778  54.334 -49.041  1.00  0.00     0.042 A 
HETATM   14  C   UNL     1     -40.787  53.473 -50.148  1.00  0.00    -0.040 A 
HETATM   15 CL   UNL     1     -40.235  53.795 -47.490  1.00  0.00    -0.084 Cl
HETATM   16  C   UNL     1     -40.344  52.040 -50.046  1.00  0.00     0.050 C 
HETATM   17  C   UNL     1     -41.219  53.978 -51.379  1.00  0.00     0.011 A 
HETATM   18  C   UNL     1     -41.647  55.305 -51.494  1.00  0.00     0.030 A 
ENDBRANCH   8  11
ENDBRANCH   6   7
ENDBRANCH   1   6
BRANCH   3  19
HETATM   19  N   UNL     1     -43.675  58.709 -55.397  1.00  0.00    -0.287 N 
HETATM   20  C   UNL     1     -43.157  57.493 -55.740  1.00  0.00     0.326 C 
HETATM   21  N   UNL     1     -42.627  56.736 -54.731  1.00  0.00    -0.309 N 
HETATM   22  O   UNL     1     -43.216  57.173 -56.926  1.00  0.00    -0.247 OA
HETATM   23  H   UNL     1     -42.802  57.082 -53.793  1.00  0.00     0.170 HD
HETATM   24  H   UNL     1     -44.098  59.222 -56.156  1.00  0.00     0.172 HD
BRANCH  21  25
HETATM   25  C   UNL     1     -41.956  55.501 -54.837  1.00  0.00     0.036 A 
HETATM   26  C   UNL     1     -40.567  55.378 -54.938  1.00  0.00     0.032 A 
HETATM   27  C   UNL     1     -39.971  54.114 -54.994  1.00  0.00     0.044 A 
HETATM   28  C   UNL     1     -40.765  52.976 -54.950  1.00  0.00     0.116 A 
HETATM   29  F   UNL     1     -40.189  51.767 -54.994  1.00  0.00    -0.206 F 
HETATM   30  C   UNL     1     -42.146  53.076 -54.856  1.00  0.00     0.044 A 
HETATM   31  C   UNL     1     -42.741  54.339 -54.800  1.00  0.00     0.032 A 
ENDBRANCH  21  25
ENDBRANCH   3  19
TORSDOF 5
ENDMDL
MODEL 10
REMARK VINA RESULT:      -7.8      1.646      2.057
REMARK  5 active torsions:
REMARK  status: ('A' for Active; 'I' for Inactive)
REMARK    1  A    between atoms: C_6  and  N_7 
REMARK       I    between atoms: N_7  and  C_8 
REMARK    2  A    between atoms: C_8  and  C_9 
REMARK    3  A    between atoms: C_9  and  C_10 
REMARK    4  A    between atoms: C_12  and  N_13 
REMARK       I    between atoms: N_13  and  C_14 
REMARK       I    between atoms: C_14  and  N_15 
REMARK    5  A    between atoms: N_15  and  C_16 
ROOT
HETATM    1  C   UNL     1     -42.982  58.659 -53.454  1.00  0.00     0.052 A 
HETATM    2  N   UNL     1     -44.144  58.772 -54.216  1.00  0.00    -0.228 NA
HETATM    3  C   UNL     1     -43.955  59.655 -55.169  1.00  0.00     0.174 A 
HETATM    4  S   UNL     1     -42.426  60.397 -55.237  1.00  0.00    -0.062 SA
HETATM    5  C   UNL     1     -41.946  59.480 -53.871  1.00  0.00     0.081 A 
ENDROOT
BRANCH   1   6
HETATM    6  C   UNL     1     -42.916  57.735 -52.276  1.00  0.00     0.163 C 
BRANCH   6   7
HETATM    7  C   UNL     1     -42.680  56.252 -52.533  1.00  0.00     0.227 C 
HETATM    8  N   UNL     1     -41.387  55.880 -52.840  1.00  0.00    -0.327 N 
HETATM    9  H   UNL     1     -40.745  56.641 -53.049  1.00  0.00     0.169 HD
HETATM   10  O   UNL     1     -43.625  55.475 -52.391  1.00  0.00    -0.273 OA
BRANCH   8  11
HETATM   11  C   UNL     1     -40.892  54.577 -53.061  1.00  0.00     0.036 A 
HETATM   12  C   UNL     1     -40.595  53.669 -52.046  1.00  0.00     0.053 A 
HETATM   13  C   UNL     1     -40.145  52.379 -52.356  1.00  0.00     0.042 A 
HETATM   14  C   UNL     1     -39.985  51.971 -53.688  1.00  0.00    -0.040 A 
HETATM   15 CL   UNL     1     -39.802  51.306 -51.043  1.00  0.00    -0.084 Cl
HETATM   16  C   UNL     1     -39.526  50.586 -54.048  1.00  0.00     0.050 C 
HETATM   17  C   UNL     1     -40.260  52.896 -54.702  1.00  0.00     0.011 A 
HETATM   18  C   UNL     1     -40.701  54.186 -54.390  1.00  0.00     0.030 A 
ENDBRANCH   8  11
ENDBRANCH   6   7
ENDBRANCH   1   6
BRANCH   3  19
HETATM   19  N   UNL     1     -44.822  60.054 -56.138  1.00  0.00    -0.287 N 
HETATM   20  C   UNL     1     -45.159  59.370 -57.270  1.00  0.00     0.326 C 
HETATM   21  N   UNL     1     -44.682  58.093 -57.390  1.00  0.00    -0.309 N 
HETATM   22  O   UNL     1     -45.871  59.953 -58.086  1.00  0.00    -0.247 OA
HETATM   23  H   UNL     1     -44.244  57.714 -56.556  1.00  0.00     0.170 HD
HETATM   24  H   UNL     1     -45.226  60.976 -56.059  1.00  0.00     0.172 HD
BRANCH  21  25
HETATM   25  C   UNL     1     -44.810  57.222 -58.491  1.00  0.00     0.036 A 
HETATM   26  C   UNL     1     -45.991  57.059 -59.220  1.00  0.00     0.032 A 
HETATM   27  C   UNL     1     -46.026  56.208 -60.330  1.00  0.00     0.044 A 
HETATM   28  C   UNL     1     -44.880  55.521 -60.707  1.00  0.00     0.116 A 
HETATM   29  F   UNL     1     -44.915  54.716 -61.777  1.00  0.00    -0.206 F 
HETATM   30  C   UNL     1     -43.698  55.665 -59.994  1.00  0.00     0.044 A 
HETATM   31  C   UNL     1     -43.664  56.515 -58.885  1.00  0.00     0.032 A 
ENDBRANCH  21  25
ENDBRANCH   3  19
TORSDOF 5
ENDMDL
