MODEL 1
REMARK VINA RESULT:      -8.4      0.000      0.000
REMARK  5 active torsions:
REMARK  status: ('A' for Active; 'I' for Inactive)
REMARK    1  A    between atoms: C_9  and  N_10 
REMARK       I    between atoms: N_10  and  C_11 
REMARK    2  A    between atoms: C_11  and  C_12 
REMARK    3  A    between atoms: C_14  and  C_15 
REMARK    4  A    between atoms: C_15  and  O_16 
REMARK    5  A    between atoms: O_16  and  C_17 
ROOT
HETATM    1  N   UNL     1     -42.103  56.055 -54.590  1.00  0.00    -0.321 N 
HETATM    2  C   UNL     1     -42.791  56.363 -53.423  1.00  0.00     0.279 C 
HETATM    3  O   UNL     1     -43.896  56.896 -53.387  1.00  0.00    -0.265 OA
HETATM    4  H   UNL     1     -41.143  55.762 -54.478  1.00  0.00     0.169 HD
ENDROOT
BRANCH   2   5
HETATM    5  C   UNL     1     -42.047  56.042 -52.214  1.00  0.00     0.143 A 
HETATM    6  O   UNL     1     -41.722  54.731 -51.996  1.00  0.00    -0.307 OA
HETATM    7  C   UNL     1     -41.057  54.654 -50.809  1.00  0.00     0.078 A 
HETATM    8  C   UNL     1     -40.931  55.913 -50.261  1.00  0.00     0.038 A 
HETATM    9  C   UNL     1     -41.570  56.805 -51.160  1.00  0.00     0.045 A 
BRANCH   7  10
HETATM   10  C   UNL     1     -40.653  53.295 -50.366  1.00  0.00     0.240 C 
BRANCH  10  11
HETATM   11  O   UNL     1     -39.494  52.938 -51.116  1.00  0.00    -0.345 OA
BRANCH  11  12
HETATM   12  C   UNL     1     -39.627  51.865 -51.957  1.00  0.00     0.069 A 
HETATM   13  C   UNL     1     -39.468  50.523 -51.604  1.00  0.00     0.037 A 
HETATM   14  C   UNL     1     -39.632  49.521 -52.564  1.00  0.00     0.003 A 
HETATM   15  C   UNL     1     -39.951  49.854 -53.880  1.00  0.00     0.000 A 
HETATM   16  C   UNL     1     -40.102  51.191 -54.238  1.00  0.00     0.003 A 
HETATM   17  C   UNL     1     -39.936  52.192 -53.279  1.00  0.00     0.037 A 
ENDBRANCH  11  12
ENDBRANCH  10  11
ENDBRANCH   7  10
ENDBRANCH   2   5
BRANCH   1  18
HETATM   18  C   UNL     1     -42.538  56.249 -55.921  1.00  0.00     0.037 A 
HETATM   19  C   UNL     1     -43.092  55.236 -56.714  1.00  0.00     0.063 A 
HETATM   20  C   UNL     1     -43.500  55.538 -58.024  1.00  0.00     0.087 A 
HETATM   21  N   UNL     1     -44.058  54.726 -58.980  1.00  0.00    -0.234 NA
HETATM   22  C   UNL     1     -43.350  56.833 -58.505  1.00  0.00     0.062 A 
HETATM   23  C   UNL     1     -44.262  55.493 -60.029  1.00  0.00     0.101 A 
HETATM   24  C   UNL     1     -44.855  55.087 -61.324  1.00  0.00     0.091 C 
HETATM   25  N   UNL     1     -43.851  56.780 -59.780  1.00  0.00    -0.343 N 
HETATM   26  H   UNL     1     -43.907  57.552 -60.427  1.00  0.00     0.167 HD
HETATM   27  C   UNL     1     -42.796  57.867 -57.752  1.00  0.00     0.034 A 
HETATM   28  C   UNL     1     -42.386  57.542 -56.451  1.00  0.00     0.032 A 
ENDBRANCH   1  18
TORSDOF 5
ENDMDL
MODEL 2
REMARK VINA RESULT:      -8.1      1.356      1.916
REMARK  5 active torsions:
REMARK  status: ('A' for Active; 'I' for Inactive)
REMARK    1  A    between atoms: C_9  and  N_10 
REMARK       I    between atoms: N_10  and  C_11 
REMARK    2  A    between atoms: C_11  and  C_12 
REMARK    3  A    between atoms: C_14  and  C_15 
REMARK    4  A    between atoms: C_15  and  O_16 
REMARK    5  A    between atoms: O_16  and  C_17 
ROOT
HETATM    1  N   UNL     1     -42.704  56.142 -53.272  1.00  0.00    -0.321 N 
HETATM    2  C   UNL     1     -41.909  56.850 -52.380  1.00  0.00     0.279 C 
HETATM    3  O   UNL     1     -41.522  58.001 -52.555  1.00  0.00    -0.265 OA
HETATM    4  H   UNL     1     -42.821  55.157 -53.081  1.00  0.00     0.169 HD
ENDROOT
BRANCH   2   5
HETATM    5  C   UNL     1     -41.516  56.071 -51.214  1.00  0.00     0.143 A 
HETATM    6  O   UNL     1     -41.204  54.752 -51.406  1.00  0.00    -0.307 OA
HETATM    7  C   UNL     1     -40.892  54.213 -50.194  1.00  0.00     0.078 A 
HETATM    8  C   UNL     1     -40.982  55.180 -49.215  1.00  0.00     0.038 A 
HETATM    9  C   UNL     1     -41.386  56.372 -49.868  1.00  0.00     0.045 A 
BRANCH   7  10
HETATM   10  C   UNL     1     -40.565  52.764 -50.182  1.00  0.00     0.240 C 
BRANCH  10  11
HETATM   11  O   UNL     1     -39.456  52.578 -51.058  1.00  0.00    -0.345 OA
BRANCH  11  12
HETATM   12  C   UNL     1     -39.674  51.773 -52.144  1.00  0.00     0.069 A 
HETATM   13  C   UNL     1     -40.108  52.194 -53.403  1.00  0.00     0.037 A 
HETATM   14  C   UNL     1     -40.292  51.264 -54.430  1.00  0.00     0.003 A 
HETATM   15  C   UNL     1     -40.046  49.910 -54.204  1.00  0.00     0.000 A 
HETATM   16  C   UNL     1     -39.621  49.485 -52.948  1.00  0.00     0.003 A 
HETATM   17  C   UNL     1     -39.439  50.414 -51.922  1.00  0.00     0.037 A 
ENDBRANCH  11  12
ENDBRANCH  10  11
ENDBRANCH   7  10
ENDBRANCH   2   5
BRANCH   1  18
HETATM   18  C   UNL     1     -43.241  56.601 -54.495  1.00  0.00     0.037 A 
HETATM   19  C   UNL     1     -42.675  56.320 -55.746  1.00  0.00     0.063 A 
HETATM   20  C   UNL     1     -43.296  56.819 -56.904  1.00  0.00     0.087 A 
HETATM   21  N   UNL     1     -42.934  56.684 -58.223  1.00  0.00    -0.234 NA
HETATM   22  C   UNL     1     -44.455  57.575 -56.787  1.00  0.00     0.062 A 
HETATM   23  C   UNL     1     -43.848  57.330 -58.913  1.00  0.00     0.101 A 
HETATM   24  C   UNL     1     -43.911  57.473 -60.386  1.00  0.00     0.091 C 
HETATM   25  N   UNL     1     -44.792  57.880 -58.082  1.00  0.00    -0.343 N 
HETATM   26  H   UNL     1     -45.593  58.418 -58.374  1.00  0.00     0.167 HD
HETATM   27  C   UNL     1     -45.044  57.884 -55.563  1.00  0.00     0.034 A 
HETATM   28  C   UNL     1     -44.405  57.384 -54.419  1.00  0.00     0.032 A 
ENDBRANCH   1  18
TORSDOF 5
ENDMDL
MODEL 3
REMARK VINA RESULT:      -8.1      1.096      2.027
REMARK  5 active torsions:
REMARK  status: ('A' for Active; 'I' for Inactive)
REMARK    1  A    between atoms: C_9  and  N_10 
REMARK       I    between atoms: N_10  and  C_11 
REMARK    2  A    between atoms: C_11  and  C_12 
REMARK    3  A    between atoms: C_14  and  C_15 
REMARK    4  A    between atoms: C_15  and  O_16 
REMARK    5  A    between atoms: O_16  and  C_17 
ROOT
HETATM    1  N   UNL     1     -42.173  56.379 -54.628  1.00  0.00    -0.321 N 
HETATM    2  C   UNL     1     -42.982  56.502 -53.506  1.00  0.00     0.279 C 
HETATM    3  O   UNL     1     -44.138  56.915 -53.524  1.00  0.00    -0.265 OA
HETATM    4  H   UNL     1     -41.199  56.175 -54.455  1.00  0.00     0.169 HD
ENDROOT
BRANCH   2   5
HETATM    5  C   UNL     1     -42.308  56.144 -52.267  1.00  0.00     0.143 A 
HETATM    6  O   UNL     1     -41.913  54.843 -52.110  1.00  0.00    -0.307 OA
HETATM    7  C   UNL     1     -41.332  54.725 -50.884  1.00  0.00     0.078 A 
HETATM    8  C   UNL     1     -41.330  55.948 -50.246  1.00  0.00     0.038 A 
HETATM    9  C   UNL     1     -41.960  56.859 -51.131  1.00  0.00     0.045 A 
BRANCH   7  10
HETATM   10  C   UNL     1     -40.871  53.365 -50.500  1.00  0.00     0.240 C 
BRANCH  10  11
HETATM   11  O   UNL     1     -39.693  53.095 -51.256  1.00  0.00    -0.345 OA
BRANCH  11  12
HETATM   12  C   UNL     1     -39.785  52.085 -52.176  1.00  0.00     0.069 A 
HETATM   13  C   UNL     1     -40.117  52.232 -53.524  1.00  0.00     0.037 A 
HETATM   14  C   UNL     1     -40.176  51.113 -54.360  1.00  0.00     0.003 A 
HETATM   15  C   UNL     1     -39.907  49.843 -53.852  1.00  0.00     0.000 A 
HETATM   16  C   UNL     1     -39.583  49.690 -52.506  1.00  0.00     0.003 A 
HETATM   17  C   UNL     1     -39.526  50.808 -51.672  1.00  0.00     0.037 A 
ENDBRANCH  11  12
ENDBRANCH  10  11
ENDBRANCH   7  10
ENDBRANCH   2   5
BRANCH   1  18
HETATM   18  C   UNL     1     -42.517  56.655 -55.970  1.00  0.00     0.037 A 
HETATM   19  C   UNL     1     -42.511  57.941 -56.526  1.00  0.00     0.063 A 
HETATM   20  C   UNL     1     -42.863  58.105 -57.876  1.00  0.00     0.087 A 
HETATM   21  N   UNL     1     -42.935  59.249 -58.634  1.00  0.00    -0.234 NA
HETATM   22  C   UNL     1     -43.204  56.991 -58.633  1.00  0.00     0.062 A 
HETATM   23  C   UNL     1     -43.302  58.860 -59.835  1.00  0.00     0.101 A 
HETATM   24  C   UNL     1     -43.513  59.723 -61.020  1.00  0.00     0.091 C 
HETATM   25  N   UNL     1     -43.470  57.498 -59.880  1.00  0.00    -0.343 N 
HETATM   26  H   UNL     1     -43.744  56.965 -60.690  1.00  0.00     0.167 HD
HETATM   27  C   UNL     1     -43.230  55.697 -58.118  1.00  0.00     0.034 A 
HETATM   28  C   UNL     1     -42.885  55.556 -56.766  1.00  0.00     0.032 A 
ENDBRANCH   1  18
TORSDOF 5
ENDMDL
MODEL 4
REMARK VINA RESULT:      -7.9      2.173      3.261
REMARK  5 active torsions:
REMARK  status: ('A' for Active; 'I' for Inactive)
REMARK    1  A    between atoms: C_9  and  N_10 
REMARK       I    between atoms: N_10  and  C_11 
REMARK    2  A    between atoms: C_11  and  C_12 
REMARK    3  A    between atoms: C_14  and  C_15 
REMARK    4  A    between atoms: C_15  and  O_16 
REMARK    5  A    between atoms: O_16  and  C_17 
ROOT
HETATM    1  N   UNL     1     -43.424  57.082 -56.704  1.00  0.00    -0.321 N 
HETATM    2  C   UNL     1     -42.504  58.104 -56.510  1.00  0.00     0.279 C 
HETATM    3  O   UNL     1     -42.114  58.865 -57.391  1.00  0.00    -0.265 OA
HETATM    4  H   UNL     1     -43.541  56.435 -55.937  1.00  0.00     0.169 HD
ENDROOT
BRANCH   2   5
HETATM    5  C   UNL     1     -41.985  58.162 -55.152  1.00  0.00     0.143 A 
HETATM    6  O   UNL     1     -41.901  56.989 -54.452  1.00  0.00    -0.307 OA
HETATM    7  C   UNL     1     -41.418  57.274 -53.210  1.00  0.00     0.078 A 
HETATM    8  C   UNL     1     -41.170  58.626 -53.103  1.00  0.00     0.038 A 
HETATM    9  C   UNL     1     -41.538  59.199 -54.348  1.00  0.00     0.045 A 
BRANCH   7  10
HETATM   10  C   UNL     1     -41.294  56.129 -52.272  1.00  0.00     0.240 C 
BRANCH  10  11
HETATM   11  O   UNL     1     -41.873  54.996 -52.916  1.00  0.00    -0.345 OA
BRANCH  11  12
HETATM   12  C   UNL     1     -41.119  53.854 -52.921  1.00  0.00     0.069 A 
HETATM   13  C   UNL     1     -40.506  53.272 -51.809  1.00  0.00     0.037 A 
HETATM   14  C   UNL     1     -39.759  52.099 -51.953  1.00  0.00     0.003 A 
HETATM   15  C   UNL     1     -39.620  51.504 -53.206  1.00  0.00     0.000 A 
HETATM   16  C   UNL     1     -40.224  52.086 -54.319  1.00  0.00     0.003 A 
HETATM   17  C   UNL     1     -40.967  53.258 -54.175  1.00  0.00     0.037 A 
ENDBRANCH  11  12
ENDBRANCH  10  11
ENDBRANCH   7  10
ENDBRANCH   2   5
BRANCH   1  18
HETATM   18  C   UNL     1     -44.102  56.750 -57.899  1.00  0.00     0.037 A 
HETATM   19  C   UNL     1     -45.325  57.316 -58.282  1.00  0.00     0.063 A 
HETATM   20  C   UNL     1     -45.911  56.921 -59.496  1.00  0.00     0.087 A 
HETATM   21  N   UNL     1     -47.089  57.324 -60.076  1.00  0.00    -0.234 NA
HETATM   22  C   UNL     1     -45.266  55.984 -60.293  1.00  0.00     0.062 A 
HETATM   23  C   UNL     1     -47.175  56.664 -61.211  1.00  0.00     0.101 A 
HETATM   24  C   UNL     1     -48.264  56.755 -62.209  1.00  0.00     0.091 C 
HETATM   25  N   UNL     1     -46.087  55.845 -61.383  1.00  0.00    -0.343 N 
HETATM   26  H   UNL     1     -45.922  55.243 -62.175  1.00  0.00     0.167 HD
HETATM   27  C   UNL     1     -44.054  55.391 -59.945  1.00  0.00     0.034 A 
HETATM   28  C   UNL     1     -43.491  55.791 -58.725  1.00  0.00     0.032 A 
ENDBRANCH   1  18
TORSDOF 5
ENDMDL
MODEL 5
REMARK VINA RESULT:      -7.8      3.783      9.449
REMARK  5 active torsions:
REMARK  status: ('A' for Active; 'I' for Inactive)
REMARK    1  A    between atoms: C_9  and  N_10 
REMARK       I    between atoms: N_10  and  C_11 
REMARK    2  A    between atoms: C_11  and  C_12 
REMARK    3  A    between atoms: C_14  and  C_15 
REMARK    4  A    between atoms: C_15  and  O_16 
REMARK    5  A    between atoms: O_16  and  C_17 
ROOT
HETATM    1  N   UNL     1     -41.387  55.460 -55.562  1.00  0.00    -0.321 N 
HETATM    2  C   UNL     1     -42.504  55.360 -56.381  1.00  0.00     0.279 C 
HETATM    3  O   UNL     1     -43.380  54.508 -56.262  1.00  0.00    -0.265 OA
HETATM    4  H   UNL     1     -40.670  56.105 -55.862  1.00  0.00     0.169 HD
ENDROOT
BRANCH   2   5
HETATM    5  C   UNL     1     -42.521  56.343 -57.455  1.00  0.00     0.143 A 
HETATM    6  O   UNL     1     -42.133  57.620 -57.154  1.00  0.00    -0.307 OA
HETATM    7  C   UNL     1     -42.248  58.371 -58.285  1.00  0.00     0.078 A 
HETATM    8  C   UNL     1     -42.692  57.584 -59.327  1.00  0.00     0.038 A 
HETATM    9  C   UNL     1     -42.873  56.282 -58.794  1.00  0.00     0.045 A 
BRANCH   7  10
HETATM   10  C   UNL     1     -41.914  59.813 -58.156  1.00  0.00     0.240 C 
BRANCH  10  11
HETATM   11  O   UNL     1     -42.331  60.449 -59.362  1.00  0.00    -0.345 OA
BRANCH  11  12
HETATM   12  C   UNL     1     -41.453  61.347 -59.906  1.00  0.00     0.069 A 
HETATM   13  C   UNL     1     -41.340  61.664 -61.261  1.00  0.00     0.037 A 
HETATM   14  C   UNL     1     -40.396  62.605 -61.686  1.00  0.00     0.003 A 
HETATM   15  C   UNL     1     -39.562  63.229 -60.760  1.00  0.00     0.000 A 
HETATM   16  C   UNL     1     -39.666  62.910 -59.408  1.00  0.00     0.003 A 
HETATM   17  C   UNL     1     -40.607  61.970 -58.986  1.00  0.00     0.037 A 
ENDBRANCH  11  12
ENDBRANCH  10  11
ENDBRANCH   7  10
ENDBRANCH   2   5
BRANCH   1  18
HETATM   18  C   UNL     1     -41.065  54.657 -54.445  1.00  0.00     0.037 A 
HETATM   19  C   UNL     1     -40.583  53.344 -54.544  1.00  0.00     0.063 A 
HETATM   20  C   UNL     1     -40.285  52.635 -53.368  1.00  0.00     0.087 A 
HETATM   21  N   UNL     1     -39.812  51.355 -53.210  1.00  0.00    -0.234 NA
HETATM   22  C   UNL     1     -40.470  53.247 -52.135  1.00  0.00     0.062 A 
HETATM   23  C   UNL     1     -39.694  51.174 -51.913  1.00  0.00     0.101 A 
HETATM   24  C   UNL     1     -39.213  49.952 -51.228  1.00  0.00     0.091 C 
HETATM   25  N   UNL     1     -40.077  52.299 -51.225  1.00  0.00    -0.343 N 
HETATM   26  H   UNL     1     -40.073  52.407 -50.223  1.00  0.00     0.167 HD
HETATM   27  C   UNL     1     -40.955  54.545 -51.993  1.00  0.00     0.034 A 
HETATM   28  C   UNL     1     -41.255  55.233 -53.178  1.00  0.00     0.032 A 
ENDBRANCH   1  18
TORSDOF 5
ENDMDL
MODEL 6
REMARK VINA RESULT:      -7.8      2.739      8.583
REMARK  5 active torsions:
REMARK  status: ('A' for Active; 'I' for Inactive)
REMARK    1  A    between atoms: C_9  and  N_10 
REMARK       I    between atoms: N_10  and  C_11 
REMARK    2  A    between atoms: C_11  and  C_12 
REMARK    3  A    between atoms: C_14  and  C_15 
REMARK    4  A    between atoms: C_15  and  O_16 
REMARK    5  A    between atoms: O_16  and  C_17 
ROOT
HETATM    1  N   UNL     1     -41.288  55.866 -54.655  1.00  0.00    -0.321 N 
HETATM    2  C   UNL     1     -42.517  56.155 -55.235  1.00  0.00     0.279 C 
HETATM    3  O   UNL     1     -43.569  55.588 -54.955  1.00  0.00    -0.265 OA
HETATM    4  H   UNL     1     -40.481  56.294 -55.083  1.00  0.00     0.169 HD
ENDROOT
BRANCH   2   5
HETATM    5  C   UNL     1     -42.439  57.174 -56.271  1.00  0.00     0.143 A 
HETATM    6  O   UNL     1     -42.358  56.755 -57.572  1.00  0.00    -0.307 OA
HETATM    7  C   UNL     1     -42.270  57.859 -58.365  1.00  0.00     0.078 A 
HETATM    8  C   UNL     1     -42.312  58.998 -57.588  1.00  0.00     0.038 A 
HETATM    9  C   UNL     1     -42.415  58.560 -56.243  1.00  0.00     0.045 A 
BRANCH   7  10
HETATM   10  C   UNL     1     -42.127  57.614 -59.823  1.00  0.00     0.240 C 
BRANCH  10  11
HETATM   11  O   UNL     1     -43.256  58.208 -60.459  1.00  0.00    -0.345 OA
BRANCH  11  12
HETATM   12  C   UNL     1     -44.431  57.510 -60.378  1.00  0.00     0.069 A 
HETATM   13  C   UNL     1     -44.577  56.130 -60.536  1.00  0.00     0.037 A 
HETATM   14  C   UNL     1     -45.840  55.540 -60.428  1.00  0.00     0.003 A 
HETATM   15  C   UNL     1     -46.961  56.326 -60.165  1.00  0.00     0.000 A 
HETATM   16  C   UNL     1     -46.822  57.703 -60.015  1.00  0.00     0.003 A 
HETATM   17  C   UNL     1     -45.561  58.291 -60.124  1.00  0.00     0.037 A 
ENDBRANCH  11  12
ENDBRANCH  10  11
ENDBRANCH   7  10
ENDBRANCH   2   5
BRANCH   1  18
HETATM   18  C   UNL     1     -41.019  54.925 -53.635  1.00  0.00     0.037 A 
HETATM   19  C   UNL     1     -40.533  53.634 -53.877  1.00  0.00     0.063 A 
HETATM   20  C   UNL     1     -40.291  52.779 -52.788  1.00  0.00     0.087 A 
HETATM   21  N   UNL     1     -39.825  51.487 -52.772  1.00  0.00    -0.234 NA
HETATM   22  C   UNL     1     -40.534  53.230 -51.498  1.00  0.00     0.062 A 
HETATM   23  C   UNL     1     -39.769  51.142 -51.504  1.00  0.00     0.101 A 
HETATM   24  C   UNL     1     -39.320  49.840 -50.958  1.00  0.00     0.091 C 
HETATM   25  N   UNL     1     -40.185  52.172 -50.698  1.00  0.00    -0.343 N 
HETATM   26  H   UNL     1     -40.227  52.152 -49.691  1.00  0.00     0.167 HD
HETATM   27  C   UNL     1     -41.026  54.503 -51.214  1.00  0.00     0.034 A 
HETATM   28  C   UNL     1     -41.270  55.337 -52.315  1.00  0.00     0.032 A 
ENDBRANCH   1  18
TORSDOF 5
ENDMDL
MODEL 7
REMARK VINA RESULT:      -7.7     14.449     16.095
REMARK  5 active torsions:
REMARK  status: ('A' for Active; 'I' for Inactive)
REMARK    1  A    between atoms: C_9  and  N_10 
REMARK       I    between atoms: N_10  and  C_11 
REMARK    2  A    between atoms: C_11  and  C_12 
REMARK    3  A    between atoms: C_14  and  C_15 
REMARK    4  A    between atoms: C_15  and  O_16 
REMARK    5  A    between atoms: O_16  and  C_17 
ROOT
HETATM    1  N   UNL     1     -37.023  40.054 -58.825  1.00  0.00    -0.321 N 
HETATM    2  C   UNL     1     -36.910  41.417 -58.582  1.00  0.00     0.279 C 
HETATM    3  O   UNL     1     -37.245  42.294 -59.372  1.00  0.00    -0.265 OA
HETATM    4  H   UNL     1     -36.570  39.443 -58.160  1.00  0.00     0.169 HD
ENDROOT
BRANCH   2   5
HETATM    5  C   UNL     1     -36.292  41.724 -57.301  1.00  0.00     0.143 A 
HETATM    6  O   UNL     1     -37.039  41.530 -56.171  1.00  0.00    -0.307 OA
HETATM    7  C   UNL     1     -36.284  41.900 -55.099  1.00  0.00     0.078 A 
HETATM    8  C   UNL     1     -35.041  42.317 -55.524  1.00  0.00     0.038 A 
HETATM    9  C   UNL     1     -35.045  42.210 -56.938  1.00  0.00     0.045 A 
BRANCH   7  10
HETATM   10  C   UNL     1     -36.938  41.806 -53.768  1.00  0.00     0.240 C 
BRANCH  10  11
HETATM   11  O   UNL     1     -36.058  42.416 -52.826  1.00  0.00    -0.345 OA
BRANCH  11  12
HETATM   12  C   UNL     1     -35.471  41.578 -51.918  1.00  0.00     0.069 A 
HETATM   13  C   UNL     1     -34.170  41.689 -51.423  1.00  0.00     0.037 A 
HETATM   14  C   UNL     1     -33.690  40.761 -50.493  1.00  0.00     0.003 A 
HETATM   15  C   UNL     1     -34.506  39.717 -50.058  1.00  0.00     0.000 A 
HETATM   16  C   UNL     1     -35.802  39.598 -50.555  1.00  0.00     0.003 A 
HETATM   17  C   UNL     1     -36.279  40.524 -51.484  1.00  0.00     0.037 A 
ENDBRANCH  11  12
ENDBRANCH  10  11
ENDBRANCH   7  10
ENDBRANCH   2   5
BRANCH   1  18
HETATM   18  C   UNL     1     -37.564  39.427 -59.970  1.00  0.00     0.037 A 
HETATM   19  C   UNL     1     -38.871  38.927 -60.039  1.00  0.00     0.063 A 
HETATM   20  C   UNL     1     -39.313  38.328 -61.230  1.00  0.00     0.087 A 
HETATM   21  N   UNL     1     -40.530  37.769 -61.535  1.00  0.00    -0.234 NA
HETATM   22  C   UNL     1     -38.449  38.246 -62.315  1.00  0.00     0.062 A 
HETATM   23  C   UNL     1     -40.434  37.357 -62.780  1.00  0.00     0.101 A 
HETATM   24  C   UNL     1     -41.489  36.690 -63.578  1.00  0.00     0.091 C 
HETATM   25  N   UNL     1     -39.190  37.633 -63.292  1.00  0.00    -0.343 N 
HETATM   26  H   UNL     1     -38.877  37.417 -64.226  1.00  0.00     0.167 HD
HETATM   27  C   UNL     1     -37.140  38.722 -62.285  1.00  0.00     0.034 A 
HETATM   28  C   UNL     1     -36.716  39.308 -61.084  1.00  0.00     0.032 A 
ENDBRANCH   1  18
TORSDOF 5
ENDMDL
MODEL 8
REMARK VINA RESULT:      -7.5      5.030      9.220
REMARK  5 active torsions:
REMARK  status: ('A' for Active; 'I' for Inactive)
REMARK    1  A    between atoms: C_9  and  N_10 
REMARK       I    between atoms: N_10  and  C_11 
REMARK    2  A    between atoms: C_11  and  C_12 
REMARK    3  A    between atoms: C_14  and  C_15 
REMARK    4  A    between atoms: C_15  and  O_16 
REMARK    5  A    between atoms: O_16  and  C_17 
ROOT
HETATM    1  N   UNL     1     -42.072  57.538 -50.895  1.00  0.00    -0.321 N 
HETATM    2  C   UNL     1     -41.430  58.763 -51.017  1.00  0.00     0.279 C 
HETATM    3  O   UNL     1     -40.242  58.901 -51.293  1.00  0.00    -0.265 OA
HETATM    4  H   UNL     1     -43.008  57.561 -50.514  1.00  0.00     0.169 HD
ENDROOT
BRANCH   2   5
HETATM    5  C   UNL     1     -42.294  59.899 -50.729  1.00  0.00     0.143 A 
HETATM    6  O   UNL     1     -43.615  59.645 -50.480  1.00  0.00    -0.307 OA
HETATM    7  C   UNL     1     -44.238  60.837 -50.261  1.00  0.00     0.078 A 
HETATM    8  C   UNL     1     -43.324  61.866 -50.350  1.00  0.00     0.038 A 
HETATM    9  C   UNL     1     -42.076  61.265 -50.655  1.00  0.00     0.045 A 
BRANCH   7  10
HETATM   10  C   UNL     1     -45.701  60.781 -50.014  1.00  0.00     0.240 C 
BRANCH  10  11
HETATM   11  O   UNL     1     -45.886  60.210 -48.721  1.00  0.00    -0.345 OA
BRANCH  11  12
HETATM   12  C   UNL     1     -45.793  61.073 -47.662  1.00  0.00     0.069 A 
HETATM   13  C   UNL     1     -44.990  60.900 -46.532  1.00  0.00     0.037 A 
HETATM   14  C   UNL     1     -44.989  61.862 -45.517  1.00  0.00     0.003 A 
HETATM   15  C   UNL     1     -45.791  62.997 -45.625  1.00  0.00     0.000 A 
HETATM   16  C   UNL     1     -46.600  63.169 -46.746  1.00  0.00     0.003 A 
HETATM   17  C   UNL     1     -46.602  62.208 -47.757  1.00  0.00     0.037 A 
ENDBRANCH  11  12
ENDBRANCH  10  11
ENDBRANCH   7  10
ENDBRANCH   2   5
BRANCH   1  18
HETATM   18  C   UNL     1     -41.519  56.253 -51.094  1.00  0.00     0.037 A 
HETATM   19  C   UNL     1     -41.530  55.584 -52.325  1.00  0.00     0.063 A 
HETATM   20  C   UNL     1     -40.944  54.311 -52.417  1.00  0.00     0.087 A 
HETATM   21  N   UNL     1     -40.835  53.469 -53.497  1.00  0.00    -0.234 NA
HETATM   22  C   UNL     1     -40.363  53.743 -51.290  1.00  0.00     0.062 A 
HETATM   23  C   UNL     1     -40.195  52.406 -53.060  1.00  0.00     0.101 A 
HETATM   24  C   UNL     1     -39.824  51.208 -53.848  1.00  0.00     0.091 C 
HETATM   25  N   UNL     1     -39.886  52.534 -51.729  1.00  0.00    -0.343 N 
HETATM   26  H   UNL     1     -39.394  51.854 -51.170  1.00  0.00     0.167 HD
HETATM   27  C   UNL     1     -40.339  54.370 -50.046  1.00  0.00     0.034 A 
HETATM   28  C   UNL     1     -40.938  55.636 -49.974  1.00  0.00     0.032 A 
ENDBRANCH   1  18
TORSDOF 5
ENDMDL
MODEL 9
REMARK VINA RESULT:      -7.4      5.207      7.525
REMARK  5 active torsions:
REMARK  status: ('A' for Active; 'I' for Inactive)
REMARK    1  A    between atoms: C_9  and  N_10 
REMARK       I    between atoms: N_10  and  C_11 
REMARK    2  A    between atoms: C_11  and  C_12 
REMARK    3  A    between atoms: C_14  and  C_15 
REMARK    4  A    between atoms: C_15  and  O_16 
REMARK    5  A    between atoms: O_16  and  C_17 
ROOT
HETATM    1  N   UNL     1     -43.995  59.282 -51.044  1.00  0.00    -0.321 N 
HETATM    2  C   UNL     1     -44.250  57.921 -51.144  1.00  0.00     0.279 C 
HETATM    3  O   UNL     1     -45.296  57.381 -50.797  1.00  0.00    -0.265 OA
HETATM    4  H   UNL     1     -43.044  59.572 -51.219  1.00  0.00     0.169 HD
ENDROOT
BRANCH   2   5
HETATM    5  C   UNL     1     -43.120  57.159 -51.656  1.00  0.00     0.143 A 
HETATM    6  O   UNL     1     -43.340  55.856 -52.012  1.00  0.00    -0.307 OA
HETATM    7  C   UNL     1     -42.156  55.331 -52.436  1.00  0.00     0.078 A 
HETATM    8  C   UNL     1     -41.169  56.292 -52.375  1.00  0.00     0.038 A 
HETATM    9  C   UNL     1     -41.785  57.465 -51.869  1.00  0.00     0.045 A 
BRANCH   7  10
HETATM   10  C   UNL     1     -42.173  53.899 -52.829  1.00  0.00     0.240 C 
BRANCH  10  11
HETATM   11  O   UNL     1     -40.915  53.616 -53.437  1.00  0.00    -0.345 OA
BRANCH  11  12
HETATM   12  C   UNL     1     -40.470  52.326 -53.332  1.00  0.00     0.069 A 
HETATM   13  C   UNL     1     -40.501  51.364 -54.344  1.00  0.00     0.037 A 
HETATM   14  C   UNL     1     -40.012  50.076 -54.105  1.00  0.00     0.003 A 
HETATM   15  C   UNL     1     -39.494  49.743 -52.854  1.00  0.00     0.000 A 
HETATM   16  C   UNL     1     -39.469  50.697 -51.839  1.00  0.00     0.003 A 
HETATM   17  C   UNL     1     -39.959  51.982 -52.079  1.00  0.00     0.037 A 
ENDBRANCH  11  12
ENDBRANCH  10  11
ENDBRANCH   7  10
ENDBRANCH   2   5
BRANCH   1  18
HETATM   18  C   UNL     1     -44.871  60.289 -50.578  1.00  0.00     0.037 A 
HETATM   19  C   UNL     1     -44.981  60.662 -49.232  1.00  0.00     0.063 A 
HETATM   20  C   UNL     1     -45.878  61.683 -48.877  1.00  0.00     0.087 A 
HETATM   21  N   UNL     1     -46.161  62.214 -47.642  1.00  0.00    -0.234 NA
HETATM   22  C   UNL     1     -46.635  62.302 -49.863  1.00  0.00     0.062 A 
HETATM   23  C   UNL     1     -47.064  63.147 -47.851  1.00  0.00     0.101 A 
HETATM   24  C   UNL     1     -47.691  64.019 -46.831  1.00  0.00     0.091 C 
HETATM   25  N   UNL     1     -47.375  63.237 -49.185  1.00  0.00    -0.343 N 
HETATM   26  H   UNL     1     -48.036  63.879 -49.594  1.00  0.00     0.167 HD
HETATM   27  C   UNL     1     -46.563  61.954 -51.211  1.00  0.00     0.034 A 
HETATM   28  C   UNL     1     -45.668  60.927 -51.543  1.00  0.00     0.032 A 
ENDBRANCH   1  18
TORSDOF 5
ENDMDL
MODEL 10
REMARK VINA RESULT:      -7.4      3.049      8.093
REMARK  5 active torsions:
REMARK  status: ('A' for Active; 'I' for Inactive)
REMARK    1  A    between atoms: C_9  and  N_10 
REMARK       I    between atoms: N_10  and  C_11 
REMARK    2  A    between atoms: C_11  and  C_12 
REMARK    3  A    between atoms: C_14  and  C_15 
REMARK    4  A    between atoms: C_15  and  O_16 
REMARK    5  A    between atoms: O_16  and  C_17 
ROOT
HETATM    1  N   UNL     1     -41.759  57.444 -53.023  1.00  0.00    -0.321 N 
HETATM    2  C   UNL     1     -40.981  58.544 -53.363  1.00  0.00     0.279 C 
HETATM    3  O   UNL     1     -39.811  58.699 -53.025  1.00  0.00    -0.265 OA
HETATM    4  H   UNL     1     -42.745  57.514 -53.232  1.00  0.00     0.169 HD
ENDROOT
BRANCH   2   5
HETATM    5  C   UNL     1     -41.706  59.549 -54.126  1.00  0.00     0.143 A 
HETATM    6  O   UNL     1     -41.625  59.491 -55.491  1.00  0.00    -0.307 OA
HETATM    7  C   UNL     1     -42.349  60.528 -55.999  1.00  0.00     0.078 A 
HETATM    8  C   UNL     1     -42.916  61.251 -54.971  1.00  0.00     0.038 A 
HETATM    9  C   UNL     1     -42.500  60.627 -53.768  1.00  0.00     0.045 A 
BRANCH   7  10
HETATM   10  C   UNL     1     -42.351  60.668 -57.478  1.00  0.00     0.240 C 
BRANCH  10  11
HETATM   11  O   UNL     1     -43.440  59.890 -57.970  1.00  0.00    -0.345 OA
BRANCH  11  12
HETATM   12  C   UNL     1     -43.113  58.697 -58.556  1.00  0.00     0.069 A 
HETATM   13  C   UNL     1     -42.236  58.524 -59.630  1.00  0.00     0.037 A 
HETATM   14  C   UNL     1     -41.988  57.244 -60.135  1.00  0.00     0.003 A 
HETATM   15  C   UNL     1     -42.616  56.134 -59.573  1.00  0.00     0.000 A 
HETATM   16  C   UNL     1     -43.497  56.302 -58.507  1.00  0.00     0.003 A 
HETATM   17  C   UNL     1     -43.745  57.580 -58.004  1.00  0.00     0.037 A 
ENDBRANCH  11  12
ENDBRANCH  10  11
ENDBRANCH   7  10
ENDBRANCH   2   5
BRANCH   1  18
HETATM   18  C   UNL     1     -41.365  56.308 -52.282  1.00  0.00     0.037 A 
HETATM   19  C   UNL     1     -41.079  55.064 -52.860  1.00  0.00     0.063 A 
HETATM   20  C   UNL     1     -40.687  53.999 -52.031  1.00  0.00     0.087 A 
HETATM   21  N   UNL     1     -40.363  52.704 -52.358  1.00  0.00    -0.234 NA
HETATM   22  C   UNL     1     -40.585  54.200 -50.661  1.00  0.00     0.062 A 
HETATM   23  C   UNL     1     -40.058  52.114 -51.223  1.00  0.00     0.101 A 
HETATM   24  C   UNL     1     -39.633  50.707 -51.041  1.00  0.00     0.091 C 
HETATM   25  N   UNL     1     -40.174  52.987 -50.170  1.00  0.00    -0.343 N 
HETATM   26  H   UNL     1     -39.991  52.772 -49.202  1.00  0.00     0.167 HD
HETATM   27  C   UNL     1     -40.868  55.418 -50.046  1.00  0.00     0.034 A 
HETATM   28  C   UNL     1     -41.268  56.465 -50.889  1.00  0.00     0.032 A 
ENDBRANCH   1  18
TORSDOF 5
ENDMDL
