MODEL 1
REMARK VINA RESULT:      -7.8      0.000      0.000
REMARK  5 active torsions:
REMARK  status: ('A' for Active; 'I' for Inactive)
REMARK    1  A    between atoms: C_4  and  C_5 
REMARK    2  A    between atoms: C_5  and  O_6 
REMARK    3  A    between atoms: O_6  and  C_7 
REMARK    4  A    between atoms: C_8  and  N_9 
REMARK       I    between atoms: N_9  and  C_10 
REMARK       I    between atoms: C_10  and  N_11 
REMARK    5  A    between atoms: N_11  and  C_12 
ROOT
HETATM    1  C   UNL     1     -42.125  55.002 -51.276  1.00  0.00     0.037 A 
HETATM    2  C   UNL     1     -41.668  56.299 -51.531  1.00  0.00     0.052 A 
HETATM    3  C   UNL     1     -42.523  57.397 -51.369  1.00  0.00     0.046 A 
HETATM    4  C   UNL     1     -42.025  58.724 -51.568  1.00  0.00     0.099 C 
HETATM    5  N   UNL     1     -41.613  59.799 -51.719  1.00  0.00    -0.191 NA
HETATM    6  C   UNL     1     -43.853  57.194 -50.993  1.00  0.00     0.023 A 
HETATM    7  C   UNL     1     -44.320  55.900 -50.768  1.00  0.00     0.004 A 
HETATM    8  C   UNL     1     -43.455  54.809 -50.898  1.00  0.00     0.029 A 
ENDROOT
BRANCH   1   9
HETATM    9  N   UNL     1     -41.201  53.956 -51.416  1.00  0.00    -0.309 N 
HETATM   10  C   UNL     1     -40.164  53.633 -50.588  1.00  0.00     0.326 C 
HETATM   11  N   UNL     1     -39.339  52.626 -51.009  1.00  0.00    -0.291 N 
HETATM   12  O   UNL     1     -39.868  54.216 -49.546  1.00  0.00    -0.247 OA
HETATM   13  H   UNL     1     -38.512  52.578 -50.441  1.00  0.00     0.172 HD
HETATM   14  H   UNL     1     -41.209  53.421 -52.280  1.00  0.00     0.170 HD
BRANCH  11  15
HETATM   15  C   UNL     1     -39.514  51.699 -52.048  1.00  0.00     0.165 A 
HETATM   16  C   UNL     1     -39.684  52.116 -53.377  1.00  0.00     0.115 A 
HETATM   17  C   UNL     1     -39.883  51.131 -54.353  1.00  0.00     0.042 A 
HETATM   18  C   UNL     1     -39.883  49.787 -54.010  1.00  0.00     0.022 A 
HETATM   19  C   UNL     1     -39.708  49.466 -52.681  1.00  0.00     0.119 A 
HETATM   20  N   UNL     1     -39.535  50.384 -51.704  1.00  0.00    -0.240 NA
BRANCH  16  21
HETATM   21  O   UNL     1     -39.865  53.380 -53.855  1.00  0.00    -0.343 OA
BRANCH  21  22
HETATM   22  C   UNL     1     -40.457  53.571 -55.138  1.00  0.00     0.214 C 
BRANCH  22  23
HETATM   23  C   UNL     1     -41.607  54.550 -55.015  1.00  0.00    -0.034 A 
HETATM   24  C   UNL     1     -42.903  54.129 -54.665  1.00  0.00     0.009 A 
HETATM   25  C   UNL     1     -43.949  55.043 -54.547  1.00  0.00     0.001 A 
HETATM   26  C   UNL     1     -43.720  56.395 -54.780  1.00  0.00     0.000 A 
HETATM   27  C   UNL     1     -42.442  56.832 -55.123  1.00  0.00     0.001 A 
HETATM   28  C   UNL     1     -41.389  55.918 -55.232  1.00  0.00     0.009 A 
ENDBRANCH  22  23
ENDBRANCH  21  22
ENDBRANCH  16  21
ENDBRANCH  11  15
ENDBRANCH   1   9
TORSDOF 5
ENDMDL
MODEL 2
REMARK VINA RESULT:      -7.6      1.469      3.595
REMARK  5 active torsions:
REMARK  status: ('A' for Active; 'I' for Inactive)
REMARK    1  A    between atoms: C_4  and  C_5 
REMARK    2  A    between atoms: C_5  and  O_6 
REMARK    3  A    between atoms: O_6  and  C_7 
REMARK    4  A    between atoms: C_8  and  N_9 
REMARK       I    between atoms: N_9  and  C_10 
REMARK       I    between atoms: C_10  and  N_11 
REMARK    5  A    between atoms: N_11  and  C_12 
ROOT
HETATM    1  C   UNL     1     -42.042  54.823 -54.010  1.00  0.00     0.037 A 
HETATM    2  C   UNL     1     -41.439  56.085 -54.001  1.00  0.00     0.052 A 
HETATM    3  C   UNL     1     -42.213  57.243 -54.147  1.00  0.00     0.046 A 
HETATM    4  C   UNL     1     -41.592  58.530 -54.070  1.00  0.00     0.099 C 
HETATM    5  N   UNL     1     -41.086  59.573 -53.995  1.00  0.00    -0.191 NA
HETATM    6  C   UNL     1     -43.591  57.138 -54.347  1.00  0.00     0.023 A 
HETATM    7  C   UNL     1     -44.193  55.881 -54.388  1.00  0.00     0.004 A 
HETATM    8  C   UNL     1     -43.421  54.728 -54.207  1.00  0.00     0.029 A 
ENDROOT
BRANCH   1   9
HETATM    9  N   UNL     1     -41.210  53.711 -53.813  1.00  0.00    -0.309 N 
HETATM   10  C   UNL     1     -40.186  53.275 -54.605  1.00  0.00     0.326 C 
HETATM   11  N   UNL     1     -39.596  52.095 -54.242  1.00  0.00    -0.291 N 
HETATM   12  O   UNL     1     -39.805  53.809 -55.645  1.00  0.00    -0.247 OA
HETATM   13  H   UNL     1     -38.987  51.760 -54.969  1.00  0.00     0.172 HD
HETATM   14  H   UNL     1     -41.438  53.070 -53.058  1.00  0.00     0.170 HD
BRANCH  11  15
HETATM   15  C   UNL     1     -39.711  51.364 -53.050  1.00  0.00     0.165 A 
HETATM   16  C   UNL     1     -39.803  52.006 -51.806  1.00  0.00     0.115 A 
HETATM   17  C   UNL     1     -39.884  51.206 -50.660  1.00  0.00     0.042 A 
HETATM   18  C   UNL     1     -39.901  49.823 -50.764  1.00  0.00     0.022 A 
HETATM   19  C   UNL     1     -39.809  49.275 -52.025  1.00  0.00     0.119 A 
HETATM   20  N   UNL     1     -39.706  50.008 -53.156  1.00  0.00    -0.240 NA
BRANCH  16  21
HETATM   21  O   UNL     1     -39.643  53.330 -51.518  1.00  0.00    -0.343 OA
BRANCH  21  22
HETATM   22  C   UNL     1     -40.037  53.826 -50.241  1.00  0.00     0.214 C 
BRANCH  22  23
HETATM   23  C   UNL     1     -41.293  54.658 -50.396  1.00  0.00    -0.034 A 
HETATM   24  C   UNL     1     -41.247  56.063 -50.457  1.00  0.00     0.009 A 
HETATM   25  C   UNL     1     -42.412  56.816 -50.608  1.00  0.00     0.001 A 
HETATM   26  C   UNL     1     -43.644  56.177 -50.699  1.00  0.00     0.000 A 
HETATM   27  C   UNL     1     -43.710  54.787 -50.646  1.00  0.00     0.001 A 
HETATM   28  C   UNL     1     -42.542  54.030 -50.504  1.00  0.00     0.009 A 
ENDBRANCH  22  23
ENDBRANCH  21  22
ENDBRANCH  16  21
ENDBRANCH  11  15
ENDBRANCH   1   9
TORSDOF 5
ENDMDL
MODEL 3
REMARK VINA RESULT:      -7.3      2.925      6.641
REMARK  5 active torsions:
REMARK  status: ('A' for Active; 'I' for Inactive)
REMARK    1  A    between atoms: C_4  and  C_5 
REMARK    2  A    between atoms: C_5  and  O_6 
REMARK    3  A    between atoms: O_6  and  C_7 
REMARK    4  A    between atoms: C_8  and  N_9 
REMARK       I    between atoms: N_9  and  C_10 
REMARK       I    between atoms: C_10  and  N_11 
REMARK    5  A    between atoms: N_11  and  C_12 
ROOT
HETATM    1  C   UNL     1     -41.249  53.919 -53.784  1.00  0.00     0.037 A 
HETATM    2  C   UNL     1     -40.902  52.694 -54.364  1.00  0.00     0.052 A 
HETATM    3  C   UNL     1     -40.166  51.749 -53.639  1.00  0.00     0.046 A 
HETATM    4  C   UNL     1     -39.873  50.474 -54.219  1.00  0.00     0.099 C 
HETATM    5  N   UNL     1     -39.649  49.436 -54.691  1.00  0.00    -0.191 NA
HETATM    6  C   UNL     1     -39.736  52.046 -52.343  1.00  0.00     0.023 A 
HETATM    7  C   UNL     1     -40.054  53.278 -51.773  1.00  0.00     0.004 A 
HETATM    8  C   UNL     1     -40.819  54.205 -52.487  1.00  0.00     0.029 A 
ENDROOT
BRANCH   1   9
HETATM    9  N   UNL     1     -42.027  54.797 -54.554  1.00  0.00    -0.309 N 
HETATM   10  C   UNL     1     -43.338  55.135 -54.378  1.00  0.00     0.326 C 
HETATM   11  N   UNL     1     -43.894  55.936 -55.337  1.00  0.00    -0.291 N 
HETATM   12  O   UNL     1     -44.073  54.721 -53.482  1.00  0.00    -0.247 OA
HETATM   13  H   UNL     1     -44.893  55.984 -55.230  1.00  0.00     0.172 HD
HETATM   14  H   UNL     1     -41.628  55.160 -55.415  1.00  0.00     0.170 HD
BRANCH  11  15
HETATM   15  C   UNL     1     -43.276  56.670 -56.361  1.00  0.00     0.165 A 
HETATM   16  C   UNL     1     -42.792  57.968 -56.140  1.00  0.00     0.115 A 
HETATM   17  C   UNL     1     -42.216  58.646 -57.221  1.00  0.00     0.042 A 
HETATM   18  C   UNL     1     -42.106  58.034 -58.461  1.00  0.00     0.022 A 
HETATM   19  C   UNL     1     -42.606  56.756 -58.590  1.00  0.00     0.119 A 
HETATM   20  N   UNL     1     -43.190  56.074 -57.580  1.00  0.00    -0.240 NA
BRANCH  16  21
HETATM   21  O   UNL     1     -42.960  58.763 -55.044  1.00  0.00    -0.343 OA
BRANCH  21  22
HETATM   22  C   UNL     1     -41.823  59.371 -54.435  1.00  0.00     0.214 C 
BRANCH  22  23
HETATM   23  C   UNL     1     -41.586  58.735 -53.080  1.00  0.00    -0.034 A 
HETATM   24  C   UNL     1     -40.383  58.923 -52.375  1.00  0.00     0.009 A 
HETATM   25  C   UNL     1     -40.183  58.338 -51.125  1.00  0.00     0.001 A 
HETATM   26  C   UNL     1     -41.180  57.552 -50.558  1.00  0.00     0.000 A 
HETATM   27  C   UNL     1     -42.380  57.358 -51.238  1.00  0.00     0.001 A 
HETATM   28  C   UNL     1     -42.587  57.953 -52.488  1.00  0.00     0.009 A 
ENDBRANCH  22  23
ENDBRANCH  21  22
ENDBRANCH  16  21
ENDBRANCH  11  15
ENDBRANCH   1   9
TORSDOF 5
ENDMDL
MODEL 4
REMARK VINA RESULT:      -7.3      3.744      7.231
REMARK  5 active torsions:
REMARK  status: ('A' for Active; 'I' for Inactive)
REMARK    1  A    between atoms: C_4  and  C_5 
REMARK    2  A    between atoms: C_5  and  O_6 
REMARK    3  A    between atoms: O_6  and  C_7 
REMARK    4  A    between atoms: C_8  and  N_9 
REMARK       I    between atoms: N_9  and  C_10 
REMARK       I    between atoms: C_10  and  N_11 
REMARK    5  A    between atoms: N_11  and  C_12 
ROOT
HETATM    1  C   UNL     1     -42.976  56.928 -57.550  1.00  0.00     0.037 A 
HETATM    2  C   UNL     1     -43.784  56.218 -58.444  1.00  0.00     0.052 A 
HETATM    3  C   UNL     1     -43.695  56.453 -59.822  1.00  0.00     0.046 A 
HETATM    4  C   UNL     1     -44.479  55.673 -60.731  1.00  0.00     0.099 C 
HETATM    5  N   UNL     1     -45.109  55.030 -61.465  1.00  0.00    -0.191 NA
HETATM    6  C   UNL     1     -42.826  57.434 -60.306  1.00  0.00     0.023 A 
HETATM    7  C   UNL     1     -42.041  58.166 -59.416  1.00  0.00     0.004 A 
HETATM    8  C   UNL     1     -42.108  57.904 -58.044  1.00  0.00     0.029 A 
ENDROOT
BRANCH   1   9
HETATM    9  N   UNL     1     -43.087  56.607 -56.189  1.00  0.00    -0.309 N 
HETATM   10  C   UNL     1     -43.147  55.368 -55.619  1.00  0.00     0.326 C 
HETATM   11  N   UNL     1     -43.363  55.329 -54.268  1.00  0.00    -0.291 N 
HETATM   12  O   UNL     1     -43.101  54.297 -56.222  1.00  0.00    -0.247 OA
HETATM   13  H   UNL     1     -43.574  54.394 -53.965  1.00  0.00     0.172 HD
HETATM   14  H   UNL     1     -43.251  57.364 -55.530  1.00  0.00     0.170 HD
BRANCH  11  15
HETATM   15  C   UNL     1     -43.300  56.361 -53.320  1.00  0.00     0.165 A 
HETATM   16  C   UNL     1     -42.158  56.559 -52.530  1.00  0.00     0.115 A 
HETATM   17  C   UNL     1     -42.185  57.592 -51.585  1.00  0.00     0.042 A 
HETATM   18  C   UNL     1     -43.300  58.407 -51.461  1.00  0.00     0.022 A 
HETATM   19  C   UNL     1     -44.379  58.143 -52.278  1.00  0.00     0.119 A 
HETATM   20  N   UNL     1     -44.404  57.144 -53.188  1.00  0.00    -0.240 NA
BRANCH  16  21
HETATM   21  O   UNL     1     -41.055  55.764 -52.416  1.00  0.00    -0.343 OA
BRANCH  21  22
HETATM   22  C   UNL     1     -41.079  54.650 -51.527  1.00  0.00     0.214 C 
BRANCH  22  23
HETATM   23  C   UNL     1     -40.578  53.420 -52.257  1.00  0.00    -0.034 A 
HETATM   24  C   UNL     1     -40.707  53.284 -53.651  1.00  0.00     0.009 A 
HETATM   25  C   UNL     1     -40.233  52.150 -54.310  1.00  0.00     0.001 A 
HETATM   26  C   UNL     1     -39.625  51.129 -53.586  1.00  0.00     0.000 A 
HETATM   27  C   UNL     1     -39.485  51.248 -52.205  1.00  0.00     0.001 A 
HETATM   28  C   UNL     1     -39.950  52.390 -51.544  1.00  0.00     0.009 A 
ENDBRANCH  22  23
ENDBRANCH  21  22
ENDBRANCH  16  21
ENDBRANCH  11  15
ENDBRANCH   1   9
TORSDOF 5
ENDMDL
MODEL 5
REMARK VINA RESULT:      -7.1      2.314      6.097
REMARK  5 active torsions:
REMARK  status: ('A' for Active; 'I' for Inactive)
REMARK    1  A    between atoms: C_4  and  C_5 
REMARK    2  A    between atoms: C_5  and  O_6 
REMARK    3  A    between atoms: O_6  and  C_7 
REMARK    4  A    between atoms: C_8  and  N_9 
REMARK       I    between atoms: N_9  and  C_10 
REMARK       I    between atoms: C_10  and  N_11 
REMARK    5  A    between atoms: N_11  and  C_12 
ROOT
HETATM    1  C   UNL     1     -41.784  55.175 -50.359  1.00  0.00     0.037 A 
HETATM    2  C   UNL     1     -41.260  54.148 -51.150  1.00  0.00     0.052 A 
HETATM    3  C   UNL     1     -40.372  53.213 -50.604  1.00  0.00     0.046 A 
HETATM    4  C   UNL     1     -39.894  52.128 -51.406  1.00  0.00     0.099 C 
HETATM    5  N   UNL     1     -39.519  51.244 -52.058  1.00  0.00    -0.191 NA
HETATM    6  C   UNL     1     -39.970  53.331 -49.271  1.00  0.00     0.023 A 
HETATM    7  C   UNL     1     -40.467  54.372 -48.487  1.00  0.00     0.004 A 
HETATM    8  C   UNL     1     -41.380  55.283 -49.027  1.00  0.00     0.029 A 
ENDROOT
BRANCH   1   9
HETATM    9  N   UNL     1     -42.703  56.046 -50.962  1.00  0.00    -0.309 N 
HETATM   10  C   UNL     1     -44.062  56.062 -50.826  1.00  0.00     0.326 C 
HETATM   11  N   UNL     1     -44.742  56.953 -51.612  1.00  0.00    -0.291 N 
HETATM   12  O   UNL     1     -44.723  55.300 -50.122  1.00  0.00    -0.247 OA
HETATM   13  H   UNL     1     -45.731  56.774 -51.584  1.00  0.00     0.172 HD
HETATM   14  H   UNL     1     -42.361  56.686 -51.674  1.00  0.00     0.170 HD
BRANCH  11  15
HETATM   15  C   UNL     1     -44.259  58.027 -52.374  1.00  0.00     0.165 A 
HETATM   16  C   UNL     1     -44.220  57.969 -53.775  1.00  0.00     0.115 A 
HETATM   17  C   UNL     1     -43.696  59.071 -54.463  1.00  0.00     0.042 A 
HETATM   18  C   UNL     1     -43.256  60.190 -53.772  1.00  0.00     0.022 A 
HETATM   19  C   UNL     1     -43.332  60.164 -52.396  1.00  0.00     0.119 A 
HETATM   20  N   UNL     1     -43.810  59.114 -51.691  1.00  0.00    -0.240 NA
BRANCH  16  21
HETATM   21  O   UNL     1     -44.460  56.901 -54.589  1.00  0.00    -0.343 OA
BRANCH  21  22
HETATM   22  C   UNL     1     -43.604  56.657 -55.702  1.00  0.00     0.214 C 
BRANCH  22  23
HETATM   23  C   UNL     1     -42.576  55.611 -55.320  1.00  0.00    -0.034 A 
HETATM   24  C   UNL     1     -41.227  55.944 -55.101  1.00  0.00     0.009 A 
HETATM   25  C   UNL     1     -40.295  54.972 -54.741  1.00  0.00     0.001 A 
HETATM   26  C   UNL     1     -40.693  53.648 -54.596  1.00  0.00     0.000 A 
HETATM   27  C   UNL     1     -42.026  53.298 -54.803  1.00  0.00     0.001 A 
HETATM   28  C   UNL     1     -42.965  54.274 -55.154  1.00  0.00     0.009 A 
ENDBRANCH  22  23
ENDBRANCH  21  22
ENDBRANCH  16  21
ENDBRANCH  11  15
ENDBRANCH   1   9
TORSDOF 5
ENDMDL
MODEL 6
REMARK VINA RESULT:      -7.1      3.523      6.840
REMARK  5 active torsions:
REMARK  status: ('A' for Active; 'I' for Inactive)
REMARK    1  A    between atoms: C_4  and  C_5 
REMARK    2  A    between atoms: C_5  and  O_6 
REMARK    3  A    between atoms: O_6  and  C_7 
REMARK    4  A    between atoms: C_8  and  N_9 
REMARK       I    between atoms: N_9  and  C_10 
REMARK       I    between atoms: C_10  and  N_11 
REMARK    5  A    between atoms: N_11  and  C_12 
ROOT
HETATM    1  C   UNL     1     -40.964  53.896 -53.386  1.00  0.00     0.037 A 
HETATM    2  C   UNL     1     -40.652  52.734 -54.099  1.00  0.00     0.052 A 
HETATM    3  C   UNL     1     -40.037  51.651 -53.458  1.00  0.00     0.046 A 
HETATM    4  C   UNL     1     -39.784  50.443 -54.182  1.00  0.00     0.099 C 
HETATM    5  N   UNL     1     -39.591  49.461 -54.772  1.00  0.00    -0.191 NA
HETATM    6  C   UNL     1     -39.692  51.746 -52.107  1.00  0.00     0.023 A 
HETATM    7  C   UNL     1     -39.973  52.914 -51.400  1.00  0.00     0.004 A 
HETATM    8  C   UNL     1     -40.618  53.980 -52.036  1.00  0.00     0.029 A 
ENDROOT
BRANCH   1   9
HETATM    9  N   UNL     1     -41.620  54.921 -54.082  1.00  0.00    -0.309 N 
HETATM   10  C   UNL     1     -42.666  54.811 -54.953  1.00  0.00     0.326 C 
HETATM   11  N   UNL     1     -43.055  55.961 -55.585  1.00  0.00    -0.291 N 
HETATM   12  O   UNL     1     -43.230  53.765 -55.271  1.00  0.00    -0.247 OA
HETATM   13  H   UNL     1     -43.698  55.760 -56.332  1.00  0.00     0.172 HD
HETATM   14  H   UNL     1     -41.227  55.858 -54.039  1.00  0.00     0.170 HD
BRANCH  11  15
HETATM   15  C   UNL     1     -42.711  57.293 -55.315  1.00  0.00     0.165 A 
HETATM   16  C   UNL     1     -42.456  58.207 -56.349  1.00  0.00     0.115 A 
HETATM   17  C   UNL     1     -42.089  59.511 -55.997  1.00  0.00     0.042 A 
HETATM   18  C   UNL     1     -42.008  59.887 -54.664  1.00  0.00     0.022 A 
HETATM   19  C   UNL     1     -42.276  58.927 -53.712  1.00  0.00     0.119 A 
HETATM   20  N   UNL     1     -42.613  57.652 -54.006  1.00  0.00    -0.240 NA
BRANCH  16  21
HETATM   21  O   UNL     1     -42.338  57.965 -57.686  1.00  0.00    -0.343 OA
BRANCH  21  22
HETATM   22  C   UNL     1     -43.362  58.404 -58.575  1.00  0.00     0.214 C 
BRANCH  22  23
HETATM   23  C   UNL     1     -44.064  57.195 -59.162  1.00  0.00    -0.034 A 
HETATM   24  C   UNL     1     -43.448  55.931 -59.204  1.00  0.00     0.009 A 
HETATM   25  C   UNL     1     -44.110  54.826 -59.740  1.00  0.00     0.001 A 
HETATM   26  C   UNL     1     -45.398  54.966 -60.245  1.00  0.00     0.000 A 
HETATM   27  C   UNL     1     -46.026  56.209 -60.208  1.00  0.00     0.001 A 
HETATM   28  C   UNL     1     -45.368  57.316 -59.662  1.00  0.00     0.009 A 
ENDBRANCH  22  23
ENDBRANCH  21  22
ENDBRANCH  16  21
ENDBRANCH  11  15
ENDBRANCH   1   9
TORSDOF 5
ENDMDL
MODEL 7
REMARK VINA RESULT:      -7.0      3.660      6.646
REMARK  5 active torsions:
REMARK  status: ('A' for Active; 'I' for Inactive)
REMARK    1  A    between atoms: C_4  and  C_5 
REMARK    2  A    between atoms: C_5  and  O_6 
REMARK    3  A    between atoms: O_6  and  C_7 
REMARK    4  A    between atoms: C_8  and  N_9 
REMARK       I    between atoms: N_9  and  C_10 
REMARK       I    between atoms: C_10  and  N_11 
REMARK    5  A    between atoms: N_11  and  C_12 
ROOT
HETATM    1  C   UNL     1     -41.131  53.933 -53.777  1.00  0.00     0.037 A 
HETATM    2  C   UNL     1     -41.155  53.992 -52.379  1.00  0.00     0.052 A 
HETATM    3  C   UNL     1     -40.471  53.037 -51.617  1.00  0.00     0.046 A 
HETATM    4  C   UNL     1     -40.448  53.146 -50.190  1.00  0.00     0.099 C 
HETATM    5  N   UNL     1     -40.422  53.246 -49.033  1.00  0.00    -0.191 NA
HETATM    6  C   UNL     1     -39.796  51.992 -52.253  1.00  0.00     0.023 A 
HETATM    7  C   UNL     1     -39.796  51.912 -53.645  1.00  0.00     0.004 A 
HETATM    8  C   UNL     1     -40.451  52.887 -54.403  1.00  0.00     0.029 A 
ENDROOT
BRANCH   1   9
HETATM    9  N   UNL     1     -41.800  54.949 -54.475  1.00  0.00    -0.309 N 
HETATM   10  C   UNL     1     -42.862  54.828 -55.325  1.00  0.00     0.326 C 
HETATM   11  N   UNL     1     -43.264  55.969 -55.964  1.00  0.00    -0.291 N 
HETATM   12  O   UNL     1     -43.431  53.778 -55.619  1.00  0.00    -0.247 OA
HETATM   13  H   UNL     1     -43.919  55.759 -56.696  1.00  0.00     0.172 HD
HETATM   14  H   UNL     1     -41.407  55.886 -54.451  1.00  0.00     0.170 HD
BRANCH  11  15
HETATM   15  C   UNL     1     -42.915  57.305 -55.717  1.00  0.00     0.165 A 
HETATM   16  C   UNL     1     -42.466  58.146 -56.746  1.00  0.00     0.115 A 
HETATM   17  C   UNL     1     -42.108  59.458 -56.414  1.00  0.00     0.042 A 
HETATM   18  C   UNL     1     -42.224  59.912 -55.108  1.00  0.00     0.022 A 
HETATM   19  C   UNL     1     -42.675  59.020 -54.159  1.00  0.00     0.119 A 
HETATM   20  N   UNL     1     -43.010  57.740 -54.431  1.00  0.00    -0.240 NA
BRANCH  16  21
HETATM   21  O   UNL     1     -42.147  57.820 -58.032  1.00  0.00    -0.343 OA
BRANCH  21  22
HETATM   22  C   UNL     1     -42.990  58.251 -59.098  1.00  0.00     0.214 C 
BRANCH  22  23
HETATM   23  C   UNL     1     -43.870  57.097 -59.534  1.00  0.00    -0.034 A 
HETATM   24  C   UNL     1     -45.200  57.296 -59.948  1.00  0.00     0.009 A 
HETATM   25  C   UNL     1     -45.995  56.225 -60.355  1.00  0.00     0.001 A 
HETATM   26  C   UNL     1     -45.476  54.935 -60.352  1.00  0.00     0.000 A 
HETATM   27  C   UNL     1     -44.160  54.718 -59.951  1.00  0.00     0.001 A 
HETATM   28  C   UNL     1     -43.358  55.792 -59.552  1.00  0.00     0.009 A 
ENDBRANCH  22  23
ENDBRANCH  21  22
ENDBRANCH  16  21
ENDBRANCH  11  15
ENDBRANCH   1   9
TORSDOF 5
ENDMDL
MODEL 8
REMARK VINA RESULT:      -7.0      2.924      6.110
REMARK  5 active torsions:
REMARK  status: ('A' for Active; 'I' for Inactive)
REMARK    1  A    between atoms: C_4  and  C_5 
REMARK    2  A    between atoms: C_5  and  O_6 
REMARK    3  A    between atoms: O_6  and  C_7 
REMARK    4  A    between atoms: C_8  and  N_9 
REMARK       I    between atoms: N_9  and  C_10 
REMARK       I    between atoms: C_10  and  N_11 
REMARK    5  A    between atoms: N_11  and  C_12 
ROOT
HETATM    1  C   UNL     1     -41.218  53.831 -53.958  1.00  0.00     0.037 A 
HETATM    2  C   UNL     1     -40.993  54.205 -52.628  1.00  0.00     0.052 A 
HETATM    3  C   UNL     1     -40.190  53.416 -51.795  1.00  0.00     0.046 A 
HETATM    4  C   UNL     1     -39.914  53.843 -50.457  1.00  0.00     0.099 C 
HETATM    5  N   UNL     1     -39.684  54.200 -49.376  1.00  0.00    -0.191 NA
HETATM    6  C   UNL     1     -39.644  52.225 -52.280  1.00  0.00     0.023 A 
HETATM    7  C   UNL     1     -39.890  51.834 -53.595  1.00  0.00     0.004 A 
HETATM    8  C   UNL     1     -40.665  52.641 -54.434  1.00  0.00     0.029 A 
ENDROOT
BRANCH   1   9
HETATM    9  N   UNL     1     -41.995  54.693 -54.745  1.00  0.00    -0.309 N 
HETATM   10  C   UNL     1     -43.301  55.050 -54.565  1.00  0.00     0.326 C 
HETATM   11  N   UNL     1     -43.860  55.828 -55.542  1.00  0.00    -0.291 N 
HETATM   12  O   UNL     1     -44.029  54.673 -53.648  1.00  0.00    -0.247 OA
HETATM   13  H   UNL     1     -44.856  55.890 -55.426  1.00  0.00     0.172 HD
HETATM   14  H   UNL     1     -41.603  55.025 -55.623  1.00  0.00     0.170 HD
BRANCH  11  15
HETATM   15  C   UNL     1     -43.247  56.522 -56.596  1.00  0.00     0.165 A 
HETATM   16  C   UNL     1     -42.796  57.841 -56.437  1.00  0.00     0.115 A 
HETATM   17  C   UNL     1     -42.222  58.476 -57.545  1.00  0.00     0.042 A 
HETATM   18  C   UNL     1     -42.083  57.804 -58.751  1.00  0.00     0.022 A 
HETATM   19  C   UNL     1     -42.552  56.510 -58.819  1.00  0.00     0.119 A 
HETATM   20  N   UNL     1     -43.132  55.866 -57.782  1.00  0.00    -0.240 NA
BRANCH  16  21
HETATM   21  O   UNL     1     -42.995  58.687 -55.386  1.00  0.00    -0.343 OA
BRANCH  21  22
HETATM   22  C   UNL     1     -41.879  59.134 -54.619  1.00  0.00     0.214 C 
BRANCH  22  23
HETATM   23  C   UNL     1     -41.910  58.465 -53.259  1.00  0.00    -0.034 A 
HETATM   24  C   UNL     1     -43.112  58.011 -52.685  1.00  0.00     0.009 A 
HETATM   25  C   UNL     1     -43.123  57.391 -51.436  1.00  0.00     0.001 A 
HETATM   26  C   UNL     1     -41.933  57.215 -50.738  1.00  0.00     0.000 A 
HETATM   27  C   UNL     1     -40.733  57.653 -51.292  1.00  0.00     0.001 A 
HETATM   28  C   UNL     1     -40.718  58.267 -52.549  1.00  0.00     0.009 A 
ENDBRANCH  22  23
ENDBRANCH  21  22
ENDBRANCH  16  21
ENDBRANCH  11  15
ENDBRANCH   1   9
TORSDOF 5
ENDMDL
MODEL 9
REMARK VINA RESULT:      -7.0      2.832      6.260
REMARK  5 active torsions:
REMARK  status: ('A' for Active; 'I' for Inactive)
REMARK    1  A    between atoms: C_4  and  C_5 
REMARK    2  A    between atoms: C_5  and  O_6 
REMARK    3  A    between atoms: O_6  and  C_7 
REMARK    4  A    between atoms: C_8  and  N_9 
REMARK       I    between atoms: N_9  and  C_10 
REMARK       I    between atoms: C_10  and  N_11 
REMARK    5  A    between atoms: N_11  and  C_12 
ROOT
HETATM    1  C   UNL     1     -43.264  56.468 -56.126  1.00  0.00     0.037 A 
HETATM    2  C   UNL     1     -43.808  57.688 -56.543  1.00  0.00     0.052 A 
HETATM    3  C   UNL     1     -43.988  57.956 -57.906  1.00  0.00     0.046 A 
HETATM    4  C   UNL     1     -44.605  59.180 -58.317  1.00  0.00     0.099 C 
HETATM    5  N   UNL     1     -45.118  60.170 -58.645  1.00  0.00    -0.191 NA
HETATM    6  C   UNL     1     -43.583  57.019 -58.860  1.00  0.00     0.023 A 
HETATM    7  C   UNL     1     -43.012  55.814 -58.449  1.00  0.00     0.004 A 
HETATM    8  C   UNL     1     -42.866  55.536 -57.086  1.00  0.00     0.029 A 
ENDROOT
BRANCH   1   9
HETATM    9  N   UNL     1     -43.155  56.252 -54.745  1.00  0.00    -0.309 N 
HETATM   10  C   UNL     1     -43.693  55.236 -54.007  1.00  0.00     0.326 C 
HETATM   11  N   UNL     1     -43.527  55.314 -52.652  1.00  0.00    -0.291 N 
HETATM   12  O   UNL     1     -44.371  54.310 -54.448  1.00  0.00    -0.247 OA
HETATM   13  H   UNL     1     -44.101  54.637 -52.180  1.00  0.00     0.172 HD
HETATM   14  H   UNL     1     -42.721  56.976 -54.179  1.00  0.00     0.170 HD
BRANCH  11  15
HETATM   15  C   UNL     1     -42.688  56.149 -51.898  1.00  0.00     0.165 A 
HETATM   16  C   UNL     1     -41.674  55.622 -51.083  1.00  0.00     0.115 A 
HETATM   17  C   UNL     1     -40.899  56.519 -50.338  1.00  0.00     0.042 A 
HETATM   18  C   UNL     1     -41.115  57.886 -50.431  1.00  0.00     0.022 A 
HETATM   19  C   UNL     1     -42.131  58.318 -51.256  1.00  0.00     0.119 A 
HETATM   20  N   UNL     1     -42.918  57.487 -51.976  1.00  0.00    -0.240 NA
BRANCH  16  21
HETATM   21  O   UNL     1     -41.434  54.319 -50.760  1.00  0.00    -0.343 OA
BRANCH  21  22
HETATM   22  C   UNL     1     -40.128  53.777 -50.938  1.00  0.00     0.214 C 
BRANCH  22  23
HETATM   23  C   UNL     1     -40.142  52.817 -52.110  1.00  0.00    -0.034 A 
HETATM   24  C   UNL     1     -40.674  53.184 -53.360  1.00  0.00     0.009 A 
HETATM   25  C   UNL     1     -40.672  52.292 -54.432  1.00  0.00     0.001 A 
HETATM   26  C   UNL     1     -40.142  51.016 -54.273  1.00  0.00     0.000 A 
HETATM   27  C   UNL     1     -39.606  50.636 -53.044  1.00  0.00     0.001 A 
HETATM   28  C   UNL     1     -39.597  51.533 -51.971  1.00  0.00     0.009 A 
ENDBRANCH  22  23
ENDBRANCH  21  22
ENDBRANCH  16  21
ENDBRANCH  11  15
ENDBRANCH   1   9
TORSDOF 5
ENDMDL
MODEL 10
REMARK VINA RESULT:      -6.9      2.229      6.174
REMARK  5 active torsions:
REMARK  status: ('A' for Active; 'I' for Inactive)
REMARK    1  A    between atoms: C_4  and  C_5 
REMARK    2  A    between atoms: C_5  and  O_6 
REMARK    3  A    between atoms: O_6  and  C_7 
REMARK    4  A    between atoms: C_8  and  N_9 
REMARK       I    between atoms: N_9  and  C_10 
REMARK       I    between atoms: C_10  and  N_11 
REMARK    5  A    between atoms: N_11  and  C_12 
ROOT
HETATM    1  C   UNL     1     -40.763  53.602 -53.035  1.00  0.00     0.037 A 
HETATM    2  C   UNL     1     -40.490  52.628 -52.068  1.00  0.00     0.052 A 
HETATM    3  C   UNL     1     -39.833  51.443 -52.420  1.00  0.00     0.046 A 
HETATM    4  C   UNL     1     -39.500  50.484 -51.411  1.00  0.00     0.099 C 
HETATM    5  N   UNL     1     -39.223  49.715 -50.586  1.00  0.00    -0.191 NA
HETATM    6  C   UNL     1     -39.484  51.210 -53.753  1.00  0.00     0.023 A 
HETATM    7  C   UNL     1     -39.782  52.164 -54.725  1.00  0.00     0.004 A 
HETATM    8  C   UNL     1     -40.408  53.361 -54.364  1.00  0.00     0.029 A 
ENDROOT
BRANCH   1   9
HETATM    9  N   UNL     1     -41.384  54.782 -52.601  1.00  0.00    -0.309 N 
HETATM   10  C   UNL     1     -42.696  54.973 -52.277  1.00  0.00     0.326 C 
HETATM   11  N   UNL     1     -43.071  56.256 -51.983  1.00  0.00    -0.291 N 
HETATM   12  O   UNL     1     -43.575  54.113 -52.302  1.00  0.00    -0.247 OA
HETATM   13  H   UNL     1     -44.072  56.337 -51.937  1.00  0.00     0.172 HD
HETATM   14  H   UNL     1     -40.843  55.643 -52.622  1.00  0.00     0.170 HD
BRANCH  11  15
HETATM   15  C   UNL     1     -42.278  57.385 -51.729  1.00  0.00     0.165 A 
HETATM   16  C   UNL     1     -42.289  58.495 -52.588  1.00  0.00     0.115 A 
HETATM   17  C   UNL     1     -41.447  59.570 -52.282  1.00  0.00     0.042 A 
HETATM   18  C   UNL     1     -40.651  59.543 -51.146  1.00  0.00     0.022 A 
HETATM   19  C   UNL     1     -40.703  58.415 -50.356  1.00  0.00     0.119 A 
HETATM   20  N   UNL     1     -41.483  57.345 -50.626  1.00  0.00    -0.240 NA
BRANCH  16  21
HETATM   21  O   UNL     1     -42.883  58.617 -53.810  1.00  0.00    -0.343 OA
BRANCH  21  22
HETATM   22  C   UNL     1     -42.074  58.768 -54.975  1.00  0.00     0.214 C 
BRANCH  22  23
HETATM   23  C   UNL     1     -42.463  57.714 -55.991  1.00  0.00    -0.034 A 
HETATM   24  C   UNL     1     -43.001  58.057 -57.244  1.00  0.00     0.009 A 
HETATM   25  C   UNL     1     -43.346  57.075 -58.173  1.00  0.00     0.001 A 
HETATM   26  C   UNL     1     -43.162  55.732 -57.864  1.00  0.00     0.000 A 
HETATM   27  C   UNL     1     -42.625  55.372 -56.629  1.00  0.00     0.001 A 
HETATM   28  C   UNL     1     -42.269  56.356 -55.701  1.00  0.00     0.009 A 
ENDBRANCH  22  23
ENDBRANCH  21  22
ENDBRANCH  16  21
ENDBRANCH  11  15
ENDBRANCH   1   9
TORSDOF 5
ENDMDL
