MODEL 1
REMARK VINA RESULT:      -6.4      0.000      0.000
REMARK  4 active torsions:
REMARK  status: ('A' for Active; 'I' for Inactive)
REMARK    1  A    between atoms: C_11  and  N_12 
REMARK    2  A    between atoms: N_12  and  C_13 
REMARK    3  A    between atoms: C_13  and  C_14 
REMARK    4  A    between atoms: C_15  and  C_16 
ROOT
HETATM    1  N   UNL     1     -36.673  42.184 -55.051  1.00  0.00     0.092 N 
HETATM    2  H   UNL     1     -37.176  41.301 -55.027  1.00  0.00     0.316 HD
ENDROOT
BRANCH   1   3
HETATM    3  C   UNL     1     -35.716  42.276 -56.149  1.00  0.00     0.225 C 
HETATM    4  C   UNL     1     -36.426  42.287 -57.511  1.00  0.00     0.073 C 
HETATM    5  C   UNL     1     -36.975  40.940 -58.000  1.00  0.00     0.121 C 
HETATM    6  N   UNL     1     -35.910  39.869 -57.847  1.00  0.00    -0.059 N 
HETATM    7  C   UNL     1     -38.277  40.504 -57.321  1.00  0.00     0.046 C 
HETATM    8  C   UNL     1     -37.260  41.027 -59.516  1.00  0.00     0.046 C 
HETATM    9  C   UNL     1     -35.096  39.774 -56.578  1.00  0.00     0.121 C 
HETATM   10  H   UNL     1     -35.246  39.998 -58.624  1.00  0.00     0.279 HD
HETATM   11  H   UNL     1     -36.341  38.952 -58.036  1.00  0.00     0.279 HD
HETATM   12  C   UNL     1     -35.864  38.970 -55.522  1.00  0.00     0.046 C 
HETATM   13  C   UNL     1     -33.836  38.958 -56.937  1.00  0.00     0.046 C 
HETATM   14  C   UNL     1     -34.653  41.174 -56.118  1.00  0.00     0.073 C 
ENDBRANCH   1   3
BRANCH   1  15
HETATM   15  C   UNL     1     -36.034  42.310 -53.730  1.00  0.00     0.312 C 
BRANCH  15  16
HETATM   16  C   UNL     1     -36.762  41.396 -52.804  1.00  0.00     0.014 A 
HETATM   17  C   UNL     1     -36.292  40.503 -51.779  1.00  0.00     0.071 A 
HETATM   18  N   UNL     1     -37.328  39.879 -51.196  1.00  0.00    -0.178 NA
HETATM   19  N   UNL     1     -38.417  40.354 -51.801  1.00  0.00    -0.288 N 
HETATM   20  H   UNL     1     -39.325  40.017 -51.491  1.00  0.00     0.188 HD
HETATM   21  C   UNL     1     -38.138  41.251 -52.777  1.00  0.00     0.120 A 
BRANCH  17  22
HETATM   22  C   UNL     1     -34.890  40.201 -51.240  1.00  0.00    -0.004 C 
HETATM   23  C   UNL     1     -35.010  39.313 -49.986  1.00  0.00     0.021 C 
HETATM   24  C   UNL     1     -34.045  39.433 -52.291  1.00  0.00     0.021 C 
HETATM   25  C   UNL     1     -34.088  41.467 -50.885  1.00  0.00     0.021 C 
ENDBRANCH  17  22
ENDBRANCH  15  16
ENDBRANCH   1  15
TORSDOF 4
ENDMDL
MODEL 2
REMARK VINA RESULT:      -6.4     15.229     17.151
REMARK  4 active torsions:
REMARK  status: ('A' for Active; 'I' for Inactive)
REMARK    1  A    between atoms: C_11  and  N_12 
REMARK    2  A    between atoms: N_12  and  C_13 
REMARK    3  A    between atoms: C_13  and  C_14 
REMARK    4  A    between atoms: C_15  and  C_16 
ROOT
HETATM    1  N   UNL     1     -43.585  55.604 -51.825  1.00  0.00     0.092 N 
HETATM    2  H   UNL     1     -44.485  55.754 -51.376  1.00  0.00     0.316 HD
ENDROOT
BRANCH   1   3
HETATM    3  C   UNL     1     -43.460  56.282 -53.111  1.00  0.00     0.225 C 
HETATM    4  C   UNL     1     -42.066  56.903 -53.282  1.00  0.00     0.073 C 
HETATM    5  C   UNL     1     -41.795  58.189 -52.490  1.00  0.00     0.121 C 
HETATM    6  N   UNL     1     -42.948  59.157 -52.677  1.00  0.00    -0.059 N 
HETATM    7  C   UNL     1     -41.515  57.967 -51.001  1.00  0.00     0.046 C 
HETATM    8  C   UNL     1     -40.558  58.901 -53.083  1.00  0.00     0.046 C 
HETATM    9  C   UNL     1     -44.377  58.673 -52.587  1.00  0.00     0.121 C 
HETATM   10  H   UNL     1     -42.831  59.583 -53.608  1.00  0.00     0.279 HD
HETATM   11  H   UNL     1     -42.823  59.945 -52.024  1.00  0.00     0.279 HD
HETATM   12  C   UNL     1     -44.825  58.633 -51.121  1.00  0.00     0.046 C 
HETATM   13  C   UNL     1     -45.238  59.743 -53.293  1.00  0.00     0.046 C 
HETATM   14  C   UNL     1     -44.541  57.342 -53.342  1.00  0.00     0.073 C 
ENDBRANCH   1   3
BRANCH   1  15
HETATM   15  C   UNL     1     -43.440  54.143 -51.939  1.00  0.00     0.312 C 
BRANCH  15  16
HETATM   16  C   UNL     1     -42.010  53.822 -51.665  1.00  0.00     0.014 A 
HETATM   17  C   UNL     1     -40.948  53.383 -52.530  1.00  0.00     0.071 A 
HETATM   18  N   UNL     1     -39.814  53.223 -51.829  1.00  0.00    -0.178 NA
HETATM   19  N   UNL     1     -40.120  53.556 -50.574  1.00  0.00    -0.288 N 
HETATM   20  H   UNL     1     -39.384  53.520 -49.874  1.00  0.00     0.188 HD
HETATM   21  C   UNL     1     -41.419  53.908 -50.417  1.00  0.00     0.120 A 
BRANCH  17  22
HETATM   22  C   UNL     1     -40.887  53.130 -54.040  1.00  0.00    -0.004 C 
HETATM   23  C   UNL     1     -40.325  51.718 -54.294  1.00  0.00     0.021 C 
HETATM   24  C   UNL     1     -42.303  53.203 -54.672  1.00  0.00     0.021 C 
HETATM   25  C   UNL     1     -40.025  54.159 -54.796  1.00  0.00     0.021 C 
ENDBRANCH  17  22
ENDBRANCH  15  16
ENDBRANCH   1  15
TORSDOF 4
ENDMDL
MODEL 3
REMARK VINA RESULT:      -6.3     16.135     17.751
REMARK  4 active torsions:
REMARK  status: ('A' for Active; 'I' for Inactive)
REMARK    1  A    between atoms: C_11  and  N_12 
REMARK    2  A    between atoms: N_12  and  C_13 
REMARK    3  A    between atoms: C_13  and  C_14 
REMARK    4  A    between atoms: C_15  and  C_16 
ROOT
HETATM    1  N   UNL     1     -43.994  56.698 -56.988  1.00  0.00     0.092 N 
HETATM    2  H   UNL     1     -44.454  55.984 -56.428  1.00  0.00     0.316 HD
ENDROOT
BRANCH   1   3
HETATM    3  C   UNL     1     -43.151  56.150 -58.045  1.00  0.00     0.225 C 
HETATM    4  C   UNL     1     -42.372  57.258 -58.770  1.00  0.00     0.073 C 
HETATM    5  C   UNL     1     -43.176  58.120 -59.752  1.00  0.00     0.121 C 
HETATM    6  N   UNL     1     -44.001  57.226 -60.660  1.00  0.00    -0.059 N 
HETATM    7  C   UNL     1     -44.063  59.176 -59.086  1.00  0.00     0.046 C 
HETATM    8  C   UNL     1     -42.201  58.870 -60.687  1.00  0.00     0.046 C 
HETATM    9  C   UNL     1     -44.779  56.063 -60.088  1.00  0.00     0.121 C 
HETATM   10  H   UNL     1     -43.355  56.841 -61.364  1.00  0.00     0.279 HD
HETATM   11  H   UNL     1     -44.643  57.819 -61.205  1.00  0.00     0.279 HD
HETATM   12  C   UNL     1     -46.133  56.548 -59.559  1.00  0.00     0.046 C 
HETATM   13  C   UNL     1     -45.069  55.117 -61.273  1.00  0.00     0.046 C 
HETATM   14  C   UNL     1     -43.926  55.302 -59.058  1.00  0.00     0.073 C 
ENDBRANCH   1   3
BRANCH   1  15
HETATM   15  C   UNL     1     -43.240  57.524 -56.031  1.00  0.00     0.312 C 
BRANCH  15  16
HETATM   16  C   UNL     1     -43.607  57.055 -54.663  1.00  0.00     0.014 A 
HETATM   17  C   UNL     1     -43.137  55.948 -53.875  1.00  0.00     0.071 A 
HETATM   18  N   UNL     1     -43.763  55.923 -52.688  1.00  0.00    -0.178 NA
HETATM   19  N   UNL     1     -44.589  56.971 -52.698  1.00  0.00    -0.288 N 
HETATM   20  H   UNL     1     -45.153  57.146 -51.871  1.00  0.00     0.188 HD
HETATM   21  C   UNL     1     -44.547  57.672 -53.856  1.00  0.00     0.120 A 
BRANCH  17  22
HETATM   22  C   UNL     1     -42.065  54.883 -54.132  1.00  0.00    -0.004 C 
HETATM   23  C   UNL     1     -41.800  54.108 -52.827  1.00  0.00     0.021 C 
HETATM   24  C   UNL     1     -42.539  53.866 -55.205  1.00  0.00     0.021 C 
HETATM   25  C   UNL     1     -40.737  55.467 -54.649  1.00  0.00     0.021 C 
ENDBRANCH  17  22
ENDBRANCH  15  16
ENDBRANCH   1  15
TORSDOF 4
ENDMDL
MODEL 4
REMARK VINA RESULT:      -6.3     15.862     17.748
REMARK  4 active torsions:
REMARK  status: ('A' for Active; 'I' for Inactive)
REMARK    1  A    between atoms: C_11  and  N_12 
REMARK    2  A    between atoms: N_12  and  C_13 
REMARK    3  A    between atoms: C_13  and  C_14 
REMARK    4  A    between atoms: C_15  and  C_16 
ROOT
HETATM    1  N   UNL     1     -42.790  56.787 -51.339  1.00  0.00     0.092 N 
HETATM    2  H   UNL     1     -42.982  56.604 -50.357  1.00  0.00     0.316 HD
ENDROOT
BRANCH   1   3
HETATM    3  C   UNL     1     -43.619  57.846 -51.903  1.00  0.00     0.225 C 
HETATM    4  C   UNL     1     -43.218  58.160 -53.352  1.00  0.00     0.073 C 
HETATM    5  C   UNL     1     -41.926  58.967 -53.537  1.00  0.00     0.121 C 
HETATM    6  N   UNL     1     -41.935  60.166 -52.607  1.00  0.00    -0.059 N 
HETATM    7  C   UNL     1     -40.641  58.154 -53.354  1.00  0.00     0.046 C 
HETATM    8  C   UNL     1     -41.893  59.553 -54.966  1.00  0.00     0.046 C 
HETATM    9  C   UNL     1     -42.359  60.013 -51.164  1.00  0.00     0.121 C 
HETATM   10  H   UNL     1     -42.558  60.868 -53.032  1.00  0.00     0.279 HD
HETATM   11  H   UNL     1     -41.004  60.607 -52.634  1.00  0.00     0.279 HD
HETATM   12  C   UNL     1     -41.174  59.535 -50.317  1.00  0.00     0.046 C 
HETATM   13  C   UNL     1     -42.723  61.431 -50.672  1.00  0.00     0.046 C 
HETATM   14  C   UNL     1     -43.614  59.128 -51.065  1.00  0.00     0.073 C 
ENDBRANCH   1   3
BRANCH   1  15
HETATM   15  C   UNL     1     -42.974  55.496 -52.024  1.00  0.00     0.312 C 
BRANCH  15  16
HETATM   16  C   UNL     1     -41.784  54.657 -51.704  1.00  0.00     0.014 A 
HETATM   17  C   UNL     1     -40.926  53.860 -52.538  1.00  0.00     0.071 A 
HETATM   18  N   UNL     1     -39.969  53.277 -51.799  1.00  0.00    -0.178 NA
HETATM   19  N   UNL     1     -40.186  53.686 -50.548  1.00  0.00    -0.288 N 
HETATM   20  H   UNL     1     -39.551  53.367 -49.821  1.00  0.00     0.188 HD
HETATM   21  C   UNL     1     -41.263  54.500 -50.432  1.00  0.00     0.120 A 
BRANCH  17  22
HETATM   22  C   UNL     1     -40.895  53.620 -54.052  1.00  0.00    -0.004 C 
HETATM   23  C   UNL     1     -40.210  52.269 -54.335  1.00  0.00     0.021 C 
HETATM   24  C   UNL     1     -42.332  53.560 -54.634  1.00  0.00     0.021 C 
HETATM   25  C   UNL     1     -40.161  54.729 -54.829  1.00  0.00     0.021 C 
ENDBRANCH  17  22
ENDBRANCH  15  16
ENDBRANCH   1  15
TORSDOF 4
ENDMDL
MODEL 5
REMARK VINA RESULT:      -6.2     15.330     17.590
REMARK  4 active torsions:
REMARK  status: ('A' for Active; 'I' for Inactive)
REMARK    1  A    between atoms: C_11  and  N_12 
REMARK    2  A    between atoms: N_12  and  C_13 
REMARK    3  A    between atoms: C_13  and  C_14 
REMARK    4  A    between atoms: C_15  and  C_16 
ROOT
HETATM    1  N   UNL     1     -43.662  55.958 -52.967  1.00  0.00     0.092 N 
HETATM    2  H   UNL     1     -42.817  56.511 -52.850  1.00  0.00     0.316 HD
ENDROOT
BRANCH   1   3
HETATM    3  C   UNL     1     -43.422  54.520 -52.926  1.00  0.00     0.225 C 
HETATM    4  C   UNL     1     -42.880  54.080 -51.558  1.00  0.00     0.073 C 
HETATM    5  C   UNL     1     -41.409  54.411 -51.274  1.00  0.00     0.121 C 
HETATM    6  N   UNL     1     -40.554  53.997 -52.458  1.00  0.00    -0.059 N 
HETATM    7  C   UNL     1     -41.150  55.876 -50.909  1.00  0.00     0.046 C 
HETATM    8  C   UNL     1     -40.915  53.554 -50.088  1.00  0.00     0.046 C 
HETATM    9  C   UNL     1     -40.993  54.318 -53.868  1.00  0.00     0.121 C 
HETATM   10  H   UNL     1     -40.443  52.975 -52.401  1.00  0.00     0.279 HD
HETATM   11  H   UNL     1     -39.601  54.362 -52.315  1.00  0.00     0.279 HD
HETATM   12  C   UNL     1     -40.571  55.746 -54.235  1.00  0.00     0.046 C 
HETATM   13  C   UNL     1     -40.203  53.364 -54.790  1.00  0.00     0.046 C 
HETATM   14  C   UNL     1     -42.494  54.030 -54.042  1.00  0.00     0.073 C 
ENDBRANCH   1   3
BRANCH   1  15
HETATM   15  C   UNL     1     -44.250  56.399 -54.242  1.00  0.00     0.312 C 
BRANCH  15  16
HETATM   16  C   UNL     1     -43.456  57.574 -54.707  1.00  0.00     0.014 A 
HETATM   17  C   UNL     1     -42.987  57.953 -56.012  1.00  0.00     0.071 A 
HETATM   18  N   UNL     1     -42.307  59.108 -55.944  1.00  0.00    -0.178 NA
HETATM   19  N   UNL     1     -42.345  59.469 -54.661  1.00  0.00    -0.288 N 
HETATM   20  H   UNL     1     -41.895  60.340 -54.394  1.00  0.00     0.188 HD
HETATM   21  C   UNL     1     -43.005  58.585 -53.876  1.00  0.00     0.120 A 
BRANCH  17  22
HETATM   22  C   UNL     1     -43.168  57.318 -57.396  1.00  0.00    -0.004 C 
HETATM   23  C   UNL     1     -44.588  57.624 -57.910  1.00  0.00     0.021 C 
HETATM   24  C   UNL     1     -42.153  57.906 -58.412  1.00  0.00     0.021 C 
HETATM   25  C   UNL     1     -42.948  55.794 -57.400  1.00  0.00     0.021 C 
ENDBRANCH  17  22
ENDBRANCH  15  16
ENDBRANCH   1  15
TORSDOF 4
ENDMDL
MODEL 6
REMARK VINA RESULT:      -6.1     16.180     17.761
REMARK  4 active torsions:
REMARK  status: ('A' for Active; 'I' for Inactive)
REMARK    1  A    between atoms: C_11  and  N_12 
REMARK    2  A    between atoms: N_12  and  C_13 
REMARK    3  A    between atoms: C_13  and  C_14 
REMARK    4  A    between atoms: C_15  and  C_16 
ROOT
HETATM    1  N   UNL     1     -43.920  56.491 -57.163  1.00  0.00     0.092 N 
HETATM    2  H   UNL     1     -43.535  55.865 -57.865  1.00  0.00     0.316 HD
ENDROOT
BRANCH   1   3
HETATM    3  C   UNL     1     -44.563  57.671 -57.729  1.00  0.00     0.225 C 
HETATM    4  C   UNL     1     -45.789  57.290 -58.573  1.00  0.00     0.073 C 
HETATM    5  C   UNL     1     -45.500  56.690 -59.955  1.00  0.00     0.121 C 
HETATM    6  N   UNL     1     -44.472  57.541 -60.677  1.00  0.00    -0.059 N 
HETATM    7  C   UNL     1     -45.060  55.223 -59.927  1.00  0.00     0.046 C 
HETATM    8  C   UNL     1     -46.779  56.763 -60.819  1.00  0.00     0.046 C 
HETATM    9  C   UNL     1     -43.240  58.032 -59.954  1.00  0.00     0.121 C 
HETATM   10  H   UNL     1     -44.969  58.373 -61.027  1.00  0.00     0.279 HD
HETATM   11  H   UNL     1     -44.180  57.045 -61.532  1.00  0.00     0.279 HD
HETATM   12  C   UNL     1     -42.156  56.948 -59.971  1.00  0.00     0.046 C 
HETATM   13  C   UNL     1     -42.703  59.221 -60.780  1.00  0.00     0.046 C 
HETATM   14  C   UNL     1     -43.610  58.544 -58.551  1.00  0.00     0.073 C 
ENDBRANCH   1   3
BRANCH   1  15
HETATM   15  C   UNL     1     -42.793  56.830 -56.277  1.00  0.00     0.312 C 
BRANCH  15  16
HETATM   16  C   UNL     1     -43.222  56.514 -54.884  1.00  0.00     0.014 A 
HETATM   17  C   UNL     1     -42.711  55.581 -53.915  1.00  0.00     0.071 A 
HETATM   18  N   UNL     1     -43.425  55.651 -52.781  1.00  0.00    -0.178 NA
HETATM   19  N   UNL     1     -44.346  56.591 -52.996  1.00  0.00    -0.288 N 
HETATM   20  H   UNL     1     -44.989  56.815 -52.242  1.00  0.00     0.188 HD
HETATM   21  C   UNL     1     -44.279  57.130 -54.237  1.00  0.00     0.120 A 
BRANCH  17  22
HETATM   22  C   UNL     1     -41.522  54.614 -53.946  1.00  0.00    -0.004 C 
HETATM   23  C   UNL     1     -41.135  54.244 -52.501  1.00  0.00     0.021 C 
HETATM   24  C   UNL     1     -41.892  53.305 -54.693  1.00  0.00     0.021 C 
HETATM   25  C   UNL     1     -40.288  55.187 -54.666  1.00  0.00     0.021 C 
ENDBRANCH  17  22
ENDBRANCH  15  16
ENDBRANCH   1  15
TORSDOF 4
ENDMDL
MODEL 7
REMARK VINA RESULT:      -6.1     15.667     18.134
REMARK  4 active torsions:
REMARK  status: ('A' for Active; 'I' for Inactive)
REMARK    1  A    between atoms: C_11  and  N_12 
REMARK    2  A    between atoms: N_12  and  C_13 
REMARK    3  A    between atoms: C_13  and  C_14 
REMARK    4  A    between atoms: C_15  and  C_16 
ROOT
HETATM    1  N   UNL     1     -42.679  56.389 -55.916  1.00  0.00     0.092 N 
HETATM    2  H   UNL     1     -42.049  55.964 -56.592  1.00  0.00     0.316 HD
ENDROOT
BRANCH   1   3
HETATM    3  C   UNL     1     -43.299  55.423 -55.016  1.00  0.00     0.225 C 
HETATM    4  C   UNL     1     -43.348  55.950 -53.574  1.00  0.00     0.073 C 
HETATM    5  C   UNL     1     -42.022  55.934 -52.802  1.00  0.00     0.121 C 
HETATM    6  N   UNL     1     -41.355  54.580 -52.960  1.00  0.00    -0.059 N 
HETATM    7  C   UNL     1     -41.054  57.058 -53.184  1.00  0.00     0.046 C 
HETATM    8  C   UNL     1     -42.311  56.078 -51.291  1.00  0.00     0.046 C 
HETATM    9  C   UNL     1     -41.281  53.916 -54.316  1.00  0.00     0.121 C 
HETATM   10  H   UNL     1     -41.849  53.930 -52.332  1.00  0.00     0.279 HD
HETATM   11  H   UNL     1     -40.404  54.637 -52.566  1.00  0.00     0.279 HD
HETATM   12  C   UNL     1     -40.075  54.451 -55.096  1.00  0.00     0.046 C 
HETATM   13  C   UNL     1     -41.017  52.419 -54.046  1.00  0.00     0.046 C 
HETATM   14  C   UNL     1     -42.627  54.047 -55.051  1.00  0.00     0.073 C 
ENDBRANCH   1   3
BRANCH   1  15
HETATM   15  C   UNL     1     -43.666  57.138 -56.711  1.00  0.00     0.312 C 
BRANCH  15  16
HETATM   16  C   UNL     1     -43.418  56.804 -58.143  1.00  0.00     0.014 A 
HETATM   17  C   UNL     1     -43.016  57.619 -59.258  1.00  0.00     0.071 A 
HETATM   18  N   UNL     1     -42.915  56.871 -60.368  1.00  0.00    -0.178 NA
HETATM   19  N   UNL     1     -43.222  55.629 -59.991  1.00  0.00    -0.288 N 
HETATM   20  H   UNL     1     -43.189  54.892 -60.690  1.00  0.00     0.188 HD
HETATM   21  C   UNL     1     -43.542  55.533 -58.678  1.00  0.00     0.120 A 
BRANCH  17  22
HETATM   22  C   UNL     1     -42.657  59.104 -59.371  1.00  0.00    -0.004 C 
HETATM   23  C   UNL     1     -42.015  59.366 -60.747  1.00  0.00     0.021 C 
HETATM   24  C   UNL     1     -43.924  59.992 -59.257  1.00  0.00     0.021 C 
HETATM   25  C   UNL     1     -41.694  59.584 -58.268  1.00  0.00     0.021 C 
ENDBRANCH  17  22
ENDBRANCH  15  16
ENDBRANCH   1  15
TORSDOF 4
ENDMDL
MODEL 8
REMARK VINA RESULT:      -6.0     15.319     17.760
REMARK  4 active torsions:
REMARK  status: ('A' for Active; 'I' for Inactive)
REMARK    1  A    between atoms: C_11  and  N_12 
REMARK    2  A    between atoms: N_12  and  C_13 
REMARK    3  A    between atoms: C_13  and  C_14 
REMARK    4  A    between atoms: C_15  and  C_16 
ROOT
HETATM    1  N   UNL     1     -43.223  56.048 -54.677  1.00  0.00     0.092 N 
HETATM    2  H   UNL     1     -42.350  56.503 -54.421  1.00  0.00     0.316 HD
ENDROOT
BRANCH   1   3
HETATM    3  C   UNL     1     -43.381  54.724 -54.085  1.00  0.00     0.225 C 
HETATM    4  C   UNL     1     -43.282  54.780 -52.553  1.00  0.00     0.073 C 
HETATM    5  C   UNL     1     -41.873  54.957 -51.971  1.00  0.00     0.121 C 
HETATM    6  N   UNL     1     -40.920  53.979 -52.633  1.00  0.00    -0.059 N 
HETATM    7  C   UNL     1     -41.326  56.385 -52.062  1.00  0.00     0.046 C 
HETATM    8  C   UNL     1     -41.888  54.571 -50.475  1.00  0.00     0.046 C 
HETATM    9  C   UNL     1     -40.943  53.782 -54.132  1.00  0.00     0.121 C 
HETATM   10  H   UNL     1     -41.094  53.058 -52.205  1.00  0.00     0.279 HD
HETATM   11  H   UNL     1     -39.959  54.212 -52.344  1.00  0.00     0.279 HD
HETATM   12  C   UNL     1     -40.095  54.862 -54.815  1.00  0.00     0.046 C 
HETATM   13  C   UNL     1     -40.250  52.429 -54.397  1.00  0.00     0.046 C 
HETATM   14  C   UNL     1     -42.393  53.693 -54.639  1.00  0.00     0.073 C 
ENDBRANCH   1   3
BRANCH   1  15
HETATM   15  C   UNL     1     -43.235  56.016 -56.149  1.00  0.00     0.312 C 
BRANCH  15  16
HETATM   16  C   UNL     1     -42.806  57.365 -56.619  1.00  0.00     0.014 A 
HETATM   17  C   UNL     1     -42.803  57.964 -57.927  1.00  0.00     0.071 A 
HETATM   18  N   UNL     1     -42.323  59.215 -57.864  1.00  0.00    -0.178 NA
HETATM   19  N   UNL     1     -42.041  59.425 -56.577  1.00  0.00    -0.288 N 
HETATM   20  H   UNL     1     -41.676  60.334 -56.307  1.00  0.00     0.188 HD
HETATM   21  C   UNL     1     -42.297  58.351 -55.793  1.00  0.00     0.120 A 
BRANCH  17  22
HETATM   22  C   UNL     1     -43.278  57.456 -59.293  1.00  0.00    -0.004 C 
HETATM   23  C   UNL     1     -42.503  56.173 -59.652  1.00  0.00     0.021 C 
HETATM   24  C   UNL     1     -44.790  57.109 -59.261  1.00  0.00     0.021 C 
HETATM   25  C   UNL     1     -43.095  58.486 -60.423  1.00  0.00     0.021 C 
ENDBRANCH  17  22
ENDBRANCH  15  16
ENDBRANCH   1  15
TORSDOF 4
ENDMDL
MODEL 9
REMARK VINA RESULT:      -6.0     15.478     17.762
REMARK  4 active torsions:
REMARK  status: ('A' for Active; 'I' for Inactive)
REMARK    1  A    between atoms: C_11  and  N_12 
REMARK    2  A    between atoms: N_12  and  C_13 
REMARK    3  A    between atoms: C_13  and  C_14 
REMARK    4  A    between atoms: C_15  and  C_16 
ROOT
HETATM    1  N   UNL     1     -42.526  56.739 -54.179  1.00  0.00     0.092 N 
HETATM    2  H   UNL     1     -43.005  57.513 -53.724  1.00  0.00     0.316 HD
ENDROOT
BRANCH   1   3
HETATM    3  C   UNL     1     -41.248  56.406 -53.560  1.00  0.00     0.225 C 
HETATM    4  C   UNL     1     -40.558  55.246 -54.292  1.00  0.00     0.073 C 
HETATM    5  C   UNL     1     -41.133  53.846 -54.038  1.00  0.00     0.121 C 
HETATM    6  N   UNL     1     -41.321  53.633 -52.547  1.00  0.00    -0.059 N 
HETATM    7  C   UNL     1     -42.433  53.551 -54.792  1.00  0.00     0.046 C 
HETATM    8  C   UNL     1     -40.101  52.784 -54.480  1.00  0.00     0.046 C 
HETATM    9  C   UNL     1     -41.941  54.714 -51.692  1.00  0.00     0.121 C 
HETATM   10  H   UNL     1     -40.389  53.435 -52.155  1.00  0.00     0.279 HD
HETATM   11  H   UNL     1     -41.845  52.757 -52.406  1.00  0.00     0.279 HD
HETATM   12  C   UNL     1     -43.470  54.624 -51.761  1.00  0.00     0.046 C 
HETATM   13  C   UNL     1     -41.536  54.394 -50.237  1.00  0.00     0.046 C 
HETATM   14  C   UNL     1     -41.364  56.091 -52.065  1.00  0.00     0.073 C 
ENDBRANCH   1   3
BRANCH   1  15
HETATM   15  C   UNL     1     -42.388  57.136 -55.590  1.00  0.00     0.312 C 
BRANCH  15  16
HETATM   16  C   UNL     1     -43.754  57.467 -56.088  1.00  0.00     0.014 A 
HETATM   17  C   UNL     1     -44.280  57.589 -57.421  1.00  0.00     0.071 A 
HETATM   18  N   UNL     1     -45.584  57.904 -57.378  1.00  0.00    -0.178 NA
HETATM   19  N   UNL     1     -45.894  57.969 -56.082  1.00  0.00    -0.288 N 
HETATM   20  H   UNL     1     -46.854  58.181 -55.827  1.00  0.00     0.188 HD
HETATM   21  C   UNL     1     -44.837  57.730 -55.269  1.00  0.00     0.120 A 
BRANCH  17  22
HETATM   22  C   UNL     1     -43.647  57.383 -58.801  1.00  0.00    -0.004 C 
HETATM   23  C   UNL     1     -44.687  57.715 -59.889  1.00  0.00     0.021 C 
HETATM   24  C   UNL     1     -42.429  58.324 -58.999  1.00  0.00     0.021 C 
HETATM   25  C   UNL     1     -43.126  55.951 -59.024  1.00  0.00     0.021 C 
ENDBRANCH  17  22
ENDBRANCH  15  16
ENDBRANCH   1  15
TORSDOF 4
ENDMDL
MODEL 10
REMARK VINA RESULT:      -5.9     15.956     17.511
REMARK  4 active torsions:
REMARK  status: ('A' for Active; 'I' for Inactive)
REMARK    1  A    between atoms: C_11  and  N_12 
REMARK    2  A    between atoms: N_12  and  C_13 
REMARK    3  A    between atoms: C_13  and  C_14 
REMARK    4  A    between atoms: C_15  and  C_16 
ROOT
HETATM    1  N   UNL     1     -43.941  57.771 -53.567  1.00  0.00     0.092 N 
HETATM    2  H   UNL     1     -44.455  58.647 -53.623  1.00  0.00     0.316 HD
ENDROOT
BRANCH   1   3
HETATM    3  C   UNL     1     -44.271  56.835 -54.635  1.00  0.00     0.225 C 
HETATM    4  C   UNL     1     -43.327  55.624 -54.631  1.00  0.00     0.073 C 
HETATM    5  C   UNL     1     -41.913  55.866 -55.176  1.00  0.00     0.121 C 
HETATM    6  N   UNL     1     -41.994  56.603 -56.500  1.00  0.00    -0.059 N 
HETATM    7  C   UNL     1     -40.980  56.601 -54.209  1.00  0.00     0.046 C 
HETATM    8  C   UNL     1     -41.252  54.507 -55.499  1.00  0.00     0.046 C 
HETATM    9  C   UNL     1     -42.924  57.784 -56.664  1.00  0.00     0.121 C 
HETATM   10  H   UNL     1     -42.262  55.907 -57.211  1.00  0.00     0.279 HD
HETATM   11  H   UNL     1     -41.043  56.889 -56.774  1.00  0.00     0.279 HD
HETATM   12  C   UNL     1     -42.245  59.059 -56.150  1.00  0.00     0.046 C 
HETATM   13  C   UNL     1     -43.127  57.962 -58.184  1.00  0.00     0.046 C 
HETATM   14  C   UNL     1     -44.290  57.484 -56.023  1.00  0.00     0.073 C 
ENDBRANCH   1   3
BRANCH   1  15
HETATM   15  C   UNL     1     -44.231  57.230 -52.228  1.00  0.00     0.312 C 
BRANCH  15  16
HETATM   16  C   UNL     1     -42.986  57.373 -51.419  1.00  0.00     0.014 A 
HETATM   17  C   UNL     1     -42.197  56.408 -50.702  1.00  0.00     0.071 A 
HETATM   18  N   UNL     1     -41.148  57.007 -50.117  1.00  0.00    -0.178 NA
HETATM   19  N   UNL     1     -41.242  58.295 -50.450  1.00  0.00    -0.288 N 
HETATM   20  H   UNL     1     -40.523  58.931 -50.117  1.00  0.00     0.188 HD
HETATM   21  C   UNL     1     -42.326  58.572 -51.214  1.00  0.00     0.120 A 
BRANCH  17  22
HETATM   22  C   UNL     1     -42.322  54.888 -50.545  1.00  0.00    -0.004 C 
HETATM   23  C   UNL     1     -43.812  54.512 -50.437  1.00  0.00     0.021 C 
HETATM   24  C   UNL     1     -41.731  54.153 -51.778  1.00  0.00     0.021 C 
HETATM   25  C   UNL     1     -41.574  54.339 -49.316  1.00  0.00     0.021 C 
ENDBRANCH  17  22
ENDBRANCH  15  16
ENDBRANCH   1  15
TORSDOF 4
ENDMDL
