MODEL 1
REMARK VINA RESULT:      -8.5      0.000      0.000
REMARK  5 active torsions:
REMARK  status: ('A' for Active; 'I' for Inactive)
REMARK    1  A    between atoms: C_2  and  C_3 
REMARK    2  A    between atoms: C_7  and  N_8 
REMARK    3  A    between atoms: C_13  and  N_14 
REMARK       I    between atoms: N_14  and  C_15 
REMARK    4  A    between atoms: C_15  and  C_16 
REMARK       I    between atoms: C_16  and  N_17 
REMARK    5  A    between atoms: N_17  and  C_18 
ROOT
HETATM    1  N   UNL     1     -41.412  59.163 -53.298  1.00  0.00    -0.045 N 
HETATM    2  N   UNL     1     -40.086  59.109 -53.009  1.00  0.00    -0.156 NA
HETATM    3  C   UNL     1     -40.040  59.198 -51.675  1.00  0.00     0.055 A 
HETATM    4  C   UNL     1     -38.737  59.186 -50.963  1.00  0.00     0.072 C 
HETATM    5  C   UNL     1     -41.336  59.294 -51.102  1.00  0.00     0.079 A 
HETATM    6  C   UNL     1     -42.207  59.287 -52.165  1.00  0.00     0.152 A 
ENDROOT
BRANCH   6   7
HETATM    7  N   UNL     1     -43.592  59.329 -52.214  1.00  0.00    -0.303 N 
HETATM    8  C   UNL     1     -44.549  58.284 -52.115  1.00  0.00     0.315 C 
HETATM    9  O   UNL     1     -45.697  58.561 -52.426  1.00  0.00    -0.262 OA
HETATM   10  H   UNL     1     -44.004  60.255 -52.366  1.00  0.00     0.171 HD
BRANCH   8  11
HETATM   11  C   UNL     1     -44.201  56.860 -51.665  1.00  0.00     0.310 C 
HETATM   12  N   UNL     1     -43.575  56.106 -52.644  1.00  0.00    -0.348 N 
HETATM   13  H   UNL     1     -43.518  56.523 -53.567  1.00  0.00     0.163 HD
HETATM   14  O   UNL     1     -44.519  56.463 -50.555  1.00  0.00    -0.262 OA
BRANCH  12  15
HETATM   15  C   UNL     1     -43.423  54.665 -52.529  1.00  0.00     0.085 C 
HETATM   16  C   UNL     1     -42.588  54.058 -53.668  1.00  0.00     0.034 C 
HETATM   17  C   UNL     1     -41.060  54.263 -53.562  1.00  0.00    -0.045 C 
HETATM   18  C   UNL     1     -40.646  55.692 -53.954  1.00  0.00     0.015 C 
HETATM   19  C   UNL     1     -40.379  53.322 -54.585  1.00  0.00     0.015 C 
HETATM   20  C   UNL     1     -40.556  53.881 -52.150  1.00  0.00     0.013 C 
HETATM   21  C   UNL     1     -41.370  54.400 -50.953  1.00  0.00    -0.016 C 
HETATM   22  C   UNL     1     -42.886  54.253 -51.154  1.00  0.00     0.029 C 
HETATM   23  C   UNL     1     -40.946  55.793 -50.484  1.00  0.00     0.010 C 
ENDBRANCH  12  15
ENDBRANCH   8  11
ENDBRANCH   6   7
BRANCH   1  24
HETATM   24  C   UNL     1     -41.873  59.069 -54.619  1.00  0.00     0.732 A 
HETATM   25  N   UNL     1     -41.775  60.246 -55.293  1.00  0.00    -0.152 N 
HETATM   26  C   UNL     1     -42.121  60.333 -56.604  1.00  0.00     0.268 A 
HETATM   27  H   UNL     1     -41.388  61.066 -54.838  1.00  0.00     0.188 HD
HETATM   28  C   UNL     1     -42.680  59.086 -57.205  1.00  0.00     0.035 A 
HETATM   29  O   UNL     1     -41.973  61.367 -57.244  1.00  0.00    -0.267 OA
HETATM   30  C   UNL     1     -42.749  57.989 -56.420  1.00  0.00     0.061 A 
HETATM   31  N   UNL     1     -42.323  57.955 -55.107  1.00  0.00    -0.067 NA
HETATM   32  C   UNL     1     -43.284  56.662 -56.901  1.00  0.00     0.072 C 
BRANCH  28  33
HETATM   33  C   UNL     1     -43.150  59.195 -58.633  1.00  0.00     0.042 C 
HETATM   34  C   UNL     1     -42.081  58.743 -59.619  1.00  0.00     0.010 C 
ENDBRANCH  28  33
ENDBRANCH   1  24
TORSDOF 5
ENDMDL
MODEL 2
REMARK VINA RESULT:      -8.4      2.709      5.323
REMARK  5 active torsions:
REMARK  status: ('A' for Active; 'I' for Inactive)
REMARK    1  A    between atoms: C_2  and  C_3 
REMARK    2  A    between atoms: C_7  and  N_8 
REMARK    3  A    between atoms: C_13  and  N_14 
REMARK       I    between atoms: N_14  and  C_15 
REMARK    4  A    between atoms: C_15  and  C_16 
REMARK       I    between atoms: C_16  and  N_17 
REMARK    5  A    between atoms: N_17  and  C_18 
ROOT
HETATM    1  N   UNL     1     -44.152  57.671 -51.101  1.00  0.00    -0.045 N 
HETATM    2  N   UNL     1     -44.840  56.564 -50.716  1.00  0.00    -0.156 NA
HETATM    3  C   UNL     1     -43.901  55.617 -50.617  1.00  0.00     0.055 A 
HETATM    4  C   UNL     1     -44.264  54.232 -50.222  1.00  0.00     0.072 C 
HETATM    5  C   UNL     1     -42.606  56.115 -50.925  1.00  0.00     0.079 A 
HETATM    6  C   UNL     1     -42.792  57.437 -51.251  1.00  0.00     0.152 A 
ENDROOT
BRANCH   6   7
HETATM    7  N   UNL     1     -41.888  58.427 -51.606  1.00  0.00    -0.303 N 
HETATM    8  C   UNL     1     -41.128  58.597 -52.794  1.00  0.00     0.315 C 
HETATM    9  O   UNL     1     -40.231  59.425 -52.756  1.00  0.00    -0.262 OA
HETATM   10  H   UNL     1     -41.717  59.147 -50.898  1.00  0.00     0.171 HD
BRANCH   8  11
HETATM   11  C   UNL     1     -41.371  57.791 -54.075  1.00  0.00     0.310 C 
HETATM   12  N   UNL     1     -40.946  56.475 -53.992  1.00  0.00    -0.348 N 
HETATM   13  H   UNL     1     -40.427  56.221 -53.159  1.00  0.00     0.163 HD
HETATM   14  O   UNL     1     -41.849  58.324 -55.064  1.00  0.00    -0.262 OA
BRANCH  12  15
HETATM   15  C   UNL     1     -40.818  55.631 -55.169  1.00  0.00     0.085 C 
HETATM   16  C   UNL     1     -40.069  54.319 -54.884  1.00  0.00     0.034 C 
HETATM   17  C   UNL     1     -40.882  53.230 -54.148  1.00  0.00    -0.045 C 
HETATM   18  C   UNL     1     -41.017  53.535 -52.645  1.00  0.00     0.015 C 
HETATM   19  C   UNL     1     -40.098  51.899 -54.246  1.00  0.00     0.015 C 
HETATM   20  C   UNL     1     -42.258  53.027 -54.823  1.00  0.00     0.013 C 
HETATM   21  C   UNL     1     -43.049  54.292 -55.195  1.00  0.00    -0.016 C 
HETATM   22  C   UNL     1     -42.170  55.375 -55.841  1.00  0.00     0.029 C 
HETATM   23  C   UNL     1     -43.931  54.816 -54.061  1.00  0.00     0.010 C 
ENDBRANCH  12  15
ENDBRANCH   8  11
ENDBRANCH   6   7
BRANCH   1  24
HETATM   24  C   UNL     1     -44.800  58.902 -51.286  1.00  0.00     0.732 A 
HETATM   25  N   UNL     1     -45.224  59.451 -50.117  1.00  0.00    -0.152 N 
HETATM   26  C   UNL     1     -45.823  60.671 -50.093  1.00  0.00     0.268 A 
HETATM   27  H   UNL     1     -45.050  58.979 -49.235  1.00  0.00     0.188 HD
HETATM   28  C   UNL     1     -46.043  61.304 -51.427  1.00  0.00     0.035 A 
HETATM   29  O   UNL     1     -46.148  61.211 -49.043  1.00  0.00    -0.267 OA
HETATM   30  C   UNL     1     -45.596  60.641 -52.517  1.00  0.00     0.061 A 
HETATM   31  N   UNL     1     -44.941  59.427 -52.462  1.00  0.00    -0.067 NA
HETATM   32  C   UNL     1     -45.744  61.170 -53.923  1.00  0.00     0.072 C 
BRANCH  28  33
HETATM   33  C   UNL     1     -46.785  62.616 -51.420  1.00  0.00     0.042 C 
HETATM   34  C   UNL     1     -45.837  63.805 -51.348  1.00  0.00     0.010 C 
ENDBRANCH  28  33
ENDBRANCH   1  24
TORSDOF 5
ENDMDL
MODEL 3
REMARK VINA RESULT:      -8.3      2.684      6.792
REMARK  5 active torsions:
REMARK  status: ('A' for Active; 'I' for Inactive)
REMARK    1  A    between atoms: C_2  and  C_3 
REMARK    2  A    between atoms: C_7  and  N_8 
REMARK    3  A    between atoms: C_13  and  N_14 
REMARK       I    between atoms: N_14  and  C_15 
REMARK    4  A    between atoms: C_15  and  C_16 
REMARK       I    between atoms: C_16  and  N_17 
REMARK    5  A    between atoms: N_17  and  C_18 
ROOT
HETATM    1  N   UNL     1     -42.018  54.790 -54.325  1.00  0.00    -0.045 N 
HETATM    2  N   UNL     1     -41.676  55.283 -55.543  1.00  0.00    -0.156 NA
HETATM    3  C   UNL     1     -42.554  56.271 -55.751  1.00  0.00     0.055 A 
HETATM    4  C   UNL     1     -42.515  57.064 -57.006  1.00  0.00     0.072 C 
HETATM    5  C   UNL     1     -43.454  56.423 -54.662  1.00  0.00     0.079 A 
HETATM    6  C   UNL     1     -43.103  55.448 -53.760  1.00  0.00     0.152 A 
ENDROOT
BRANCH   6   7
HETATM    7  N   UNL     1     -43.608  55.136 -52.506  1.00  0.00    -0.303 N 
HETATM    8  C   UNL     1     -43.213  55.582 -51.217  1.00  0.00     0.315 C 
HETATM    9  O   UNL     1     -43.670  54.971 -50.263  1.00  0.00    -0.262 OA
HETATM   10  H   UNL     1     -44.379  54.461 -52.493  1.00  0.00     0.171 HD
BRANCH   8  11
HETATM   11  C   UNL     1     -42.249  56.751 -50.987  1.00  0.00     0.310 C 
HETATM   12  N   UNL     1     -42.820  57.994 -51.206  1.00  0.00    -0.348 N 
HETATM   13  H   UNL     1     -43.755  57.997 -51.597  1.00  0.00     0.163 HD
HETATM   14  O   UNL     1     -41.081  56.546 -50.693  1.00  0.00    -0.262 OA
BRANCH  12  15
HETATM   15  C   UNL     1     -42.018  59.201 -51.326  1.00  0.00     0.085 C 
HETATM   16  C   UNL     1     -42.057  59.806 -52.738  1.00  0.00     0.034 C 
HETATM   17  C   UNL     1     -43.343  60.583 -53.100  1.00  0.00    -0.045 C 
HETATM   18  C   UNL     1     -44.511  59.634 -53.423  1.00  0.00     0.015 C 
HETATM   19  C   UNL     1     -43.070  61.383 -54.397  1.00  0.00     0.015 C 
HETATM   20  C   UNL     1     -43.705  61.588 -51.983  1.00  0.00     0.013 C 
HETATM   21  C   UNL     1     -43.636  61.078 -50.533  1.00  0.00    -0.016 C 
HETATM   22  C   UNL     1     -42.380  60.237 -50.258  1.00  0.00     0.029 C 
HETATM   23  C   UNL     1     -44.930  60.421 -50.055  1.00  0.00     0.010 C 
ENDBRANCH  12  15
ENDBRANCH   8  11
ENDBRANCH   6   7
BRANCH   1  24
HETATM   24  C   UNL     1     -41.296  53.740 -53.736  1.00  0.00     0.732 A 
HETATM   25  N   UNL     1     -40.739  54.090 -52.547  1.00  0.00    -0.152 N 
HETATM   26  C   UNL     1     -40.050  53.185 -51.803  1.00  0.00     0.268 A 
HETATM   27  H   UNL     1     -40.877  55.023 -52.170  1.00  0.00     0.188 HD
HETATM   28  C   UNL     1     -39.890  51.836 -52.420  1.00  0.00     0.035 A 
HETATM   29  O   UNL     1     -39.602  53.465 -50.698  1.00  0.00    -0.267 OA
HETATM   30  C   UNL     1     -40.471  51.623 -53.621  1.00  0.00     0.061 A 
HETATM   31  N   UNL     1     -41.210  52.575 -54.297  1.00  0.00    -0.067 NA
HETATM   32  C   UNL     1     -40.396  50.305 -54.354  1.00  0.00     0.072 C 
BRANCH  28  33
HETATM   33  C   UNL     1     -39.053  50.851 -51.645  1.00  0.00     0.042 C 
HETATM   34  C   UNL     1     -39.894  50.019 -50.688  1.00  0.00     0.010 C 
ENDBRANCH  28  33
ENDBRANCH   1  24
TORSDOF 5
ENDMDL
MODEL 4
REMARK VINA RESULT:      -8.3      2.902      7.081
REMARK  5 active torsions:
REMARK  status: ('A' for Active; 'I' for Inactive)
REMARK    1  A    between atoms: C_2  and  C_3 
REMARK    2  A    between atoms: C_7  and  N_8 
REMARK    3  A    between atoms: C_13  and  N_14 
REMARK       I    between atoms: N_14  and  C_15 
REMARK    4  A    between atoms: C_15  and  C_16 
REMARK       I    between atoms: C_16  and  N_17 
REMARK    5  A    between atoms: N_17  and  C_18 
ROOT
HETATM    1  N   UNL     1     -42.156  54.533 -54.311  1.00  0.00    -0.045 N 
HETATM    2  N   UNL     1     -41.902  54.803 -55.617  1.00  0.00    -0.156 NA
HETATM    3  C   UNL     1     -42.806  55.735 -55.937  1.00  0.00     0.055 A 
HETATM    4  C   UNL     1     -42.860  56.293 -57.313  1.00  0.00     0.072 C 
HETATM    5  C   UNL     1     -43.635  56.075 -54.835  1.00  0.00     0.079 A 
HETATM    6  C   UNL     1     -43.212  55.277 -53.800  1.00  0.00     0.152 A 
ENDROOT
BRANCH   6   7
HETATM    7  N   UNL     1     -43.630  55.191 -52.480  1.00  0.00    -0.303 N 
HETATM    8  C   UNL     1     -43.197  55.901 -51.329  1.00  0.00     0.315 C 
HETATM    9  O   UNL     1     -43.563  55.466 -50.248  1.00  0.00    -0.262 OA
HETATM   10  H   UNL     1     -44.354  54.492 -52.288  1.00  0.00     0.171 HD
BRANCH   8  11
HETATM   11  C   UNL     1     -42.298  57.141 -51.390  1.00  0.00     0.310 C 
HETATM   12  N   UNL     1     -42.928  58.305 -50.981  1.00  0.00    -0.348 N 
HETATM   13  H   UNL     1     -43.924  58.238 -50.799  1.00  0.00     0.163 HD
HETATM   14  O   UNL     1     -41.158  57.063 -51.821  1.00  0.00    -0.262 OA
BRANCH  12  15
HETATM   15  C   UNL     1     -42.360  59.619 -51.231  1.00  0.00     0.085 C 
HETATM   16  C   UNL     1     -42.571  60.096 -52.677  1.00  0.00     0.034 C 
HETATM   17  C   UNL     1     -43.991  60.607 -53.014  1.00  0.00    -0.045 C 
HETATM   18  C   UNL     1     -44.986  59.448 -53.199  1.00  0.00     0.015 C 
HETATM   19  C   UNL     1     -43.926  61.339 -54.376  1.00  0.00     0.015 C 
HETATM   20  C   UNL     1     -44.473  61.619 -51.948  1.00  0.00     0.013 C 
HETATM   21  C   UNL     1     -44.246  61.244 -50.474  1.00  0.00    -0.016 C 
HETATM   22  C   UNL     1     -42.849  60.658 -50.217  1.00  0.00     0.029 C 
HETATM   23  C   UNL     1     -45.379  60.412 -49.874  1.00  0.00     0.010 C 
ENDBRANCH  12  15
ENDBRANCH   8  11
ENDBRANCH   6   7
BRANCH   1  24
HETATM   24  C   UNL     1     -41.382  53.607 -53.596  1.00  0.00     0.732 A 
HETATM   25  N   UNL     1     -41.089  52.496 -54.323  1.00  0.00    -0.152 N 
HETATM   26  C   UNL     1     -40.299  51.514 -53.814  1.00  0.00     0.268 A 
HETATM   27  H   UNL     1     -41.413  52.410 -55.281  1.00  0.00     0.188 HD
HETATM   28  C   UNL     1     -39.859  51.711 -52.402  1.00  0.00     0.035 A 
HETATM   29  O   UNL     1     -39.969  50.541 -54.481  1.00  0.00    -0.267 OA
HETATM   30  C   UNL     1     -40.241  52.848 -51.779  1.00  0.00     0.061 A 
HETATM   31  N   UNL     1     -40.998  53.835 -52.379  1.00  0.00    -0.067 NA
HETATM   32  C   UNL     1     -39.859  53.179 -50.357  1.00  0.00     0.072 C 
BRANCH  28  33
HETATM   33  C   UNL     1     -39.057  50.587 -51.797  1.00  0.00     0.042 C 
HETATM   34  C   UNL     1     -39.923  49.656 -50.962  1.00  0.00     0.010 C 
ENDBRANCH  28  33
ENDBRANCH   1  24
TORSDOF 5
ENDMDL
MODEL 5
REMARK VINA RESULT:      -8.2      2.632      5.071
REMARK  5 active torsions:
REMARK  status: ('A' for Active; 'I' for Inactive)
REMARK    1  A    between atoms: C_2  and  C_3 
REMARK    2  A    between atoms: C_7  and  N_8 
REMARK    3  A    between atoms: C_13  and  N_14 
REMARK       I    between atoms: N_14  and  C_15 
REMARK    4  A    between atoms: C_15  and  C_16 
REMARK       I    between atoms: C_16  and  N_17 
REMARK    5  A    between atoms: N_17  and  C_18 
ROOT
HETATM    1  N   UNL     1     -41.773  60.071 -51.172  1.00  0.00    -0.045 N 
HETATM    2  N   UNL     1     -40.645  59.908 -50.433  1.00  0.00    -0.156 NA
HETATM    3  C   UNL     1     -39.794  59.303 -51.270  1.00  0.00     0.055 A 
HETATM    4  C   UNL     1     -38.426  58.938 -50.821  1.00  0.00     0.072 C 
HETATM    5  C   UNL     1     -40.368  59.090 -52.552  1.00  0.00     0.079 A 
HETATM    6  C   UNL     1     -41.650  59.576 -52.464  1.00  0.00     0.152 A 
ENDROOT
BRANCH   6   7
HETATM    7  N   UNL     1     -42.663  59.662 -53.407  1.00  0.00    -0.303 N 
HETATM    8  C   UNL     1     -43.624  58.700 -53.818  1.00  0.00     0.315 C 
HETATM    9  O   UNL     1     -44.252  58.953 -54.835  1.00  0.00    -0.262 OA
HETATM   10  H   UNL     1     -42.726  60.552 -53.912  1.00  0.00     0.171 HD
BRANCH   8  11
HETATM   11  C   UNL     1     -43.879  57.389 -53.066  1.00  0.00     0.310 C 
HETATM   12  N   UNL     1     -43.139  56.320 -53.546  1.00  0.00    -0.348 N 
HETATM   13  H   UNL     1     -42.608  56.485 -54.394  1.00  0.00     0.163 HD
HETATM   14  O   UNL     1     -44.709  57.335 -52.172  1.00  0.00    -0.262 OA
BRANCH  12  15
HETATM   15  C   UNL     1     -43.437  54.947 -53.176  1.00  0.00     0.085 C 
HETATM   16  C   UNL     1     -42.692  53.918 -54.041  1.00  0.00     0.034 C 
HETATM   17  C   UNL     1     -41.195  53.720 -53.707  1.00  0.00    -0.045 C 
HETATM   18  C   UNL     1     -40.332  54.874 -54.248  1.00  0.00     0.015 C 
HETATM   19  C   UNL     1     -40.708  52.443 -54.432  1.00  0.00     0.015 C 
HETATM   20  C   UNL     1     -40.999  53.514 -52.187  1.00  0.00     0.013 C 
HETATM   21  C   UNL     1     -41.758  54.465 -51.247  1.00  0.00    -0.016 C 
HETATM   22  C   UNL     1     -43.214  54.695 -51.681  1.00  0.00     0.029 C 
HETATM   23  C   UNL     1     -40.998  55.757 -50.944  1.00  0.00     0.010 C 
ENDBRANCH  12  15
ENDBRANCH   8  11
ENDBRANCH   6   7
BRANCH   1  24
HETATM   24  C   UNL     1     -42.905  60.707 -50.640  1.00  0.00     0.732 A 
HETATM   25  N   UNL     1     -43.927  59.843 -50.401  1.00  0.00    -0.152 N 
HETATM   26  C   UNL     1     -45.085  60.269 -49.832  1.00  0.00     0.268 A 
HETATM   27  H   UNL     1     -43.817  58.853 -50.595  1.00  0.00     0.188 HD
HETATM   28  C   UNL     1     -45.172  61.736 -49.574  1.00  0.00     0.035 A 
HETATM   29  O   UNL     1     -45.988  59.492 -49.547  1.00  0.00    -0.267 OA
HETATM   30  C   UNL     1     -44.095  62.492 -49.882  1.00  0.00     0.061 A 
HETATM   31  N   UNL     1     -42.923  61.982 -50.406  1.00  0.00    -0.067 NA
HETATM   32  C   UNL     1     -44.044  63.985 -49.665  1.00  0.00     0.072 C 
BRANCH  28  33
HETATM   33  C   UNL     1     -46.486  62.233 -49.026  1.00  0.00     0.042 C 
HETATM   34  C   UNL     1     -46.483  62.286 -47.505  1.00  0.00     0.010 C 
ENDBRANCH  28  33
ENDBRANCH   1  24
TORSDOF 5
ENDMDL
MODEL 6
REMARK VINA RESULT:      -7.9      3.152      7.402
REMARK  5 active torsions:
REMARK  status: ('A' for Active; 'I' for Inactive)
REMARK    1  A    between atoms: C_2  and  C_3 
REMARK    2  A    between atoms: C_7  and  N_8 
REMARK    3  A    between atoms: C_13  and  N_14 
REMARK       I    between atoms: N_14  and  C_15 
REMARK    4  A    between atoms: C_15  and  C_16 
REMARK       I    between atoms: C_16  and  N_17 
REMARK    5  A    between atoms: N_17  and  C_18 
ROOT
HETATM    1  N   UNL     1     -41.467  54.740 -54.202  1.00  0.00    -0.045 N 
HETATM    2  N   UNL     1     -41.947  54.436 -55.436  1.00  0.00    -0.156 NA
HETATM    3  C   UNL     1     -42.354  55.613 -55.925  1.00  0.00     0.055 A 
HETATM    4  C   UNL     1     -42.962  55.699 -57.277  1.00  0.00     0.072 C 
HETATM    5  C   UNL     1     -42.124  56.677 -55.013  1.00  0.00     0.079 A 
HETATM    6  C   UNL     1     -41.568  56.092 -53.901  1.00  0.00     0.152 A 
ENDROOT
BRANCH   6   7
HETATM    7  N   UNL     1     -41.112  56.638 -52.710  1.00  0.00    -0.303 N 
HETATM    8  C   UNL     1     -41.808  57.351 -51.698  1.00  0.00     0.315 C 
HETATM    9  O   UNL     1     -41.124  57.927 -50.865  1.00  0.00    -0.262 OA
HETATM   10  H   UNL     1     -40.108  56.535 -52.530  1.00  0.00     0.171 HD
BRANCH   8  11
HETATM   11  C   UNL     1     -43.336  57.437 -51.625  1.00  0.00     0.310 C 
HETATM   12  N   UNL     1     -43.844  58.658 -52.040  1.00  0.00    -0.348 N 
HETATM   13  H   UNL     1     -43.165  59.386 -52.232  1.00  0.00     0.163 HD
HETATM   14  O   UNL     1     -43.992  56.507 -51.183  1.00  0.00    -0.262 OA
BRANCH  12  15
HETATM   15  C   UNL     1     -45.220  59.048 -51.781  1.00  0.00     0.085 C 
HETATM   16  C   UNL     1     -45.436  59.567 -50.350  1.00  0.00     0.034 C 
HETATM   17  C   UNL     1     -44.940  61.004 -50.076  1.00  0.00    -0.045 C 
HETATM   18  C   UNL     1     -43.410  61.060 -49.917  1.00  0.00     0.015 C 
HETATM   19  C   UNL     1     -45.529  61.464 -48.720  1.00  0.00     0.015 C 
HETATM   20  C   UNL     1     -45.443  61.973 -51.171  1.00  0.00     0.013 C 
HETATM   21  C   UNL     1     -45.318  61.506 -52.630  1.00  0.00    -0.016 C 
HETATM   22  C   UNL     1     -45.740  60.041 -52.826  1.00  0.00     0.029 C 
HETATM   23  C   UNL     1     -43.968  61.844 -53.265  1.00  0.00     0.010 C 
ENDBRANCH  12  15
ENDBRANCH   8  11
ENDBRANCH   6   7
BRANCH   1  24
HETATM   24  C   UNL     1     -40.914  53.752 -53.373  1.00  0.00     0.732 A 
HETATM   25  N   UNL     1     -40.416  52.699 -54.074  1.00  0.00    -0.152 N 
HETATM   26  C   UNL     1     -39.789  51.672 -53.442  1.00  0.00     0.268 A 
HETATM   27  H   UNL     1     -40.457  52.692 -55.088  1.00  0.00     0.188 HD
HETATM   28  C   UNL     1     -39.766  51.753 -51.952  1.00  0.00     0.035 A 
HETATM   29  O   UNL     1     -39.274  50.750 -54.063  1.00  0.00    -0.267 OA
HETATM   30  C   UNL     1     -40.320  52.842 -51.375  1.00  0.00     0.061 A 
HETATM   31  N   UNL     1     -40.890  53.881 -52.084  1.00  0.00    -0.067 NA
HETATM   32  C   UNL     1     -40.357  53.056 -49.881  1.00  0.00     0.072 C 
BRANCH  28  33
HETATM   33  C   UNL     1     -39.152  50.576 -51.237  1.00  0.00     0.042 C 
HETATM   34  C   UNL     1     -40.184  49.503 -50.921  1.00  0.00     0.010 C 
ENDBRANCH  28  33
ENDBRANCH   1  24
TORSDOF 5
ENDMDL
MODEL 7
REMARK VINA RESULT:      -7.7      3.050      7.205
REMARK  5 active torsions:
REMARK  status: ('A' for Active; 'I' for Inactive)
REMARK    1  A    between atoms: C_2  and  C_3 
REMARK    2  A    between atoms: C_7  and  N_8 
REMARK    3  A    between atoms: C_13  and  N_14 
REMARK       I    between atoms: N_14  and  C_15 
REMARK    4  A    between atoms: C_15  and  C_16 
REMARK       I    between atoms: C_16  and  N_17 
REMARK    5  A    between atoms: N_17  and  C_18 
ROOT
HETATM    1  N   UNL     1     -42.473  56.281 -53.571  1.00  0.00    -0.045 N 
HETATM    2  N   UNL     1     -43.737  56.055 -54.012  1.00  0.00    -0.156 NA
HETATM    3  C   UNL     1     -44.109  57.225 -54.543  1.00  0.00     0.055 A 
HETATM    4  C   UNL     1     -45.461  57.389 -55.135  1.00  0.00     0.072 C 
HETATM    5  C   UNL     1     -43.081  58.201 -54.457  1.00  0.00     0.079 A 
HETATM    6  C   UNL     1     -42.040  57.579 -53.811  1.00  0.00     0.152 A 
ENDROOT
BRANCH   6   7
HETATM    7  N   UNL     1     -40.771  58.028 -53.475  1.00  0.00    -0.303 N 
HETATM    8  C   UNL     1     -40.341  58.858 -52.407  1.00  0.00     0.315 C 
HETATM    9  O   UNL     1     -39.202  59.295 -52.476  1.00  0.00    -0.262 OA
HETATM   10  H   UNL     1     -40.016  57.737 -54.104  1.00  0.00     0.171 HD
BRANCH   8  11
HETATM   11  C   UNL     1     -41.232  59.232 -51.217  1.00  0.00     0.310 C 
HETATM   12  N   UNL     1     -42.094  60.285 -51.478  1.00  0.00    -0.348 N 
HETATM   13  H   UNL     1     -41.969  60.761 -52.364  1.00  0.00     0.163 HD
HETATM   14  O   UNL     1     -41.112  58.659 -50.145  1.00  0.00    -0.262 OA
BRANCH  12  15
HETATM   15  C   UNL     1     -42.808  60.979 -50.418  1.00  0.00     0.085 C 
HETATM   16  C   UNL     1     -42.752  62.508 -50.561  1.00  0.00     0.034 C 
HETATM   17  C   UNL     1     -43.685  63.115 -51.634  1.00  0.00    -0.045 C 
HETATM   18  C   UNL     1     -43.129  62.913 -53.055  1.00  0.00     0.015 C 
HETATM   19  C   UNL     1     -43.742  64.645 -51.409  1.00  0.00     0.015 C 
HETATM   20  C   UNL     1     -45.119  62.555 -51.489  1.00  0.00     0.013 C 
HETATM   21  C   UNL     1     -45.261  61.038 -51.283  1.00  0.00    -0.016 C 
HETATM   22  C   UNL     1     -44.248  60.477 -50.273  1.00  0.00     0.029 C 
HETATM   23  C   UNL     1     -45.324  60.248 -52.590  1.00  0.00     0.010 C 
ENDBRANCH  12  15
ENDBRANCH   8  11
ENDBRANCH   6   7
BRANCH   1  24
HETATM   24  C   UNL     1     -41.720  55.262 -52.966  1.00  0.00     0.732 A 
HETATM   25  N   UNL     1     -41.561  54.179 -53.773  1.00  0.00    -0.152 N 
HETATM   26  C   UNL     1     -40.812  53.117 -53.378  1.00  0.00     0.268 A 
HETATM   27  H   UNL     1     -41.958  54.173 -54.707  1.00  0.00     0.188 HD
HETATM   28  C   UNL     1     -40.260  53.198 -51.994  1.00  0.00     0.035 A 
HETATM   29  O   UNL     1     -40.602  52.164 -54.119  1.00  0.00    -0.267 OA
HETATM   30  C   UNL     1     -40.513  54.320 -51.284  1.00  0.00     0.061 A 
HETATM   31  N   UNL     1     -41.236  55.391 -51.771  1.00  0.00    -0.067 NA
HETATM   32  C   UNL     1     -40.009  54.539 -49.878  1.00  0.00     0.072 C 
BRANCH  28  33
HETATM   33  C   UNL     1     -39.502  51.988 -51.513  1.00  0.00     0.042 C 
HETATM   34  C   UNL     1     -40.319  51.159 -50.531  1.00  0.00     0.010 C 
ENDBRANCH  28  33
ENDBRANCH   1  24
TORSDOF 5
ENDMDL
MODEL 8
REMARK VINA RESULT:      -7.5      2.538      6.355
REMARK  5 active torsions:
REMARK  status: ('A' for Active; 'I' for Inactive)
REMARK    1  A    between atoms: C_2  and  C_3 
REMARK    2  A    between atoms: C_7  and  N_8 
REMARK    3  A    between atoms: C_13  and  N_14 
REMARK       I    between atoms: N_14  and  C_15 
REMARK    4  A    between atoms: C_15  and  C_16 
REMARK       I    between atoms: C_16  and  N_17 
REMARK    5  A    between atoms: N_17  and  C_18 
ROOT
HETATM    1  N   UNL     1     -42.315  56.118 -51.898  1.00  0.00    -0.045 N 
HETATM    2  N   UNL     1     -41.243  55.402 -51.471  1.00  0.00    -0.156 NA
HETATM    3  C   UNL     1     -41.379  54.219 -52.080  1.00  0.00     0.055 A 
HETATM    4  C   UNL     1     -40.388  53.136 -51.855  1.00  0.00     0.072 C 
HETATM    5  C   UNL     1     -42.532  54.175 -52.909  1.00  0.00     0.079 A 
HETATM    6  C   UNL     1     -43.131  55.403 -52.766  1.00  0.00     0.152 A 
ENDROOT
BRANCH   6   7
HETATM    7  N   UNL     1     -44.267  55.941 -53.353  1.00  0.00    -0.303 N 
HETATM    8  C   UNL     1     -44.428  56.629 -54.586  1.00  0.00     0.315 C 
HETATM    9  O   UNL     1     -45.491  57.206 -54.756  1.00  0.00    -0.262 OA
HETATM   10  H   UNL     1     -45.132  55.853 -52.811  1.00  0.00     0.171 HD
BRANCH   8  11
HETATM   11  C   UNL     1     -43.344  56.688 -55.667  1.00  0.00     0.310 C 
HETATM   12  N   UNL     1     -43.833  56.529 -56.954  1.00  0.00    -0.348 N 
HETATM   13  H   UNL     1     -44.813  56.280 -57.036  1.00  0.00     0.163 HD
HETATM   14  O   UNL     1     -42.168  56.811 -55.363  1.00  0.00    -0.262 OA
BRANCH  12  15
HETATM   15  C   UNL     1     -42.958  56.266 -58.085  1.00  0.00     0.085 C 
HETATM   16  C   UNL     1     -43.632  55.421 -59.178  1.00  0.00     0.034 C 
HETATM   17  C   UNL     1     -44.634  56.171 -60.083  1.00  0.00    -0.045 C 
HETATM   18  C   UNL     1     -45.978  56.411 -59.372  1.00  0.00     0.015 C 
HETATM   19  C   UNL     1     -44.948  55.269 -61.301  1.00  0.00     0.015 C 
HETATM   20  C   UNL     1     -44.015  57.487 -60.608  1.00  0.00     0.013 C 
HETATM   21  C   UNL     1     -43.270  58.366 -59.589  1.00  0.00    -0.016 C 
HETATM   22  C   UNL     1     -42.357  57.553 -58.656  1.00  0.00     0.029 C 
HETATM   23  C   UNL     1     -44.180  59.349 -58.850  1.00  0.00     0.010 C 
ENDBRANCH  12  15
ENDBRANCH   8  11
ENDBRANCH   6   7
BRANCH   1  24
HETATM   24  C   UNL     1     -42.512  57.446 -51.493  1.00  0.00     0.732 A 
HETATM   25  N   UNL     1     -41.345  58.129 -51.352  1.00  0.00    -0.152 N 
HETATM   26  C   UNL     1     -41.340  59.447 -51.020  1.00  0.00     0.268 A 
HETATM   27  H   UNL     1     -40.458  57.675 -51.546  1.00  0.00     0.188 HD
HETATM   28  C   UNL     1     -42.680  60.046 -50.751  1.00  0.00     0.035 A 
HETATM   29  O   UNL     1     -40.301  60.093 -50.956  1.00  0.00    -0.267 OA
HETATM   30  C   UNL     1     -43.763  59.252 -50.902  1.00  0.00     0.061 A 
HETATM   31  N   UNL     1     -43.698  57.931 -51.300  1.00  0.00    -0.067 NA
HETATM   32  C   UNL     1     -45.176  59.730 -50.672  1.00  0.00     0.072 C 
BRANCH  28  33
HETATM   33  C   UNL     1     -42.681  61.483 -50.296  1.00  0.00     0.042 C 
HETATM   34  C   UNL     1     -43.026  62.438 -51.430  1.00  0.00     0.010 C 
ENDBRANCH  28  33
ENDBRANCH   1  24
TORSDOF 5
ENDMDL
MODEL 9
REMARK VINA RESULT:      -7.5     17.467     20.495
REMARK  5 active torsions:
REMARK  status: ('A' for Active; 'I' for Inactive)
REMARK    1  A    between atoms: C_2  and  C_3 
REMARK    2  A    between atoms: C_7  and  N_8 
REMARK    3  A    between atoms: C_13  and  N_14 
REMARK       I    between atoms: N_14  and  C_15 
REMARK    4  A    between atoms: C_15  and  C_16 
REMARK       I    between atoms: C_16  and  N_17 
REMARK    5  A    between atoms: N_17  and  C_18 
ROOT
HETATM    1  N   UNL     1     -32.586  39.529 -52.633  1.00  0.00    -0.045 N 
HETATM    2  N   UNL     1     -31.642  38.911 -53.389  1.00  0.00    -0.156 NA
HETATM    3  C   UNL     1     -31.754  39.494 -54.588  1.00  0.00     0.055 A 
HETATM    4  C   UNL     1     -30.882  39.076 -55.715  1.00  0.00     0.072 C 
HETATM    5  C   UNL     1     -32.761  40.497 -54.601  1.00  0.00     0.079 A 
HETATM    6  C   UNL     1     -33.297  40.492 -53.337  1.00  0.00     0.152 A 
ENDROOT
BRANCH   6   7
HETATM    7  N   UNL     1     -34.288  41.273 -52.761  1.00  0.00    -0.303 N 
HETATM    8  C   UNL     1     -35.686  41.320 -53.011  1.00  0.00     0.315 C 
HETATM    9  O   UNL     1     -36.296  42.264 -52.532  1.00  0.00    -0.262 OA
HETATM   10  H   UNL     1     -33.971  41.942 -52.052  1.00  0.00     0.171 HD
BRANCH   8  11
HETATM   11  C   UNL     1     -36.429  40.275 -53.850  1.00  0.00     0.310 C 
HETATM   12  N   UNL     1     -36.508  40.596 -55.195  1.00  0.00    -0.348 N 
HETATM   13  H   UNL     1     -36.178  41.518 -55.458  1.00  0.00     0.163 HD
HETATM   14  O   UNL     1     -36.932  39.296 -53.321  1.00  0.00    -0.262 OA
BRANCH  12  15
HETATM   15  C   UNL     1     -37.405  39.900 -56.103  1.00  0.00     0.085 C 
HETATM   16  C   UNL     1     -37.894  40.788 -57.258  1.00  0.00     0.034 C 
HETATM   17  C   UNL     1     -36.875  41.030 -58.395  1.00  0.00    -0.045 C 
HETATM   18  C   UNL     1     -35.804  42.060 -57.992  1.00  0.00     0.015 C 
HETATM   19  C   UNL     1     -37.634  41.647 -59.595  1.00  0.00     0.015 C 
HETATM   20  C   UNL     1     -36.249  39.695 -58.859  1.00  0.00     0.013 C 
HETATM   21  C   UNL     1     -35.785  38.721 -57.763  1.00  0.00    -0.016 C 
HETATM   22  C   UNL     1     -36.799  38.590 -56.615  1.00  0.00     0.029 C 
HETATM   23  C   UNL     1     -34.353  38.971 -57.289  1.00  0.00     0.010 C 
ENDBRANCH  12  15
ENDBRANCH   8  11
ENDBRANCH   6   7
BRANCH   1  24
HETATM   24  C   UNL     1     -32.760  39.205 -51.279  1.00  0.00     0.732 A 
HETATM   25  N   UNL     1     -31.698  39.568 -50.512  1.00  0.00    -0.152 N 
HETATM   26  C   UNL     1     -31.711  39.385 -49.166  1.00  0.00     0.268 A 
HETATM   27  H   UNL     1     -30.898  40.032 -50.931  1.00  0.00     0.188 HD
HETATM   28  C   UNL     1     -32.920  38.698 -48.623  1.00  0.00     0.035 A 
HETATM   29  O   UNL     1     -30.792  39.769 -48.453  1.00  0.00    -0.267 OA
HETATM   30  C   UNL     1     -33.896  38.364 -49.496  1.00  0.00     0.061 A 
HETATM   31  N   UNL     1     -33.842  38.634 -50.849  1.00  0.00    -0.067 NA
HETATM   32  C   UNL     1     -35.174  37.675 -49.082  1.00  0.00     0.072 C 
BRANCH  28  33
HETATM   33  C   UNL     1     -32.907  38.410 -47.144  1.00  0.00     0.042 C 
HETATM   34  C   UNL     1     -32.288  37.054 -46.834  1.00  0.00     0.010 C 
ENDBRANCH  28  33
ENDBRANCH   1  24
TORSDOF 5
ENDMDL
MODEL 10
REMARK VINA RESULT:      -7.3     17.356     19.593
REMARK  5 active torsions:
REMARK  status: ('A' for Active; 'I' for Inactive)
REMARK    1  A    between atoms: C_2  and  C_3 
REMARK    2  A    between atoms: C_7  and  N_8 
REMARK    3  A    between atoms: C_13  and  N_14 
REMARK       I    between atoms: N_14  and  C_15 
REMARK    4  A    between atoms: C_15  and  C_16 
REMARK       I    between atoms: C_16  and  N_17 
REMARK    5  A    between atoms: N_17  and  C_18 
ROOT
HETATM    1  N   UNL     1     -33.754  40.025 -56.405  1.00  0.00    -0.045 N 
HETATM    2  N   UNL     1     -32.713  39.234 -56.770  1.00  0.00    -0.156 NA
HETATM    3  C   UNL     1     -31.761  39.515 -55.872  1.00  0.00     0.055 A 
HETATM    4  C   UNL     1     -30.437  38.846 -55.941  1.00  0.00     0.072 C 
HETATM    5  C   UNL     1     -32.193  40.478 -54.921  1.00  0.00     0.079 A 
HETATM    6  C   UNL     1     -33.475  40.807 -55.292  1.00  0.00     0.152 A 
ENDROOT
BRANCH   6   7
HETATM    7  N   UNL     1     -34.399  41.669 -54.720  1.00  0.00    -0.303 N 
HETATM    8  C   UNL     1     -35.588  41.394 -53.993  1.00  0.00     0.315 C 
HETATM    9  O   UNL     1     -36.345  42.334 -53.805  1.00  0.00    -0.262 OA
HETATM   10  H   UNL     1     -34.218  42.669 -54.855  1.00  0.00     0.171 HD
BRANCH   8  11
HETATM   11  C   UNL     1     -35.954  40.001 -53.470  1.00  0.00     0.310 C 
HETATM   12  N   UNL     1     -35.296  39.655 -52.301  1.00  0.00    -0.348 N 
HETATM   13  H   UNL     1     -34.575  40.294 -51.985  1.00  0.00     0.163 HD
HETATM   14  O   UNL     1     -36.718  39.282 -54.096  1.00  0.00    -0.262 OA
BRANCH  12  15
HETATM   15  C   UNL     1     -35.276  38.291 -51.801  1.00  0.00     0.085 C 
HETATM   16  C   UNL     1     -33.937  37.912 -51.148  1.00  0.00     0.034 C 
HETATM   17  C   UNL     1     -33.702  38.473 -49.727  1.00  0.00    -0.045 C 
HETATM   18  C   UNL     1     -33.322  39.965 -49.757  1.00  0.00     0.015 C 
HETATM   19  C   UNL     1     -32.488  37.733 -49.115  1.00  0.00     0.015 C 
HETATM   20  C   UNL     1     -34.930  38.207 -48.826  1.00  0.00     0.013 C 
HETATM   21  C   UNL     1     -36.315  38.505 -49.425  1.00  0.00    -0.016 C 
HETATM   22  C   UNL     1     -36.459  38.004 -50.870  1.00  0.00     0.029 C 
HETATM   23  C   UNL     1     -36.766  39.953 -49.231  1.00  0.00     0.010 C 
ENDBRANCH  12  15
ENDBRANCH   8  11
ENDBRANCH   6   7
BRANCH   1  24
HETATM   24  C   UNL     1     -34.971  39.994 -57.103  1.00  0.00     0.732 A 
HETATM   25  N   UNL     1     -35.599  38.792 -57.007  1.00  0.00    -0.152 N 
HETATM   26  C   UNL     1     -36.818  38.592 -57.572  1.00  0.00     0.268 A 
HETATM   27  H   UNL     1     -35.186  38.040 -56.464  1.00  0.00     0.188 HD
HETATM   28  C   UNL     1     -37.361  39.742 -58.352  1.00  0.00     0.035 A 
HETATM   29  O   UNL     1     -37.428  37.538 -57.436  1.00  0.00    -0.267 OA
HETATM   30  C   UNL     1     -36.626  40.875 -58.391  1.00  0.00     0.061 A 
HETATM   31  N   UNL     1     -35.416  41.029 -57.743  1.00  0.00    -0.067 NA
HETATM   32  C   UNL     1     -37.058  42.116 -59.135  1.00  0.00     0.072 C 
BRANCH  28  33
HETATM   33  C   UNL     1     -38.672  39.503 -59.057  1.00  0.00     0.042 C 
HETATM   34  C   UNL     1     -38.473  38.876 -60.430  1.00  0.00     0.010 C 
ENDBRANCH  28  33
ENDBRANCH   1  24
TORSDOF 5
ENDMDL
