MODEL 1
REMARK VINA RESULT:      -9.2      0.000      0.000
REMARK  8 active torsions:
REMARK  status: ('A' for Active; 'I' for Inactive)
REMARK    1  A    between atoms: C_4  and  N_5 
REMARK    2  A    between atoms: N_5  and  C_6 
REMARK    3  A    between atoms: C_8  and  N_9 
REMARK    4  A    between atoms: N_12  and  C_14 
REMARK    5  A    between atoms: C_14  and  C_15 
REMARK       I    between atoms: C_15  and  N_16 
REMARK    6  A    between atoms: N_16  and  C_17 
REMARK    7  A    between atoms: C_26  and  N_27 
REMARK    8  A    between atoms: N_27  and  C_28 
ROOT
HETATM    1  C   UNL     1     -43.040  55.555 -54.820  1.00  0.00     0.758 A 
HETATM    2  N   UNL     1     -43.433  56.026 -53.641  1.00  0.00     0.131 NA
HETATM    3  C   UNL     1     -42.717  55.654 -52.592  1.00  0.00     0.756 A 
HETATM    4  N   UNL     1     -41.720  54.783 -52.663  1.00  0.00     0.131 NA
HETATM    5  C   UNL     1     -41.380  54.362 -53.877  1.00  0.00     0.758 A 
HETATM    6  N   UNL     1     -42.010  54.740 -54.978  1.00  0.00     0.131 NA
ENDROOT
BRANCH   3   7
HETATM    7  N   UNL     1     -42.983  56.235 -51.354  1.00  0.00    -0.210 N 
HETATM    8  C   UNL     1     -44.271  56.937 -51.264  1.00  0.00     0.169 C 
HETATM    9  C   UNL     1     -44.118  58.430 -51.645  1.00  0.00     0.256 C 
HETATM   10  N   UNL     1     -43.010  59.053 -50.794  1.00  0.00    -0.060 N 
HETATM   11  H   UNL     1     -43.255  58.857 -49.816  1.00  0.00     0.280 HD
HETATM   12  C   UNL     1     -41.679  58.336 -51.048  1.00  0.00     0.256 C 
HETATM   13  C   UNL     1     -41.839  56.851 -50.664  1.00  0.00     0.169 C 
BRANCH  10  14
HETATM   14  C   UNL     1     -42.925  60.579 -50.880  1.00  0.00     0.337 C 
BRANCH  14  15
HETATM   15  C   UNL     1     -44.109  61.294 -51.547  1.00  0.00     0.249 C 
HETATM   16  N   UNL     1     -45.172  61.698 -50.791  1.00  0.00    -0.304 N 
HETATM   17  H   UNL     1     -45.934  62.168 -51.264  1.00  0.00     0.171 HD
HETATM   18  O   UNL     1     -44.120  61.515 -52.761  1.00  0.00    -0.271 OA
BRANCH  16  19
HETATM   19  C   UNL     1     -45.283  61.515 -49.443  1.00  0.00     0.172 A 
HETATM   20  S   UNL     1     -44.737  62.813 -48.488  1.00  0.00    -0.062 SA
HETATM   21  C   UNL     1     -45.155  61.920 -47.083  1.00  0.00     0.072 A 
HETATM   22  C   UNL     1     -45.681  60.699 -47.452  1.00  0.00     0.126 A 
HETATM   23  N   UNL     1     -45.754  60.467 -48.816  1.00  0.00    -0.236 NA
ENDBRANCH  16  19
ENDBRANCH  14  15
ENDBRANCH  10  14
ENDBRANCH   3   7
BRANCH   1  24
HETATM   24  N   UNL     1     -43.662  55.970 -55.994  1.00  0.00    -0.187 N 
HETATM   25  H   UNL     1     -44.609  56.271 -55.797  1.00  0.00     0.184 HD
BRANCH  24  26
HETATM   26  C   UNL     1     -43.147  56.382 -57.229  1.00  0.00     0.049 A 
HETATM   27  C   UNL     1     -42.503  57.626 -57.308  1.00  0.00     0.030 A 
HETATM   28  C   UNL     1     -41.993  58.099 -58.518  1.00  0.00     0.002 A 
HETATM   29  C   UNL     1     -42.121  57.334 -59.673  1.00  0.00     0.000 A 
HETATM   30  C   UNL     1     -42.771  56.104 -59.617  1.00  0.00     0.002 A 
HETATM   31  C   UNL     1     -43.292  55.640 -58.405  1.00  0.00     0.030 A 
ENDBRANCH  24  26
ENDBRANCH   1  24
BRANCH   5  32
HETATM   32  N   UNL     1     -40.268  53.524 -53.927  1.00  0.00    -0.187 N 
HETATM   33  H   UNL     1     -39.540  53.944 -54.484  1.00  0.00     0.184 HD
BRANCH  32  34
HETATM   34  C   UNL     1     -40.028  52.223 -53.468  1.00  0.00     0.049 A 
HETATM   35  C   UNL     1     -40.159  51.157 -54.373  1.00  0.00     0.030 A 
HETATM   36  C   UNL     1     -39.966  49.831 -53.970  1.00  0.00     0.002 A 
HETATM   37  C   UNL     1     -39.634  49.549 -52.650  1.00  0.00     0.000 A 
HETATM   38  C   UNL     1     -39.498  50.590 -51.736  1.00  0.00     0.002 A 
HETATM   39  C   UNL     1     -39.698  51.914 -52.143  1.00  0.00     0.030 A 
ENDBRANCH  32  34
ENDBRANCH   5  32
TORSDOF 8
ENDMDL
MODEL 2
REMARK VINA RESULT:      -9.1      0.370      5.415
REMARK  8 active torsions:
REMARK  status: ('A' for Active; 'I' for Inactive)
REMARK    1  A    between atoms: C_4  and  N_5 
REMARK    2  A    between atoms: N_5  and  C_6 
REMARK    3  A    between atoms: C_8  and  N_9 
REMARK    4  A    between atoms: N_12  and  C_14 
REMARK    5  A    between atoms: C_14  and  C_15 
REMARK       I    between atoms: C_15  and  N_16 
REMARK    6  A    between atoms: N_16  and  C_17 
REMARK    7  A    between atoms: C_26  and  N_27 
REMARK    8  A    between atoms: N_27  and  C_28 
ROOT
HETATM    1  C   UNL     1     -40.954  54.337 -53.940  1.00  0.00     0.758 A 
HETATM    2  N   UNL     1     -41.224  54.879 -52.757  1.00  0.00     0.131 NA
HETATM    3  C   UNL     1     -42.236  55.730 -52.718  1.00  0.00     0.756 A 
HETATM    4  N   UNL     1     -42.901  56.120 -53.796  1.00  0.00     0.131 NA
HETATM    5  C   UNL     1     -42.580  55.528 -54.942  1.00  0.00     0.758 A 
HETATM    6  N   UNL     1     -41.621  54.621 -55.046  1.00  0.00     0.131 NA
ENDROOT
BRANCH   3   7
HETATM    7  N   UNL     1     -42.665  56.211 -51.483  1.00  0.00    -0.210 N 
HETATM    8  C   UNL     1     -43.937  56.947 -51.513  1.00  0.00     0.169 C 
HETATM    9  C   UNL     1     -43.698  58.461 -51.733  1.00  0.00     0.256 C 
HETATM   10  N   UNL     1     -42.711  58.970 -50.681  1.00  0.00    -0.060 N 
HETATM   11  H   UNL     1     -43.099  58.699 -49.769  1.00  0.00     0.280 HD
HETATM   12  C   UNL     1     -41.374  58.233 -50.807  1.00  0.00     0.256 C 
HETATM   13  C   UNL     1     -41.619  56.726 -50.585  1.00  0.00     0.169 C 
BRANCH  10  14
HETATM   14  C   UNL     1     -42.582  60.494 -50.617  1.00  0.00     0.337 C 
BRANCH  14  15
HETATM   15  C   UNL     1     -43.614  61.303 -51.415  1.00  0.00     0.249 C 
HETATM   16  N   UNL     1     -44.760  61.731 -50.807  1.00  0.00    -0.304 N 
HETATM   17  H   UNL     1     -45.417  62.263 -51.364  1.00  0.00     0.171 HD
HETATM   18  O   UNL     1     -43.429  61.580 -52.603  1.00  0.00    -0.271 OA
BRANCH  16  19
HETATM   19  C   UNL     1     -45.085  61.492 -49.504  1.00  0.00     0.172 A 
HETATM   20  S   UNL     1     -44.664  62.730 -48.414  1.00  0.00    -0.062 SA
HETATM   21  C   UNL     1     -45.318  61.791 -47.135  1.00  0.00     0.072 A 
HETATM   22  C   UNL     1     -45.809  60.604 -47.639  1.00  0.00     0.126 A 
HETATM   23  N   UNL     1     -45.673  60.433 -49.008  1.00  0.00    -0.236 NA
ENDBRANCH  16  19
ENDBRANCH  14  15
ENDBRANCH  10  14
ENDBRANCH   3   7
BRANCH   1  24
HETATM   24  N   UNL     1     -39.977  53.353 -54.065  1.00  0.00    -0.187 N 
HETATM   25  H   UNL     1     -39.115  53.761 -54.405  1.00  0.00     0.184 HD
BRANCH  24  26
HETATM   26  C   UNL     1     -39.854  52.081 -53.493  1.00  0.00     0.049 A 
HETATM   27  C   UNL     1     -40.016  50.956 -54.314  1.00  0.00     0.030 A 
HETATM   28  C   UNL     1     -39.929  49.664 -53.793  1.00  0.00     0.002 A 
HETATM   29  C   UNL     1     -39.681  49.476 -52.436  1.00  0.00     0.000 A 
HETATM   30  C   UNL     1     -39.533  50.582 -51.603  1.00  0.00     0.002 A 
HETATM   31  C   UNL     1     -39.634  51.874 -52.127  1.00  0.00     0.030 A 
ENDBRANCH  24  26
ENDBRANCH   1  24
BRANCH   5  32
HETATM   32  N   UNL     1     -43.363  55.888 -56.037  1.00  0.00    -0.187 N 
HETATM   33  H   UNL     1     -44.335  55.700 -55.848  1.00  0.00     0.184 HD
BRANCH  32  34
HETATM   34  C   UNL     1     -43.055  56.332 -57.329  1.00  0.00     0.049 A 
HETATM   35  C   UNL     1     -43.308  55.474 -58.412  1.00  0.00     0.030 A 
HETATM   36  C   UNL     1     -42.993  55.844 -59.724  1.00  0.00     0.002 A 
HETATM   37  C   UNL     1     -42.419  57.085 -59.976  1.00  0.00     0.000 A 
HETATM   38  C   UNL     1     -42.161  57.952 -58.918  1.00  0.00     0.002 A 
HETATM   39  C   UNL     1     -42.473  57.574 -57.607  1.00  0.00     0.030 A 
ENDBRANCH  32  34
ENDBRANCH   5  32
TORSDOF 8
ENDMDL
MODEL 3
REMARK VINA RESULT:      -8.8      2.118      5.902
REMARK  8 active torsions:
REMARK  status: ('A' for Active; 'I' for Inactive)
REMARK    1  A    between atoms: C_4  and  N_5 
REMARK    2  A    between atoms: N_5  and  C_6 
REMARK    3  A    between atoms: C_8  and  N_9 
REMARK    4  A    between atoms: N_12  and  C_14 
REMARK    5  A    between atoms: C_14  and  C_15 
REMARK       I    between atoms: C_15  and  N_16 
REMARK    6  A    between atoms: N_16  and  C_17 
REMARK    7  A    between atoms: C_26  and  N_27 
REMARK    8  A    between atoms: N_27  and  C_28 
ROOT
HETATM    1  C   UNL     1     -42.313  55.405 -54.641  1.00  0.00     0.758 A 
HETATM    2  N   UNL     1     -42.157  56.571 -54.021  1.00  0.00     0.131 NA
HETATM    3  C   UNL     1     -42.204  57.651 -54.783  1.00  0.00     0.756 A 
HETATM    4  N   UNL     1     -42.299  57.608 -56.104  1.00  0.00     0.131 NA
HETATM    5  C   UNL     1     -42.460  56.407 -56.651  1.00  0.00     0.758 A 
HETATM    6  N   UNL     1     -42.486  55.286 -55.947  1.00  0.00     0.131 NA
ENDROOT
BRANCH   3   7
HETATM    7  N   UNL     1     -42.202  58.905 -54.175  1.00  0.00    -0.210 N 
HETATM    8  C   UNL     1     -42.038  58.884 -52.714  1.00  0.00     0.169 C 
HETATM    9  C   UNL     1     -43.412  58.824 -52.002  1.00  0.00     0.256 C 
HETATM   10  N   UNL     1     -44.291  59.967 -52.511  1.00  0.00    -0.060 N 
HETATM   11  H   UNL     1     -43.747  60.828 -52.378  1.00  0.00     0.280 HD
HETATM   12  C   UNL     1     -44.509  59.835 -54.023  1.00  0.00     0.256 C 
HETATM   13  C   UNL     1     -43.137  59.898 -54.725  1.00  0.00     0.169 C 
BRANCH  10  14
HETATM   14  C   UNL     1     -45.577  60.184 -51.710  1.00  0.00     0.337 C 
BRANCH  14  15
HETATM   15  C   UNL     1     -45.540  59.775 -50.231  1.00  0.00     0.249 C 
HETATM   16  N   UNL     1     -44.909  60.574 -49.321  1.00  0.00    -0.304 N 
HETATM   17  H   UNL     1     -44.905  60.274 -48.354  1.00  0.00     0.171 HD
HETATM   18  O   UNL     1     -46.074  58.733 -49.843  1.00  0.00    -0.271 OA
BRANCH  16  19
HETATM   19  C   UNL     1     -44.281  61.748 -49.619  1.00  0.00     0.172 A 
HETATM   20  S   UNL     1     -45.148  63.156 -49.216  1.00  0.00    -0.062 SA
HETATM   21  C   UNL     1     -43.852  64.099 -49.831  1.00  0.00     0.072 A 
HETATM   22  C   UNL     1     -42.856  63.265 -50.297  1.00  0.00     0.126 A 
HETATM   23  N   UNL     1     -43.106  61.907 -50.173  1.00  0.00    -0.236 NA
ENDBRANCH  16  19
ENDBRANCH  14  15
ENDBRANCH  10  14
ENDBRANCH   3   7
BRANCH   1  24
HETATM   24  N   UNL     1     -42.383  54.219 -53.916  1.00  0.00    -0.187 N 
HETATM   25  H   UNL     1     -43.297  53.798 -54.029  1.00  0.00     0.184 HD
BRANCH  24  26
HETATM   26  C   UNL     1     -41.390  53.370 -53.415  1.00  0.00     0.049 A 
HETATM   27  C   UNL     1     -40.859  52.384 -54.260  1.00  0.00     0.030 A 
HETATM   28  C   UNL     1     -39.884  51.493 -53.807  1.00  0.00     0.002 A 
HETATM   29  C   UNL     1     -39.425  51.573 -52.496  1.00  0.00     0.000 A 
HETATM   30  C   UNL     1     -39.952  52.535 -51.638  1.00  0.00     0.002 A 
HETATM   31  C   UNL     1     -40.937  53.416 -52.092  1.00  0.00     0.030 A 
ENDBRANCH  24  26
ENDBRANCH   1  24
BRANCH   5  32
HETATM   32  N   UNL     1     -42.655  56.403 -58.031  1.00  0.00    -0.187 N 
HETATM   33  H   UNL     1     -41.817  56.709 -58.502  1.00  0.00     0.184 HD
BRANCH  32  34
HETATM   34  C   UNL     1     -43.775  56.177 -58.840  1.00  0.00     0.049 A 
HETATM   35  C   UNL     1     -44.802  57.136 -58.849  1.00  0.00     0.030 A 
HETATM   36  C   UNL     1     -45.962  56.954 -59.610  1.00  0.00     0.002 A 
HETATM   37  C   UNL     1     -46.115  55.806 -60.378  1.00  0.00     0.000 A 
HETATM   38  C   UNL     1     -45.111  54.843 -60.384  1.00  0.00     0.002 A 
HETATM   39  C   UNL     1     -43.954  55.027 -59.617  1.00  0.00     0.030 A 
ENDBRANCH  32  34
ENDBRANCH   5  32
TORSDOF 8
ENDMDL
MODEL 4
REMARK VINA RESULT:      -8.6      1.725      2.713
REMARK  8 active torsions:
REMARK  status: ('A' for Active; 'I' for Inactive)
REMARK    1  A    between atoms: C_4  and  N_5 
REMARK    2  A    between atoms: N_5  and  C_6 
REMARK    3  A    between atoms: C_8  and  N_9 
REMARK    4  A    between atoms: N_12  and  C_14 
REMARK    5  A    between atoms: C_14  and  C_15 
REMARK       I    between atoms: C_15  and  N_16 
REMARK    6  A    between atoms: N_16  and  C_17 
REMARK    7  A    between atoms: C_26  and  N_27 
REMARK    8  A    between atoms: N_27  and  C_28 
ROOT
HETATM    1  C   UNL     1     -42.932  55.557 -54.850  1.00  0.00     0.758 A 
HETATM    2  N   UNL     1     -43.238  56.066 -53.660  1.00  0.00     0.131 NA
HETATM    3  C   UNL     1     -42.489  55.674 -52.643  1.00  0.00     0.756 A 
HETATM    4  N   UNL     1     -41.542  54.753 -52.749  1.00  0.00     0.131 NA
HETATM    5  C   UNL     1     -41.287  54.296 -53.971  1.00  0.00     0.758 A 
HETATM    6  N   UNL     1     -41.953  54.689 -55.045  1.00  0.00     0.131 NA
ENDROOT
BRANCH   3   7
HETATM    7  N   UNL     1     -42.661  56.287 -51.404  1.00  0.00    -0.210 N 
HETATM    8  C   UNL     1     -44.040  56.280 -50.896  1.00  0.00     0.169 C 
HETATM    9  C   UNL     1     -44.804  57.551 -51.344  1.00  0.00     0.256 C 
HETATM   10  N   UNL     1     -44.000  58.787 -50.939  1.00  0.00    -0.060 N 
HETATM   11  H   UNL     1     -43.821  58.695 -49.932  1.00  0.00     0.280 HD
HETATM   12  C   UNL     1     -42.624  58.770 -51.615  1.00  0.00     0.256 C 
HETATM   13  C   UNL     1     -41.869  57.503 -51.162  1.00  0.00     0.169 C 
BRANCH  10  14
HETATM   14  C   UNL     1     -44.753  60.112 -51.088  1.00  0.00     0.337 C 
BRANCH  14  15
HETATM   15  C   UNL     1     -43.926  61.393 -50.915  1.00  0.00     0.249 C 
HETATM   16  N   UNL     1     -43.745  62.233 -51.976  1.00  0.00    -0.304 N 
HETATM   17  H   UNL     1     -43.195  63.070 -51.825  1.00  0.00     0.171 HD
HETATM   18  O   UNL     1     -43.418  61.684 -49.828  1.00  0.00    -0.271 OA
BRANCH  16  19
HETATM   19  C   UNL     1     -44.250  62.028 -53.226  1.00  0.00     0.172 A 
HETATM   20  S   UNL     1     -43.159  61.358 -54.347  1.00  0.00    -0.062 SA
HETATM   21  C   UNL     1     -44.394  61.405 -55.538  1.00  0.00     0.072 A 
HETATM   22  C   UNL     1     -45.546  61.928 -54.987  1.00  0.00     0.126 A 
HETATM   23  N   UNL     1     -45.461  62.288 -53.651  1.00  0.00    -0.236 NA
ENDBRANCH  16  19
ENDBRANCH  14  15
ENDBRANCH  10  14
ENDBRANCH   3   7
BRANCH   1  24
HETATM   24  N   UNL     1     -43.592  55.986 -55.997  1.00  0.00    -0.187 N 
HETATM   25  H   UNL     1     -44.549  56.231 -55.776  1.00  0.00     0.184 HD
BRANCH  24  26
HETATM   26  C   UNL     1     -43.117  56.470 -57.222  1.00  0.00     0.049 A 
HETATM   27  C   UNL     1     -43.261  55.667 -58.363  1.00  0.00     0.030 A 
HETATM   28  C   UNL     1     -42.783  56.087 -59.606  1.00  0.00     0.002 A 
HETATM   29  C   UNL     1     -42.151  57.321 -59.727  1.00  0.00     0.000 A 
HETATM   30  C   UNL     1     -41.986  58.125 -58.603  1.00  0.00     0.002 A 
HETATM   31  C   UNL     1     -42.454  57.694 -57.358  1.00  0.00     0.030 A 
ENDBRANCH  24  26
ENDBRANCH   1  24
BRANCH   5  32
HETATM   32  N   UNL     1     -40.223  53.402 -54.062  1.00  0.00    -0.187 N 
HETATM   33  H   UNL     1     -39.541  53.738 -54.725  1.00  0.00     0.184 HD
BRANCH  32  34
HETATM   34  C   UNL     1     -39.989  52.132 -53.520  1.00  0.00     0.049 A 
HETATM   35  C   UNL     1     -40.072  51.014 -54.366  1.00  0.00     0.030 A 
HETATM   36  C   UNL     1     -39.883  49.716 -53.880  1.00  0.00     0.002 A 
HETATM   37  C   UNL     1     -39.604  49.514 -52.533  1.00  0.00     0.000 A 
HETATM   38  C   UNL     1     -39.516  50.607 -51.676  1.00  0.00     0.002 A 
HETATM   39  C   UNL     1     -39.712  51.903 -52.167  1.00  0.00     0.030 A 
ENDBRANCH  32  34
ENDBRANCH   5  32
TORSDOF 8
ENDMDL
MODEL 5
REMARK VINA RESULT:      -8.6      2.023      2.837
REMARK  8 active torsions:
REMARK  status: ('A' for Active; 'I' for Inactive)
REMARK    1  A    between atoms: C_4  and  N_5 
REMARK    2  A    between atoms: N_5  and  C_6 
REMARK    3  A    between atoms: C_8  and  N_9 
REMARK    4  A    between atoms: N_12  and  C_14 
REMARK    5  A    between atoms: C_14  and  C_15 
REMARK       I    between atoms: C_15  and  N_16 
REMARK    6  A    between atoms: N_16  and  C_17 
REMARK    7  A    between atoms: C_26  and  N_27 
REMARK    8  A    between atoms: N_27  and  C_28 
ROOT
HETATM    1  C   UNL     1     -42.638  56.363 -56.537  1.00  0.00     0.758 A 
HETATM    2  N   UNL     1     -42.579  57.522 -55.890  1.00  0.00     0.131 NA
HETATM    3  C   UNL     1     -42.458  57.455 -54.575  1.00  0.00     0.756 A 
HETATM    4  N   UNL     1     -42.490  56.317 -53.898  1.00  0.00     0.131 NA
HETATM    5  C   UNL     1     -42.542  55.198 -54.613  1.00  0.00     0.758 A 
HETATM    6  N   UNL     1     -42.602  55.185 -55.936  1.00  0.00     0.131 NA
ENDROOT
BRANCH   3   7
HETATM    7  N   UNL     1     -42.237  58.629 -53.857  1.00  0.00    -0.210 N 
HETATM    8  C   UNL     1     -42.180  58.461 -52.398  1.00  0.00     0.169 C 
HETATM    9  C   UNL     1     -43.581  58.639 -51.763  1.00  0.00     0.256 C 
HETATM   10  N   UNL     1     -44.167  59.979 -52.211  1.00  0.00    -0.060 N 
HETATM   11  H   UNL     1     -43.466  60.692 -51.974  1.00  0.00     0.280 HD
HETATM   12  C   UNL     1     -44.305  60.014 -53.737  1.00  0.00     0.256 C 
HETATM   13  C   UNL     1     -42.906  59.838 -54.362  1.00  0.00     0.169 C 
BRANCH  10  14
HETATM   14  C   UNL     1     -45.431  60.403 -51.458  1.00  0.00     0.337 C 
BRANCH  14  15
HETATM   15  C   UNL     1     -45.489  60.052 -49.965  1.00  0.00     0.249 C 
HETATM   16  N   UNL     1     -44.864  60.854 -49.054  1.00  0.00    -0.304 N 
HETATM   17  H   UNL     1     -44.924  60.593 -48.078  1.00  0.00     0.171 HD
HETATM   18  O   UNL     1     -46.094  59.053 -49.566  1.00  0.00    -0.271 OA
BRANCH  16  19
HETATM   19  C   UNL     1     -44.162  61.983 -49.363  1.00  0.00     0.172 A 
HETATM   20  S   UNL     1     -44.700  63.403 -48.594  1.00  0.00    -0.062 SA
HETATM   21  C   UNL     1     -43.463  64.277 -49.402  1.00  0.00     0.072 A 
HETATM   22  C   UNL     1     -42.734  63.417 -50.197  1.00  0.00     0.126 A 
HETATM   23  N   UNL     1     -43.139  62.091 -50.173  1.00  0.00    -0.236 NA
ENDBRANCH  16  19
ENDBRANCH  14  15
ENDBRANCH  10  14
ENDBRANCH   3   7
BRANCH   1  24
HETATM   24  N   UNL     1     -42.661  56.326 -57.928  1.00  0.00    -0.187 N 
HETATM   25  H   UNL     1     -41.740  56.102 -58.284  1.00  0.00     0.184 HD
BRANCH  24  26
HETATM   26  C   UNL     1     -43.710  56.171 -58.842  1.00  0.00     0.049 A 
HETATM   27  C   UNL     1     -43.993  54.887 -59.329  1.00  0.00     0.030 A 
HETATM   28  C   UNL     1     -45.011  54.676 -60.261  1.00  0.00     0.002 A 
HETATM   29  C   UNL     1     -45.764  55.751 -60.723  1.00  0.00     0.000 A 
HETATM   30  C   UNL     1     -45.488  57.036 -60.262  1.00  0.00     0.002 A 
HETATM   31  C   UNL     1     -44.458  57.243 -59.339  1.00  0.00     0.030 A 
ENDBRANCH  24  26
ENDBRANCH   1  24
BRANCH   5  32
HETATM   32  N   UNL     1     -42.477  54.016 -53.878  1.00  0.00    -0.187 N 
HETATM   33  H   UNL     1     -43.404  53.718 -53.615  1.00  0.00     0.184 HD
BRANCH  32  34
HETATM   34  C   UNL     1     -41.413  53.267 -53.362  1.00  0.00     0.049 A 
HETATM   35  C   UNL     1     -40.799  52.313 -54.191  1.00  0.00     0.030 A 
HETATM   36  C   UNL     1     -39.753  51.509 -53.726  1.00  0.00     0.002 A 
HETATM   37  C   UNL     1     -39.301  51.646 -52.418  1.00  0.00     0.000 A 
HETATM   38  C   UNL     1     -39.894  52.585 -51.580  1.00  0.00     0.002 A 
HETATM   39  C   UNL     1     -40.943  53.383 -52.048  1.00  0.00     0.030 A 
ENDBRANCH  32  34
ENDBRANCH   5  32
TORSDOF 8
ENDMDL
MODEL 6
REMARK VINA RESULT:      -8.5      1.570      5.890
REMARK  8 active torsions:
REMARK  status: ('A' for Active; 'I' for Inactive)
REMARK    1  A    between atoms: C_4  and  N_5 
REMARK    2  A    between atoms: N_5  and  C_6 
REMARK    3  A    between atoms: C_8  and  N_9 
REMARK    4  A    between atoms: N_12  and  C_14 
REMARK    5  A    between atoms: C_14  and  C_15 
REMARK       I    between atoms: C_15  and  N_16 
REMARK    6  A    between atoms: N_16  and  C_17 
REMARK    7  A    between atoms: C_26  and  N_27 
REMARK    8  A    between atoms: N_27  and  C_28 
ROOT
HETATM    1  C   UNL     1     -41.203  54.433 -53.915  1.00  0.00     0.758 A 
HETATM    2  N   UNL     1     -41.743  55.071 -52.881  1.00  0.00     0.131 NA
HETATM    3  C   UNL     1     -42.847  55.756 -53.126  1.00  0.00     0.756 A 
HETATM    4  N   UNL     1     -43.360  55.902 -54.340  1.00  0.00     0.131 NA
HETATM    5  C   UNL     1     -42.770  55.227 -55.322  1.00  0.00     0.758 A 
HETATM    6  N   UNL     1     -41.698  54.472 -55.141  1.00  0.00     0.131 NA
ENDROOT
BRANCH   3   7
HETATM    7  N   UNL     1     -43.544  56.317 -52.058  1.00  0.00    -0.210 N 
HETATM    8  C   UNL     1     -44.539  57.331 -52.433  1.00  0.00     0.169 C 
HETATM    9  C   UNL     1     -43.915  58.748 -52.437  1.00  0.00     0.256 C 
HETATM   10  N   UNL     1     -43.245  59.005 -51.086  1.00  0.00    -0.060 N 
HETATM   11  H   UNL     1     -43.963  58.827 -50.373  1.00  0.00     0.280 HD
HETATM   12  C   UNL     1     -42.138  57.975 -50.839  1.00  0.00     0.256 C 
HETATM   13  C   UNL     1     -42.768  56.567 -50.833  1.00  0.00     0.169 C 
BRANCH  10  14
HETATM   14  C   UNL     1     -42.813  60.456 -50.857  1.00  0.00     0.337 C 
BRANCH  14  15
HETATM   15  C   UNL     1     -43.829  61.372 -50.161  1.00  0.00     0.249 C 
HETATM   16  N   UNL     1     -44.392  62.408 -50.850  1.00  0.00    -0.304 N 
HETATM   17  H   UNL     1     -45.059  62.991 -50.359  1.00  0.00     0.171 HD
HETATM   18  O   UNL     1     -44.152  61.190 -48.985  1.00  0.00    -0.271 OA
BRANCH  16  19
HETATM   19  C   UNL     1     -44.121  62.718 -52.150  1.00  0.00     0.172 A 
HETATM   20  S   UNL     1     -45.268  62.167 -53.280  1.00  0.00    -0.062 SA
HETATM   21  C   UNL     1     -44.327  62.863 -54.536  1.00  0.00     0.072 A 
HETATM   22  C   UNL     1     -43.209  63.464 -53.995  1.00  0.00     0.126 A 
HETATM   23  N   UNL     1     -43.092  63.379 -52.616  1.00  0.00    -0.236 NA
ENDBRANCH  16  19
ENDBRANCH  14  15
ENDBRANCH  10  14
ENDBRANCH   3   7
BRANCH   1  24
HETATM   24  N   UNL     1     -40.101  53.601 -53.739  1.00  0.00    -0.187 N 
HETATM   25  H   UNL     1     -39.276  54.155 -53.541  1.00  0.00     0.184 HD
BRANCH  24  26
HETATM   26  C   UNL     1     -39.997  52.240 -53.427  1.00  0.00     0.049 A 
HETATM   27  C   UNL     1     -39.626  51.875 -52.125  1.00  0.00     0.030 A 
HETATM   28  C   UNL     1     -39.483  50.534 -51.764  1.00  0.00     0.002 A 
HETATM   29  C   UNL     1     -39.707  49.533 -52.705  1.00  0.00     0.000 A 
HETATM   30  C   UNL     1     -40.062  49.877 -54.007  1.00  0.00     0.002 A 
HETATM   31  C   UNL     1     -40.191  51.222 -54.366  1.00  0.00     0.030 A 
ENDBRANCH  24  26
ENDBRANCH   1  24
BRANCH   5  32
HETATM   32  N   UNL     1     -43.389  55.324 -56.566  1.00  0.00    -0.187 N 
HETATM   33  H   UNL     1     -44.125  54.639 -56.644  1.00  0.00     0.184 HD
BRANCH  32  34
HETATM   34  C   UNL     1     -43.119  56.079 -57.714  1.00  0.00     0.049 A 
HETATM   35  C   UNL     1     -43.502  55.562 -58.963  1.00  0.00     0.030 A 
HETATM   36  C   UNL     1     -43.232  56.251 -60.151  1.00  0.00     0.002 A 
HETATM   37  C   UNL     1     -42.571  57.473 -60.109  1.00  0.00     0.000 A 
HETATM   38  C   UNL     1     -42.183  58.004 -58.883  1.00  0.00     0.002 A 
HETATM   39  C   UNL     1     -42.451  57.309 -57.698  1.00  0.00     0.030 A 
ENDBRANCH  32  34
ENDBRANCH   5  32
TORSDOF 8
ENDMDL
MODEL 7
REMARK VINA RESULT:      -8.5      3.208      8.180
REMARK  8 active torsions:
REMARK  status: ('A' for Active; 'I' for Inactive)
REMARK    1  A    between atoms: C_4  and  N_5 
REMARK    2  A    between atoms: N_5  and  C_6 
REMARK    3  A    between atoms: C_8  and  N_9 
REMARK    4  A    between atoms: N_12  and  C_14 
REMARK    5  A    between atoms: C_14  and  C_15 
REMARK       I    between atoms: C_15  and  N_16 
REMARK    6  A    between atoms: N_16  and  C_17 
REMARK    7  A    between atoms: C_26  and  N_27 
REMARK    8  A    between atoms: N_27  and  C_28 
ROOT
HETATM    1  C   UNL     1     -41.184  54.575 -51.949  1.00  0.00     0.758 A 
HETATM    2  N   UNL     1     -42.093  54.342 -52.891  1.00  0.00     0.131 NA
HETATM    3  C   UNL     1     -42.930  55.331 -53.156  1.00  0.00     0.756 A 
HETATM    4  N   UNL     1     -42.956  56.467 -52.474  1.00  0.00     0.131 NA
HETATM    5  C   UNL     1     -42.012  56.630 -51.552  1.00  0.00     0.758 A 
HETATM    6  N   UNL     1     -41.101  55.710 -51.276  1.00  0.00     0.131 NA
ENDROOT
BRANCH   3   7
HETATM    7  N   UNL     1     -43.802  55.205 -54.236  1.00  0.00    -0.210 N 
HETATM    8  C   UNL     1     -43.309  54.362 -55.334  1.00  0.00     0.169 C 
HETATM    9  C   UNL     1     -42.542  55.205 -56.382  1.00  0.00     0.256 C 
HETATM   10  N   UNL     1     -43.429  56.364 -56.839  1.00  0.00    -0.060 N 
HETATM   11  H   UNL     1     -44.311  55.942 -57.154  1.00  0.00     0.280 HD
HETATM   12  C   UNL     1     -43.789  57.259 -55.648  1.00  0.00     0.256 C 
HETATM   13  C   UNL     1     -44.555  56.412 -54.611  1.00  0.00     0.169 C 
BRANCH  10  14
HETATM   14  C   UNL     1     -42.900  57.126 -58.057  1.00  0.00     0.337 C 
BRANCH  14  15
HETATM   15  C   UNL     1     -43.396  56.653 -59.430  1.00  0.00     0.249 C 
HETATM   16  N   UNL     1     -44.617  57.059 -59.888  1.00  0.00    -0.304 N 
HETATM   17  H   UNL     1     -44.912  56.727 -60.799  1.00  0.00     0.171 HD
HETATM   18  O   UNL     1     -42.710  55.908 -60.136  1.00  0.00    -0.271 OA
BRANCH  16  19
HETATM   19  C   UNL     1     -45.471  57.877 -59.209  1.00  0.00     0.172 A 
HETATM   20  S   UNL     1     -45.392  59.522 -59.637  1.00  0.00    -0.062 SA
HETATM   21  C   UNL     1     -46.615  59.855 -58.479  1.00  0.00     0.072 A 
HETATM   22  C   UNL     1     -46.990  58.683 -57.855  1.00  0.00     0.126 A 
HETATM   23  N   UNL     1     -46.328  57.541 -58.278  1.00  0.00    -0.236 NA
ENDBRANCH  16  19
ENDBRANCH  14  15
ENDBRANCH  10  14
ENDBRANCH   3   7
BRANCH   1  24
HETATM   24  N   UNL     1     -40.194  53.637 -51.671  1.00  0.00    -0.187 N 
HETATM   25  H   UNL     1     -39.705  53.892 -50.821  1.00  0.00     0.184 HD
BRANCH  24  26
HETATM   26  C   UNL     1     -40.014  52.315 -52.093  1.00  0.00     0.049 A 
HETATM   27  C   UNL     1     -39.816  51.321 -51.124  1.00  0.00     0.030 A 
HETATM   28  C   UNL     1     -39.605  49.990 -51.488  1.00  0.00     0.002 A 
HETATM   29  C   UNL     1     -39.587  49.631 -52.832  1.00  0.00     0.000 A 
HETATM   30  C   UNL     1     -39.766  50.607 -53.809  1.00  0.00     0.002 A 
HETATM   31  C   UNL     1     -39.963  51.941 -53.440  1.00  0.00     0.030 A 
ENDBRANCH  24  26
ENDBRANCH   1  24
BRANCH   5  32
HETATM   32  N   UNL     1     -42.006  57.872 -50.920  1.00  0.00    -0.187 N 
HETATM   33  H   UNL     1     -41.739  57.769 -49.952  1.00  0.00     0.184 HD
BRANCH  32  34
HETATM   34  C   UNL     1     -42.393  59.155 -51.325  1.00  0.00     0.049 A 
HETATM   35  C   UNL     1     -42.191  59.526 -52.665  1.00  0.00     0.030 A 
HETATM   36  C   UNL     1     -42.525  60.805 -53.125  1.00  0.00     0.002 A 
HETATM   37  C   UNL     1     -43.072  61.736 -52.249  1.00  0.00     0.000 A 
HETATM   38  C   UNL     1     -43.281  61.390 -50.918  1.00  0.00     0.002 A 
HETATM   39  C   UNL     1     -42.940  60.111 -50.461  1.00  0.00     0.030 A 
ENDBRANCH  32  34
ENDBRANCH   5  32
TORSDOF 8
ENDMDL
MODEL 8
REMARK VINA RESULT:      -8.3      1.763      5.620
REMARK  8 active torsions:
REMARK  status: ('A' for Active; 'I' for Inactive)
REMARK    1  A    between atoms: C_4  and  N_5 
REMARK    2  A    between atoms: N_5  and  C_6 
REMARK    3  A    between atoms: C_8  and  N_9 
REMARK    4  A    between atoms: N_12  and  C_14 
REMARK    5  A    between atoms: C_14  and  C_15 
REMARK       I    between atoms: C_15  and  N_16 
REMARK    6  A    between atoms: N_16  and  C_17 
REMARK    7  A    between atoms: C_26  and  N_27 
REMARK    8  A    between atoms: N_27  and  C_28 
ROOT
HETATM    1  C   UNL     1     -42.055  55.714 -53.352  1.00  0.00     0.758 A 
HETATM    2  N   UNL     1     -41.484  56.860 -52.994  1.00  0.00     0.131 NA
HETATM    3  C   UNL     1     -41.811  57.926 -53.706  1.00  0.00     0.756 A 
HETATM    4  N   UNL     1     -42.581  57.875 -54.783  1.00  0.00     0.131 NA
HETATM    5  C   UNL     1     -43.122  56.696 -55.074  1.00  0.00     0.758 A 
HETATM    6  N   UNL     1     -42.892  55.598 -54.371  1.00  0.00     0.131 NA
ENDROOT
BRANCH   3   7
HETATM    7  N   UNL     1     -41.368  59.178 -53.286  1.00  0.00    -0.210 N 
HETATM    8  C   UNL     1     -40.926  59.240 -51.886  1.00  0.00     0.169 C 
HETATM    9  C   UNL     1     -42.098  59.624 -50.949  1.00  0.00     0.256 C 
HETATM   10  N   UNL     1     -42.740  60.917 -51.455  1.00  0.00    -0.060 N 
HETATM   11  H   UNL     1     -41.980  61.602 -51.536  1.00  0.00     0.280 HD
HETATM   12  C   UNL     1     -43.283  60.719 -52.875  1.00  0.00     0.256 C 
HETATM   13  C   UNL     1     -42.109  60.339 -53.802  1.00  0.00     0.169 C 
BRANCH  10  14
HETATM   14  C   UNL     1     -43.742  61.550 -50.486  1.00  0.00     0.337 C 
BRANCH  14  15
HETATM   15  C   UNL     1     -43.377  62.935 -49.932  1.00  0.00     0.249 C 
HETATM   16  N   UNL     1     -43.978  63.391 -48.794  1.00  0.00    -0.304 N 
HETATM   17  H   UNL     1     -43.712  64.309 -48.457  1.00  0.00     0.171 HD
HETATM   18  O   UNL     1     -42.544  63.649 -50.497  1.00  0.00    -0.271 OA
BRANCH  16  19
HETATM   19  C   UNL     1     -44.913  62.703 -48.077  1.00  0.00     0.172 A 
HETATM   20  S   UNL     1     -46.486  63.350 -48.129  1.00  0.00    -0.062 SA
HETATM   21  C   UNL     1     -47.014  62.079 -47.104  1.00  0.00     0.072 A 
HETATM   22  C   UNL     1     -45.948  61.257 -46.801  1.00  0.00     0.126 A 
HETATM   23  N   UNL     1     -44.734  61.619 -47.365  1.00  0.00    -0.236 NA
ENDBRANCH  16  19
ENDBRANCH  14  15
ENDBRANCH  10  14
ENDBRANCH   3   7
BRANCH   1  24
HETATM   24  N   UNL     1     -41.859  54.557 -52.603  1.00  0.00    -0.187 N 
HETATM   25  H   UNL     1     -42.637  54.417 -51.972  1.00  0.00     0.184 HD
BRANCH  24  26
HETATM   26  C   UNL     1     -41.045  53.437 -52.811  1.00  0.00     0.049 A 
HETATM   27  C   UNL     1     -41.053  52.825 -54.073  1.00  0.00     0.030 A 
HETATM   28  C   UNL     1     -40.281  51.690 -54.330  1.00  0.00     0.002 A 
HETATM   29  C   UNL     1     -39.489  51.146 -53.324  1.00  0.00     0.000 A 
HETATM   30  C   UNL     1     -39.480  51.731 -52.060  1.00  0.00     0.002 A 
HETATM   31  C   UNL     1     -40.265  52.859 -51.804  1.00  0.00     0.030 A 
ENDBRANCH  24  26
ENDBRANCH   1  24
BRANCH   5  32
HETATM   32  N   UNL     1     -44.004  56.696 -56.154  1.00  0.00    -0.187 N 
HETATM   33  H   UNL     1     -44.936  56.469 -55.842  1.00  0.00     0.184 HD
BRANCH  32  34
HETATM   34  C   UNL     1     -43.826  56.830 -57.536  1.00  0.00     0.049 A 
HETATM   35  C   UNL     1     -43.216  55.779 -58.240  1.00  0.00     0.030 A 
HETATM   36  C   UNL     1     -42.978  55.865 -59.616  1.00  0.00     0.002 A 
HETATM   37  C   UNL     1     -43.350  57.009 -60.314  1.00  0.00     0.000 A 
HETATM   38  C   UNL     1     -43.956  58.062 -59.637  1.00  0.00     0.002 A 
HETATM   39  C   UNL     1     -44.187  57.973 -58.259  1.00  0.00     0.030 A 
ENDBRANCH  32  34
ENDBRANCH   5  32
TORSDOF 8
ENDMDL
MODEL 9
REMARK VINA RESULT:      -8.2      1.827      2.509
REMARK  8 active torsions:
REMARK  status: ('A' for Active; 'I' for Inactive)
REMARK    1  A    between atoms: C_4  and  N_5 
REMARK    2  A    between atoms: N_5  and  C_6 
REMARK    3  A    between atoms: C_8  and  N_9 
REMARK    4  A    between atoms: N_12  and  C_14 
REMARK    5  A    between atoms: C_14  and  C_15 
REMARK       I    between atoms: C_15  and  N_16 
REMARK    6  A    between atoms: N_16  and  C_17 
REMARK    7  A    between atoms: C_26  and  N_27 
REMARK    8  A    between atoms: N_27  and  C_28 
ROOT
HETATM    1  C   UNL     1     -43.175  56.808 -54.851  1.00  0.00     0.758 A 
HETATM    2  N   UNL     1     -42.849  58.043 -54.482  1.00  0.00     0.131 NA
HETATM    3  C   UNL     1     -42.046  58.152 -53.437  1.00  0.00     0.756 A 
HETATM    4  N   UNL     1     -41.650  57.115 -52.712  1.00  0.00     0.131 NA
HETATM    5  C   UNL     1     -42.009  55.911 -53.146  1.00  0.00     0.758 A 
HETATM    6  N   UNL     1     -42.759  55.722 -54.221  1.00  0.00     0.131 NA
ENDROOT
BRANCH   3   7
HETATM    7  N   UNL     1     -41.546  59.408 -53.098  1.00  0.00    -0.210 N 
HETATM    8  C   UNL     1     -41.153  59.557 -51.690  1.00  0.00     0.169 C 
HETATM    9  C   UNL     1     -42.334  60.079 -50.834  1.00  0.00     0.256 C 
HETATM   10  N   UNL     1     -42.881  61.361 -51.466  1.00  0.00    -0.060 N 
HETATM   11  H   UNL     1     -42.079  61.994 -51.568  1.00  0.00     0.280 HD
HETATM   12  C   UNL     1     -43.382  61.080 -52.887  1.00  0.00     0.256 C 
HETATM   13  C   UNL     1     -42.200  60.563 -53.732  1.00  0.00     0.169 C 
BRANCH  10  14
HETATM   14  C   UNL     1     -43.878  62.124 -50.590  1.00  0.00     0.337 C 
BRANCH  14  15
HETATM   15  C   UNL     1     -43.348  63.381 -49.885  1.00  0.00     0.249 C 
HETATM   16  N   UNL     1     -43.973  63.845 -48.763  1.00  0.00    -0.304 N 
HETATM   17  H   UNL     1     -43.596  64.675 -48.324  1.00  0.00     0.171 HD
HETATM   18  O   UNL     1     -42.361  63.985 -50.313  1.00  0.00    -0.271 OA
BRANCH  16  19
HETATM   19  C   UNL     1     -45.071  63.272 -48.190  1.00  0.00     0.172 A 
HETATM   20  S   UNL     1     -46.567  63.901 -48.704  1.00  0.00    -0.062 SA
HETATM   21  C   UNL     1     -47.361  62.800 -47.653  1.00  0.00     0.072 A 
HETATM   22  C   UNL     1     -46.422  62.036 -46.991  1.00  0.00     0.126 A 
HETATM   23  N   UNL     1     -45.099  62.310 -47.303  1.00  0.00    -0.236 NA
ENDBRANCH  16  19
ENDBRANCH  14  15
ENDBRANCH  10  14
ENDBRANCH   3   7
BRANCH   1  24
HETATM   24  N   UNL     1     -43.928  56.585 -55.999  1.00  0.00    -0.187 N 
HETATM   25  H   UNL     1     -44.915  56.586 -55.772  1.00  0.00     0.184 HD
BRANCH  24  26
HETATM   26  C   UNL     1     -43.625  56.731 -57.358  1.00  0.00     0.049 A 
HETATM   27  C   UNL     1     -43.951  57.938 -57.994  1.00  0.00     0.030 A 
HETATM   28  C   UNL     1     -43.696  58.130 -59.353  1.00  0.00     0.002 A 
HETATM   29  C   UNL     1     -43.110  57.114 -60.101  1.00  0.00     0.000 A 
HETATM   30  C   UNL     1     -42.793  55.903 -59.490  1.00  0.00     0.002 A 
HETATM   31  C   UNL     1     -43.063  55.710 -58.132  1.00  0.00     0.030 A 
ENDBRANCH  24  26
ENDBRANCH   1  24
BRANCH   5  32
HETATM   32  N   UNL     1     -41.496  54.839 -52.419  1.00  0.00    -0.187 N 
HETATM   33  H   UNL     1     -41.506  55.050 -51.433  1.00  0.00     0.184 HD
BRANCH  32  34
HETATM   34  C   UNL     1     -40.894  53.631 -52.790  1.00  0.00     0.049 A 
HETATM   35  C   UNL     1     -40.157  52.923 -51.826  1.00  0.00     0.030 A 
HETATM   36  C   UNL     1     -39.503  51.727 -52.142  1.00  0.00     0.002 A 
HETATM   37  C   UNL     1     -39.577  51.216 -53.432  1.00  0.00     0.000 A 
HETATM   38  C   UNL     1     -40.303  51.899 -54.403  1.00  0.00     0.002 A 
HETATM   39  C   UNL     1     -40.950  53.098 -54.084  1.00  0.00     0.030 A 
ENDBRANCH  32  34
ENDBRANCH   5  32
TORSDOF 8
ENDMDL
MODEL 10
REMARK VINA RESULT:      -8.1      1.495      5.363
REMARK  8 active torsions:
REMARK  status: ('A' for Active; 'I' for Inactive)
REMARK    1  A    between atoms: C_4  and  N_5 
REMARK    2  A    between atoms: N_5  and  C_6 
REMARK    3  A    between atoms: C_8  and  N_9 
REMARK    4  A    between atoms: N_12  and  C_14 
REMARK    5  A    between atoms: C_14  and  C_15 
REMARK       I    between atoms: C_15  and  N_16 
REMARK    6  A    between atoms: N_16  and  C_17 
REMARK    7  A    between atoms: C_26  and  N_27 
REMARK    8  A    between atoms: N_27  and  C_28 
ROOT
HETATM    1  C   UNL     1     -41.896  55.797 -53.371  1.00  0.00     0.758 A 
HETATM    2  N   UNL     1     -42.917  56.465 -52.844  1.00  0.00     0.131 NA
HETATM    3  C   UNL     1     -43.600  57.241 -53.669  1.00  0.00     0.756 A 
HETATM    4  N   UNL     1     -43.255  57.442 -54.933  1.00  0.00     0.131 NA
HETATM    5  C   UNL     1     -42.228  56.733 -55.391  1.00  0.00     0.758 A 
HETATM    6  N   UNL     1     -41.536  55.891 -54.640  1.00  0.00     0.131 NA
ENDROOT
BRANCH   3   7
HETATM    7  N   UNL     1     -44.771  57.844 -53.214  1.00  0.00    -0.210 N 
HETATM    8  C   UNL     1     -45.188  59.033 -53.970  1.00  0.00     0.169 C 
HETATM    9  C   UNL     1     -44.588  60.322 -53.355  1.00  0.00     0.256 C 
HETATM   10  N   UNL     1     -44.939  60.377 -51.868  1.00  0.00    -0.060 N 
HETATM   11  H   UNL     1     -45.960  60.279 -51.811  1.00  0.00     0.280 HD
HETATM   12  C   UNL     1     -44.356  59.161 -51.140  1.00  0.00     0.256 C 
HETATM   13  C   UNL     1     -44.961  57.882 -51.756  1.00  0.00     0.169 C 
BRANCH  10  14
HETATM   14  C   UNL     1     -44.633  61.717 -51.192  1.00  0.00     0.337 C 
BRANCH  14  15
HETATM   15  C   UNL     1     -45.819  62.672 -50.997  1.00  0.00     0.249 C 
HETATM   16  N   UNL     1     -46.404  62.786 -49.769  1.00  0.00    -0.304 N 
HETATM   17  H   UNL     1     -47.183  63.427 -49.676  1.00  0.00     0.171 HD
HETATM   18  O   UNL     1     -46.257  63.346 -51.933  1.00  0.00    -0.271 OA
BRANCH  16  19
HETATM   19  C   UNL     1     -46.018  62.099 -48.655  1.00  0.00     0.172 A 
HETATM   20  S   UNL     1     -45.139  63.005 -47.514  1.00  0.00    -0.062 SA
HETATM   21  C   UNL     1     -45.029  61.605 -46.526  1.00  0.00     0.072 A 
HETATM   22  C   UNL     1     -45.673  60.553 -47.145  1.00  0.00     0.126 A 
HETATM   23  N   UNL     1     -46.244  60.840 -48.375  1.00  0.00    -0.236 NA
ENDBRANCH  16  19
ENDBRANCH  14  15
ENDBRANCH  10  14
ENDBRANCH   3   7
BRANCH   1  24
HETATM   24  N   UNL     1     -41.181  54.877 -52.610  1.00  0.00    -0.187 N 
HETATM   25  H   UNL     1     -41.253  55.109 -51.627  1.00  0.00     0.184 HD
BRANCH  24  26
HETATM   26  C   UNL     1     -40.737  53.579 -52.889  1.00  0.00     0.049 A 
HETATM   27  C   UNL     1     -39.983  52.903 -51.918  1.00  0.00     0.030 A 
HETATM   28  C   UNL     1     -39.493  51.617 -52.152  1.00  0.00     0.002 A 
HETATM   29  C   UNL     1     -39.747  50.985 -53.366  1.00  0.00     0.000 A 
HETATM   30  C   UNL     1     -40.480  51.647 -54.347  1.00  0.00     0.002 A 
HETATM   31  C   UNL     1     -40.958  52.940 -54.114  1.00  0.00     0.030 A 
ENDBRANCH  24  26
ENDBRANCH   1  24
BRANCH   5  32
HETATM   32  N   UNL     1     -41.951  56.895 -56.747  1.00  0.00    -0.187 N 
HETATM   33  H   UNL     1     -41.090  57.407 -56.868  1.00  0.00     0.184 HD
BRANCH  32  34
HETATM   34  C   UNL     1     -42.665  56.595 -57.913  1.00  0.00     0.049 A 
HETATM   35  C   UNL     1     -42.739  57.568 -58.924  1.00  0.00     0.030 A 
HETATM   36  C   UNL     1     -43.465  57.343 -60.099  1.00  0.00     0.002 A 
HETATM   37  C   UNL     1     -44.131  56.137 -60.284  1.00  0.00     0.000 A 
HETATM   38  C   UNL     1     -44.070  55.159 -59.296  1.00  0.00     0.002 A 
HETATM   39  C   UNL     1     -43.347  55.390 -58.120  1.00  0.00     0.030 A 
ENDBRANCH  32  34
ENDBRANCH   5  32
TORSDOF 8
ENDMDL
