MODEL 1
REMARK VINA RESULT:      -8.7      0.000      0.000
REMARK  5 active torsions:
REMARK  status: ('A' for Active; 'I' for Inactive)
REMARK    1  A    between atoms: C_9  and  N_10 
REMARK       I    between atoms: N_10  and  C_11 
REMARK    2  A    between atoms: C_11  and  C_12 
REMARK    3  A    between atoms: C_14  and  O_15 
REMARK    4  A    between atoms: O_15  and  C_16 
REMARK    5  A    between atoms: C_16  and  C_17 
ROOT
HETATM    1  C   UNL     1     -41.238  53.577 -52.239  1.00  0.00    -0.013 A 
HETATM    2  C   UNL     1     -41.368  53.152 -53.576  1.00  0.00     0.053 A 
HETATM    3  C   UNL     1     -42.326  53.751 -54.465  1.00  0.00     0.100 C 
HETATM    4  N   UNL     1     -43.089  54.247 -55.186  1.00  0.00    -0.191 NA
HETATM    5  C   UNL     1     -40.546  52.127 -54.069  1.00  0.00     0.023 A 
HETATM    6  C   UNL     1     -39.598  51.523 -53.243  1.00  0.00     0.002 A 
HETATM    7  C   UNL     1     -39.468  51.935 -51.920  1.00  0.00     0.001 A 
HETATM    8  C   UNL     1     -40.281  52.953 -51.419  1.00  0.00     0.011 A 
ENDROOT
BRANCH   1   9
HETATM    9  C   UNL     1     -42.103  54.679 -51.668  1.00  0.00     0.216 C 
BRANCH   9  10
HETATM   10  O   UNL     1     -41.271  55.547 -50.904  1.00  0.00    -0.347 OA
BRANCH  10  11
HETATM   11  C   UNL     1     -41.165  56.842 -51.328  1.00  0.00     0.070 A 
HETATM   12  C   UNL     1     -41.623  57.070 -52.628  1.00  0.00     0.053 A 
HETATM   13  C   UNL     1     -41.582  58.354 -53.187  1.00  0.00     0.035 A 
HETATM   14  C   UNL     1     -41.103  59.423 -52.420  1.00  0.00     0.017 A 
HETATM   15  C   UNL     1     -40.646  59.198 -51.121  1.00  0.00     0.004 A 
HETATM   16  C   UNL     1     -40.675  57.911 -50.576  1.00  0.00     0.037 A 
BRANCH  13  17
HETATM   17  C   UNL     1     -42.115  58.547 -54.566  1.00  0.00     0.256 C 
HETATM   18  N   UNL     1     -43.114  57.666 -54.948  1.00  0.00    -0.323 N 
HETATM   19  H   UNL     1     -43.491  57.061 -54.230  1.00  0.00     0.169 HD
HETATM   20  O   UNL     1     -41.650  59.449 -55.254  1.00  0.00    -0.267 OA
BRANCH  18  21
HETATM   21  C   UNL     1     -43.685  57.537 -56.232  1.00  0.00     0.035 A 
HETATM   22  C   UNL     1     -43.203  56.656 -57.205  1.00  0.00     0.039 A 
HETATM   23  C   UNL     1     -43.865  56.566 -58.419  1.00  0.00    -0.022 A 
HETATM   24  C   UNL     1     -43.544  55.673 -59.566  1.00  0.00     0.274 C 
HETATM   25  C   UNL     1     -45.003  57.328 -58.684  1.00  0.00    -0.025 A 
HETATM   26  N   UNL     1     -44.477  56.130 -60.682  1.00  0.00    -0.067 N 
HETATM   27  C   UNL     1     -44.996  55.029 -61.535  1.00  0.00     0.270 C 
HETATM   28  H   UNL     1     -43.921  56.767 -61.264  1.00  0.00     0.280 HD
HETATM   29  C   UNL     1     -45.553  56.990 -60.028  1.00  0.00     0.273 C 
HETATM   30  C   UNL     1     -45.495  58.214 -57.741  1.00  0.00     0.012 A 
HETATM   31  C   UNL     1     -44.825  58.317 -56.515  1.00  0.00     0.030 A 
ENDBRANCH  18  21
ENDBRANCH  13  17
ENDBRANCH  10  11
ENDBRANCH   9  10
ENDBRANCH   1   9
TORSDOF 5
ENDMDL
MODEL 2
REMARK VINA RESULT:      -8.6      2.611      3.755
REMARK  5 active torsions:
REMARK  status: ('A' for Active; 'I' for Inactive)
REMARK    1  A    between atoms: C_9  and  N_10 
REMARK       I    between atoms: N_10  and  C_11 
REMARK    2  A    between atoms: C_11  and  C_12 
REMARK    3  A    between atoms: C_14  and  O_15 
REMARK    4  A    between atoms: O_15  and  C_16 
REMARK    5  A    between atoms: C_16  and  C_17 
ROOT
HETATM    1  C   UNL     1     -40.018  51.951 -53.504  1.00  0.00    -0.013 A 
HETATM    2  C   UNL     1     -39.906  51.976 -52.099  1.00  0.00     0.053 A 
HETATM    3  C   UNL     1     -40.043  53.200 -51.357  1.00  0.00     0.100 C 
HETATM    4  N   UNL     1     -40.170  54.186 -50.757  1.00  0.00    -0.191 NA
HETATM    5  C   UNL     1     -39.663  50.789 -51.393  1.00  0.00     0.023 A 
HETATM    6  C   UNL     1     -39.531  49.578 -52.074  1.00  0.00     0.002 A 
HETATM    7  C   UNL     1     -39.636  49.546 -53.461  1.00  0.00     0.001 A 
HETATM    8  C   UNL     1     -39.877  50.723 -54.173  1.00  0.00     0.011 A 
ENDROOT
BRANCH   1   9
HETATM    9  C   UNL     1     -40.281  53.209 -54.302  1.00  0.00     0.216 C 
BRANCH   9  10
HETATM   10  O   UNL     1     -41.654  53.213 -54.686  1.00  0.00    -0.347 OA
BRANCH  10  11
HETATM   11  C   UNL     1     -42.336  54.389 -54.549  1.00  0.00     0.070 A 
HETATM   12  C   UNL     1     -42.650  55.025 -55.752  1.00  0.00     0.053 A 
HETATM   13  C   UNL     1     -43.356  56.235 -55.759  1.00  0.00     0.035 A 
HETATM   14  C   UNL     1     -43.775  56.794 -54.546  1.00  0.00     0.017 A 
HETATM   15  C   UNL     1     -43.464  56.160 -53.343  1.00  0.00     0.004 A 
HETATM   16  C   UNL     1     -42.745  54.962 -53.343  1.00  0.00     0.037 A 
BRANCH  13  17
HETATM   17  C   UNL     1     -43.694  56.853 -57.073  1.00  0.00     0.256 C 
HETATM   18  N   UNL     1     -45.000  57.299 -57.205  1.00  0.00    -0.323 N 
HETATM   19  H   UNL     1     -45.573  57.292 -56.370  1.00  0.00     0.169 HD
HETATM   20  O   UNL     1     -42.820  56.928 -57.929  1.00  0.00    -0.267 OA
BRANCH  18  21
HETATM   21  C   UNL     1     -45.617  57.785 -58.377  1.00  0.00     0.035 A 
HETATM   22  C   UNL     1     -46.306  56.970 -59.280  1.00  0.00     0.039 A 
HETATM   23  C   UNL     1     -46.920  57.553 -60.378  1.00  0.00    -0.022 A 
HETATM   24  C   UNL     1     -47.730  56.879 -61.430  1.00  0.00     0.274 C 
HETATM   25  C   UNL     1     -46.872  58.931 -60.593  1.00  0.00    -0.025 A 
HETATM   26  N   UNL     1     -47.992  57.966 -62.468  1.00  0.00    -0.067 N 
HETATM   27  C   UNL     1     -49.337  57.899 -63.097  1.00  0.00     0.270 C 
HETATM   28  H   UNL     1     -47.279  57.833 -63.194  1.00  0.00     0.280 HD
HETATM   29  C   UNL     1     -47.666  59.296 -61.799  1.00  0.00     0.273 C 
HETATM   30  C   UNL     1     -46.188  59.757 -59.718  1.00  0.00     0.012 A 
HETATM   31  C   UNL     1     -45.556  59.174 -58.611  1.00  0.00     0.030 A 
ENDBRANCH  18  21
ENDBRANCH  13  17
ENDBRANCH  10  11
ENDBRANCH   9  10
ENDBRANCH   1   9
TORSDOF 5
ENDMDL
MODEL 3
REMARK VINA RESULT:      -8.3      3.701      9.153
REMARK  5 active torsions:
REMARK  status: ('A' for Active; 'I' for Inactive)
REMARK    1  A    between atoms: C_9  and  N_10 
REMARK       I    between atoms: N_10  and  C_11 
REMARK    2  A    between atoms: C_11  and  C_12 
REMARK    3  A    between atoms: C_14  and  O_15 
REMARK    4  A    between atoms: O_15  and  C_16 
REMARK    5  A    between atoms: C_16  and  C_17 
ROOT
HETATM    1  C   UNL     1     -41.736  61.101 -60.104  1.00  0.00    -0.013 A 
HETATM    2  C   UNL     1     -41.111  61.503 -58.907  1.00  0.00     0.053 A 
HETATM    3  C   UNL     1     -41.470  60.923 -57.641  1.00  0.00     0.100 C 
HETATM    4  N   UNL     1     -41.748  60.443 -56.621  1.00  0.00    -0.191 NA
HETATM    5  C   UNL     1     -40.109  62.485 -58.934  1.00  0.00     0.023 A 
HETATM    6  C   UNL     1     -39.726  63.069 -60.142  1.00  0.00     0.002 A 
HETATM    7  C   UNL     1     -40.342  62.680 -61.327  1.00  0.00     0.001 A 
HETATM    8  C   UNL     1     -41.340  61.704 -61.311  1.00  0.00     0.011 A 
ENDROOT
BRANCH   1   9
HETATM    9  C   UNL     1     -42.819  60.045 -60.118  1.00  0.00     0.216 C 
BRANCH   9  10
HETATM   10  O   UNL     1     -42.219  58.798 -60.456  1.00  0.00    -0.347 OA
BRANCH  10  11
HETATM   11  C   UNL     1     -42.736  57.677 -59.868  1.00  0.00     0.070 A 
HETATM   12  C   UNL     1     -42.356  57.489 -58.537  1.00  0.00     0.053 A 
HETATM   13  C   UNL     1     -42.819  56.386 -57.809  1.00  0.00     0.035 A 
HETATM   14  C   UNL     1     -43.697  55.480 -58.417  1.00  0.00     0.017 A 
HETATM   15  C   UNL     1     -44.079  55.666 -59.746  1.00  0.00     0.004 A 
HETATM   16  C   UNL     1     -43.598  56.761 -60.471  1.00  0.00     0.037 A 
BRANCH  13  17
HETATM   17  C   UNL     1     -42.410  56.252 -56.382  1.00  0.00     0.256 C 
HETATM   18  N   UNL     1     -41.640  55.138 -56.083  1.00  0.00    -0.323 N 
HETATM   19  H   UNL     1     -41.310  54.587 -56.865  1.00  0.00     0.169 HD
HETATM   20  O   UNL     1     -42.767  57.112 -55.585  1.00  0.00    -0.267 OA
BRANCH  18  21
HETATM   21  C   UNL     1     -41.244  54.699 -54.802  1.00  0.00     0.035 A 
HETATM   22  C   UNL     1     -41.376  55.475 -53.647  1.00  0.00     0.039 A 
HETATM   23  C   UNL     1     -41.003  54.933 -52.426  1.00  0.00    -0.022 A 
HETATM   24  C   UNL     1     -41.097  55.569 -51.083  1.00  0.00     0.274 C 
HETATM   25  C   UNL     1     -40.511  53.632 -52.329  1.00  0.00    -0.025 A 
HETATM   26  N   UNL     1     -40.384  54.597 -50.148  1.00  0.00    -0.067 N 
HETATM   27  C   UNL     1     -40.999  54.483 -48.800  1.00  0.00     0.270 C 
HETATM   28  H   UNL     1     -39.429  54.961 -50.047  1.00  0.00     0.280 HD
HETATM   29  C   UNL     1     -40.254  53.279 -50.903  1.00  0.00     0.273 C 
HETATM   30  C   UNL     1     -40.364  52.846 -53.459  1.00  0.00     0.012 A 
HETATM   31  C   UNL     1     -40.728  53.391 -54.697  1.00  0.00     0.030 A 
ENDBRANCH  18  21
ENDBRANCH  13  17
ENDBRANCH  10  11
ENDBRANCH   9  10
ENDBRANCH   1   9
TORSDOF 5
ENDMDL
MODEL 4
REMARK VINA RESULT:      -8.3      2.778      3.212
REMARK  5 active torsions:
REMARK  status: ('A' for Active; 'I' for Inactive)
REMARK    1  A    between atoms: C_9  and  N_10 
REMARK       I    between atoms: N_10  and  C_11 
REMARK    2  A    between atoms: C_11  and  C_12 
REMARK    3  A    between atoms: C_14  and  O_15 
REMARK    4  A    between atoms: O_15  and  C_16 
REMARK    5  A    between atoms: C_16  and  C_17 
ROOT
HETATM    1  C   UNL     1     -40.567  53.581 -52.616  1.00  0.00    -0.013 A 
HETATM    2  C   UNL     1     -40.659  53.184 -53.964  1.00  0.00     0.053 A 
HETATM    3  C   UNL     1     -41.239  54.041 -54.962  1.00  0.00     0.100 C 
HETATM    4  N   UNL     1     -41.692  54.741 -55.770  1.00  0.00    -0.191 NA
HETATM    5  C   UNL     1     -40.173  51.929 -54.361  1.00  0.00     0.023 A 
HETATM    6  C   UNL     1     -39.597  51.068 -53.426  1.00  0.00     0.002 A 
HETATM    7  C   UNL     1     -39.506  51.452 -52.092  1.00  0.00     0.001 A 
HETATM    8  C   UNL     1     -39.987  52.699 -51.687  1.00  0.00     0.011 A 
ENDROOT
BRANCH   1   9
HETATM    9  C   UNL     1     -41.077  54.926 -52.148  1.00  0.00     0.216 C 
BRANCH   9  10
HETATM   10  O   UNL     1     -42.441  54.774 -51.764  1.00  0.00    -0.347 OA
BRANCH  10  11
HETATM   11  C   UNL     1     -43.258  55.858 -51.922  1.00  0.00     0.070 A 
HETATM   12  C   UNL     1     -43.348  56.335 -53.233  1.00  0.00     0.053 A 
HETATM   13  C   UNL     1     -44.157  57.436 -53.540  1.00  0.00     0.035 A 
HETATM   14  C   UNL     1     -44.905  58.045 -52.526  1.00  0.00     0.017 A 
HETATM   15  C   UNL     1     -44.818  57.570 -51.217  1.00  0.00     0.004 A 
HETATM   16  C   UNL     1     -43.996  56.481 -50.915  1.00  0.00     0.037 A 
BRANCH  13  17
HETATM   17  C   UNL     1     -44.242  57.881 -54.961  1.00  0.00     0.256 C 
HETATM   18  N   UNL     1     -43.083  57.728 -55.705  1.00  0.00    -0.323 N 
HETATM   19  H   UNL     1     -42.326  57.213 -55.274  1.00  0.00     0.169 HD
HETATM   20  O   UNL     1     -45.303  58.339 -55.370  1.00  0.00    -0.267 OA
BRANCH  18  21
HETATM   21  C   UNL     1     -42.849  58.195 -57.016  1.00  0.00     0.035 A 
HETATM   22  C   UNL     1     -42.664  59.544 -57.332  1.00  0.00     0.039 A 
HETATM   23  C   UNL     1     -42.390  59.896 -58.645  1.00  0.00    -0.022 A 
HETATM   24  C   UNL     1     -42.124  61.258 -59.183  1.00  0.00     0.274 C 
HETATM   25  C   UNL     1     -42.286  58.933 -59.649  1.00  0.00    -0.025 A 
HETATM   26  N   UNL     1     -42.071  61.069 -60.696  1.00  0.00    -0.067 N 
HETATM   27  C   UNL     1     -41.064  61.919 -61.384  1.00  0.00     0.270 C 
HETATM   28  H   UNL     1     -43.005  61.319 -61.039  1.00  0.00     0.280 HD
HETATM   29  C   UNL     1     -41.919  59.572 -60.944  1.00  0.00     0.273 C 
HETATM   30  C   UNL     1     -42.473  57.592 -59.363  1.00  0.00     0.012 A 
HETATM   31  C   UNL     1     -42.761  57.230 -58.040  1.00  0.00     0.030 A 
ENDBRANCH  18  21
ENDBRANCH  13  17
ENDBRANCH  10  11
ENDBRANCH   9  10
ENDBRANCH   1   9
TORSDOF 5
ENDMDL
MODEL 5
REMARK VINA RESULT:      -8.2      2.219      7.702
REMARK  5 active torsions:
REMARK  status: ('A' for Active; 'I' for Inactive)
REMARK    1  A    between atoms: C_9  and  N_10 
REMARK       I    between atoms: N_10  and  C_11 
REMARK    2  A    between atoms: C_11  and  C_12 
REMARK    3  A    between atoms: C_14  and  O_15 
REMARK    4  A    between atoms: O_15  and  C_16 
REMARK    5  A    between atoms: C_16  and  C_17 
ROOT
HETATM    1  C   UNL     1     -45.069  57.493 -59.345  1.00  0.00    -0.013 A 
HETATM    2  C   UNL     1     -43.773  56.943 -59.410  1.00  0.00     0.053 A 
HETATM    3  C   UNL     1     -42.622  57.678 -58.960  1.00  0.00     0.100 C 
HETATM    4  N   UNL     1     -41.695  58.265 -58.581  1.00  0.00    -0.191 NA
HETATM    5  C   UNL     1     -43.585  55.648 -59.916  1.00  0.00     0.023 A 
HETATM    6  C   UNL     1     -44.675  54.898 -60.357  1.00  0.00     0.002 A 
HETATM    7  C   UNL     1     -45.957  55.436 -60.300  1.00  0.00     0.001 A 
HETATM    8  C   UNL     1     -46.155  56.724 -59.799  1.00  0.00     0.011 A 
ENDROOT
BRANCH   1   9
HETATM    9  C   UNL     1     -45.315  58.884 -58.805  1.00  0.00     0.216 C 
BRANCH   9  10
HETATM   10  O   UNL     1     -45.793  58.764 -57.468  1.00  0.00    -0.347 OA
BRANCH  10  11
HETATM   11  C   UNL     1     -44.881  58.923 -56.463  1.00  0.00     0.070 A 
HETATM   12  C   UNL     1     -44.486  57.737 -55.838  1.00  0.00     0.053 A 
HETATM   13  C   UNL     1     -43.550  57.753 -54.797  1.00  0.00     0.035 A 
HETATM   14  C   UNL     1     -42.983  58.970 -54.400  1.00  0.00     0.017 A 
HETATM   15  C   UNL     1     -43.374  60.156 -55.023  1.00  0.00     0.004 A 
HETATM   16  C   UNL     1     -44.322  60.134 -56.050  1.00  0.00     0.037 A 
BRANCH  13  17
HETATM   17  C   UNL     1     -43.140  56.455 -54.190  1.00  0.00     0.256 C 
HETATM   18  N   UNL     1     -41.808  56.110 -54.360  1.00  0.00    -0.323 N 
HETATM   19  H   UNL     1     -41.200  56.814 -54.758  1.00  0.00     0.169 HD
HETATM   20  O   UNL     1     -43.982  55.794 -53.593  1.00  0.00    -0.267 OA
BRANCH  18  21
HETATM   21  C   UNL     1     -41.198  54.885 -54.016  1.00  0.00     0.035 A 
HETATM   22  C   UNL     1     -41.036  54.448 -52.698  1.00  0.00     0.039 A 
HETATM   23  C   UNL     1     -40.469  53.204 -52.467  1.00  0.00    -0.022 A 
HETATM   24  C   UNL     1     -40.244  52.539 -51.154  1.00  0.00     0.274 C 
HETATM   25  C   UNL     1     -40.067  52.382 -53.519  1.00  0.00    -0.025 A 
HETATM   26  N   UNL     1     -39.433  51.291 -51.491  1.00  0.00    -0.067 N 
HETATM   27  C   UNL     1     -39.773  50.101 -50.668  1.00  0.00     0.270 C 
HETATM   28  H   UNL     1     -38.453  51.544 -51.320  1.00  0.00     0.280 HD
HETATM   29  C   UNL     1     -39.557  51.082 -52.996  1.00  0.00     0.273 C 
HETATM   30  C   UNL     1     -40.208  52.795 -54.832  1.00  0.00     0.012 A 
HETATM   31  C   UNL     1     -40.771  54.056 -55.073  1.00  0.00     0.030 A 
ENDBRANCH  18  21
ENDBRANCH  13  17
ENDBRANCH  10  11
ENDBRANCH   9  10
ENDBRANCH   1   9
TORSDOF 5
ENDMDL
MODEL 6
REMARK VINA RESULT:      -8.2      4.065      9.481
REMARK  5 active torsions:
REMARK  status: ('A' for Active; 'I' for Inactive)
REMARK    1  A    between atoms: C_9  and  N_10 
REMARK       I    between atoms: N_10  and  C_11 
REMARK    2  A    between atoms: C_11  and  C_12 
REMARK    3  A    between atoms: C_14  and  O_15 
REMARK    4  A    between atoms: O_15  and  C_16 
REMARK    5  A    between atoms: C_16  and  C_17 
ROOT
HETATM    1  C   UNL     1     -41.503  61.311 -60.136  1.00  0.00    -0.013 A 
HETATM    2  C   UNL     1     -41.327  61.869 -61.418  1.00  0.00     0.053 A 
HETATM    3  C   UNL     1     -42.103  61.424 -62.544  1.00  0.00     0.100 C 
HETATM    4  N   UNL     1     -42.742  61.077 -63.449  1.00  0.00    -0.191 NA
HETATM    5  C   UNL     1     -40.381  62.886 -61.617  1.00  0.00     0.023 A 
HETATM    6  C   UNL     1     -39.611  63.351 -60.550  1.00  0.00     0.002 A 
HETATM    7  C   UNL     1     -39.777  62.803 -59.282  1.00  0.00     0.001 A 
HETATM    8  C   UNL     1     -40.715  61.790 -59.074  1.00  0.00     0.011 A 
ENDROOT
BRANCH   1   9
HETATM    9  C   UNL     1     -42.513  60.215 -59.880  1.00  0.00     0.216 C 
BRANCH   9  10
HETATM   10  O   UNL     1     -41.972  59.333 -58.899  1.00  0.00    -0.347 OA
BRANCH  10  11
HETATM   11  C   UNL     1     -42.430  58.045 -58.899  1.00  0.00     0.070 A 
HETATM   12  C   UNL     1     -42.329  57.390 -57.668  1.00  0.00     0.053 A 
HETATM   13  C   UNL     1     -42.769  56.069 -57.523  1.00  0.00     0.035 A 
HETATM   14  C   UNL     1     -43.343  55.410 -58.616  1.00  0.00     0.017 A 
HETATM   15  C   UNL     1     -43.446  56.062 -59.846  1.00  0.00     0.004 A 
HETATM   16  C   UNL     1     -42.989  57.375 -59.988  1.00  0.00     0.037 A 
BRANCH  13  17
HETATM   17  C   UNL     1     -42.669  55.430 -56.179  1.00  0.00     0.256 C 
HETATM   18  N   UNL     1     -41.386  55.318 -55.665  1.00  0.00    -0.323 N 
HETATM   19  H   UNL     1     -40.647  55.790 -56.171  1.00  0.00     0.169 HD
HETATM   20  O   UNL     1     -43.698  55.057 -55.628  1.00  0.00    -0.267 OA
BRANCH  18  21
HETATM   21  C   UNL     1     -40.998  54.633 -54.494  1.00  0.00     0.035 A 
HETATM   22  C   UNL     1     -41.065  55.194 -53.215  1.00  0.00     0.039 A 
HETATM   23  C   UNL     1     -40.707  54.420 -52.122  1.00  0.00    -0.022 A 
HETATM   24  C   UNL     1     -40.742  54.807 -50.685  1.00  0.00     0.274 C 
HETATM   25  C   UNL     1     -40.293  53.096 -52.272  1.00  0.00    -0.025 A 
HETATM   26  N   UNL     1     -40.075  53.643 -49.958  1.00  0.00    -0.067 N 
HETATM   27  C   UNL     1     -40.676  53.323 -48.637  1.00  0.00     0.270 C 
HETATM   28  H   UNL     1     -39.098  53.927 -49.818  1.00  0.00     0.280 HD
HETATM   29  C   UNL     1     -40.037  52.478 -50.941  1.00  0.00     0.273 C 
HETATM   30  C   UNL     1     -40.211  52.521 -53.528  1.00  0.00     0.012 A 
HETATM   31  C   UNL     1     -40.561  53.301 -54.639  1.00  0.00     0.030 A 
ENDBRANCH  18  21
ENDBRANCH  13  17
ENDBRANCH  10  11
ENDBRANCH   9  10
ENDBRANCH   1   9
TORSDOF 5
ENDMDL
MODEL 7
REMARK VINA RESULT:      -8.0      4.453      8.674
REMARK  5 active torsions:
REMARK  status: ('A' for Active; 'I' for Inactive)
REMARK    1  A    between atoms: C_9  and  N_10 
REMARK       I    between atoms: N_10  and  C_11 
REMARK    2  A    between atoms: C_11  and  C_12 
REMARK    3  A    between atoms: C_14  and  O_15 
REMARK    4  A    between atoms: O_15  and  C_16 
REMARK    5  A    between atoms: C_16  and  C_17 
ROOT
HETATM    1  C   UNL     1     -45.316  61.345 -48.754  1.00  0.00    -0.013 A 
HETATM    2  C   UNL     1     -45.721  61.133 -47.421  1.00  0.00     0.053 A 
HETATM    3  C   UNL     1     -46.280  59.879 -46.995  1.00  0.00     0.100 C 
HETATM    4  N   UNL     1     -46.714  58.859 -46.649  1.00  0.00    -0.191 NA
HETATM    5  C   UNL     1     -45.577  62.158 -46.473  1.00  0.00     0.023 A 
HETATM    6  C   UNL     1     -45.035  63.389 -46.842  1.00  0.00     0.002 A 
HETATM    7  C   UNL     1     -44.636  63.606 -48.157  1.00  0.00     0.001 A 
HETATM    8  C   UNL     1     -44.776  62.594 -49.108  1.00  0.00     0.011 A 
ENDROOT
BRANCH   1   9
HETATM    9  C   UNL     1     -45.453  60.266 -49.805  1.00  0.00     0.216 C 
BRANCH   9  10
HETATM   10  O   UNL     1     -45.273  60.868 -51.085  1.00  0.00    -0.347 OA
BRANCH  10  11
HETATM   11  C   UNL     1     -45.082  60.029 -52.146  1.00  0.00     0.070 A 
HETATM   12  C   UNL     1     -44.405  58.845 -51.841  1.00  0.00     0.053 A 
HETATM   13  C   UNL     1     -44.149  57.890 -52.833  1.00  0.00     0.035 A 
HETATM   14  C   UNL     1     -44.604  58.115 -54.138  1.00  0.00     0.017 A 
HETATM   15  C   UNL     1     -45.280  59.296 -54.446  1.00  0.00     0.004 A 
HETATM   16  C   UNL     1     -45.517  60.252 -53.454  1.00  0.00     0.037 A 
BRANCH  13  17
HETATM   17  C   UNL     1     -43.454  56.629 -52.445  1.00  0.00     0.256 C 
HETATM   18  N   UNL     1     -42.387  56.263 -53.251  1.00  0.00    -0.323 N 
HETATM   19  H   UNL     1     -42.085  56.936 -53.944  1.00  0.00     0.169 HD
HETATM   20  O   UNL     1     -43.858  56.015 -51.464  1.00  0.00    -0.267 OA
BRANCH  18  21
HETATM   21  C   UNL     1     -41.657  55.057 -53.195  1.00  0.00     0.035 A 
HETATM   22  C   UNL     1     -41.299  54.428 -51.999  1.00  0.00     0.039 A 
HETATM   23  C   UNL     1     -40.624  53.218 -52.052  1.00  0.00    -0.022 A 
HETATM   24  C   UNL     1     -40.189  52.370 -50.908  1.00  0.00     0.274 C 
HETATM   25  C   UNL     1     -40.304  52.616 -53.269  1.00  0.00    -0.025 A 
HETATM   26  N   UNL     1     -39.345  51.271 -51.545  1.00  0.00    -0.067 N 
HETATM   27  C   UNL     1     -39.495  49.937 -50.906  1.00  0.00     0.270 C 
HETATM   28  H   UNL     1     -38.370  51.577 -51.446  1.00  0.00     0.280 HD
HETATM   29  C   UNL     1     -39.645  51.299 -53.039  1.00  0.00     0.273 C 
HETATM   30  C   UNL     1     -40.640  53.224 -54.466  1.00  0.00     0.012 A 
HETATM   31  C   UNL     1     -41.313  54.452 -54.421  1.00  0.00     0.030 A 
ENDBRANCH  18  21
ENDBRANCH  13  17
ENDBRANCH  10  11
ENDBRANCH   9  10
ENDBRANCH   1   9
TORSDOF 5
ENDMDL
MODEL 8
REMARK VINA RESULT:      -7.9      2.513      3.235
REMARK  5 active torsions:
REMARK  status: ('A' for Active; 'I' for Inactive)
REMARK    1  A    between atoms: C_9  and  N_10 
REMARK       I    between atoms: N_10  and  C_11 
REMARK    2  A    between atoms: C_11  and  C_12 
REMARK    3  A    between atoms: C_14  and  O_15 
REMARK    4  A    between atoms: O_15  and  C_16 
REMARK    5  A    between atoms: C_16  and  C_17 
ROOT
HETATM    1  C   UNL     1     -40.535  52.992 -52.704  1.00  0.00    -0.013 A 
HETATM    2  C   UNL     1     -40.129  52.332 -51.526  1.00  0.00     0.053 A 
HETATM    3  C   UNL     1     -40.243  52.959 -50.237  1.00  0.00     0.100 C 
HETATM    4  N   UNL     1     -40.351  53.459 -49.195  1.00  0.00    -0.191 NA
HETATM    5  C   UNL     1     -39.606  51.032 -51.595  1.00  0.00     0.023 A 
HETATM    6  C   UNL     1     -39.484  50.385 -52.825  1.00  0.00     0.002 A 
HETATM    7  C   UNL     1     -39.879  51.031 -53.992  1.00  0.00     0.001 A 
HETATM    8  C   UNL     1     -40.400  52.325 -53.935  1.00  0.00     0.011 A 
ENDROOT
BRANCH   1   9
HETATM    9  C   UNL     1     -41.104  54.392 -52.673  1.00  0.00     0.216 C 
BRANCH   9  10
HETATM   10  O   UNL     1     -42.503  54.298 -52.417  1.00  0.00    -0.347 OA
BRANCH  10  11
HETATM   11  C   UNL     1     -43.190  55.470 -52.267  1.00  0.00     0.070 A 
HETATM   12  C   UNL     1     -43.282  56.246 -53.425  1.00  0.00     0.053 A 
HETATM   13  C   UNL     1     -43.966  57.467 -53.416  1.00  0.00     0.035 A 
HETATM   14  C   UNL     1     -44.589  57.899 -52.239  1.00  0.00     0.017 A 
HETATM   15  C   UNL     1     -44.500  57.125 -51.081  1.00  0.00     0.004 A 
HETATM   16  C   UNL     1     -43.801  55.915 -51.094  1.00  0.00     0.037 A 
BRANCH  13  17
HETATM   17  C   UNL     1     -44.062  58.238 -54.689  1.00  0.00     0.256 C 
HETATM   18  N   UNL     1     -43.778  57.524 -55.842  1.00  0.00    -0.323 N 
HETATM   19  H   UNL     1     -43.661  56.524 -55.745  1.00  0.00     0.169 HD
HETATM   20  O   UNL     1     -44.381  59.421 -54.636  1.00  0.00    -0.267 OA
BRANCH  18  21
HETATM   21  C   UNL     1     -43.655  58.040 -57.150  1.00  0.00     0.035 A 
HETATM   22  C   UNL     1     -44.749  58.370 -57.954  1.00  0.00     0.039 A 
HETATM   23  C   UNL     1     -44.522  58.918 -59.208  1.00  0.00    -0.022 A 
HETATM   24  C   UNL     1     -45.536  59.372 -60.198  1.00  0.00     0.274 C 
HETATM   25  C   UNL     1     -43.229  59.152 -59.675  1.00  0.00    -0.025 A 
HETATM   26  N   UNL     1     -44.729  59.706 -61.448  1.00  0.00    -0.067 N 
HETATM   27  C   UNL     1     -45.234  60.882 -62.206  1.00  0.00     0.270 C 
HETATM   28  H   UNL     1     -44.790  58.875 -62.047  1.00  0.00     0.280 HD
HETATM   29  C   UNL     1     -43.271  59.806 -61.014  1.00  0.00     0.273 C 
HETATM   30  C   UNL     1     -42.129  58.825 -58.902  1.00  0.00     0.012 A 
HETATM   31  C   UNL     1     -42.350  58.262 -57.638  1.00  0.00     0.030 A 
ENDBRANCH  18  21
ENDBRANCH  13  17
ENDBRANCH  10  11
ENDBRANCH   9  10
ENDBRANCH   1   9
TORSDOF 5
ENDMDL
MODEL 9
REMARK VINA RESULT:      -7.9      3.441      6.722
REMARK  5 active torsions:
REMARK  status: ('A' for Active; 'I' for Inactive)
REMARK    1  A    between atoms: C_9  and  N_10 
REMARK       I    between atoms: N_10  and  C_11 
REMARK    2  A    between atoms: C_11  and  C_12 
REMARK    3  A    between atoms: C_14  and  O_15 
REMARK    4  A    between atoms: O_15  and  C_16 
REMARK    5  A    between atoms: C_16  and  C_17 
ROOT
HETATM    1  C   UNL     1     -40.387  52.503 -53.322  1.00  0.00    -0.013 A 
HETATM    2  C   UNL     1     -39.935  52.083 -52.055  1.00  0.00     0.053 A 
HETATM    3  C   UNL     1     -39.850  52.996 -50.948  1.00  0.00     0.100 C 
HETATM    4  N   UNL     1     -39.798  53.730 -50.049  1.00  0.00    -0.191 NA
HETATM    5  C   UNL     1     -39.562  50.746 -51.850  1.00  0.00     0.023 A 
HETATM    6  C   UNL     1     -39.635  49.825 -52.896  1.00  0.00     0.002 A 
HETATM    7  C   UNL     1     -40.077  50.233 -54.151  1.00  0.00     0.001 A 
HETATM    8  C   UNL     1     -40.449  51.562 -54.365  1.00  0.00     0.011 A 
ENDROOT
BRANCH   1   9
HETATM    9  C   UNL     1     -40.800  53.934 -53.584  1.00  0.00     0.216 C 
BRANCH   9  10
HETATM   10  O   UNL     1     -40.886  54.121 -54.994  1.00  0.00    -0.347 OA
BRANCH  10  11
HETATM   11  C   UNL     1     -41.690  55.133 -55.440  1.00  0.00     0.070 A 
HETATM   12  C   UNL     1     -41.726  56.258 -54.613  1.00  0.00     0.053 A 
HETATM   13  C   UNL     1     -42.502  57.372 -54.954  1.00  0.00     0.035 A 
HETATM   14  C   UNL     1     -43.225  57.367 -56.153  1.00  0.00     0.017 A 
HETATM   15  C   UNL     1     -43.189  56.245 -56.982  1.00  0.00     0.004 A 
HETATM   16  C   UNL     1     -42.425  55.130 -56.626  1.00  0.00     0.037 A 
BRANCH  13  17
HETATM   17  C   UNL     1     -42.478  58.559 -54.051  1.00  0.00     0.256 C 
HETATM   18  N   UNL     1     -43.282  58.470 -52.926  1.00  0.00    -0.323 N 
HETATM   19  H   UNL     1     -43.710  57.572 -52.739  1.00  0.00     0.169 HD
HETATM   20  O   UNL     1     -41.767  59.511 -54.352  1.00  0.00    -0.267 OA
BRANCH  18  21
HETATM   21  C   UNL     1     -43.554  59.494 -51.994  1.00  0.00     0.035 A 
HETATM   22  C   UNL     1     -44.810  60.088 -51.845  1.00  0.00     0.039 A 
HETATM   23  C   UNL     1     -44.987  61.052 -50.865  1.00  0.00    -0.022 A 
HETATM   24  C   UNL     1     -46.241  61.774 -50.517  1.00  0.00     0.274 C 
HETATM   25  C   UNL     1     -43.942  61.433 -50.023  1.00  0.00    -0.025 A 
HETATM   26  N   UNL     1     -45.808  62.831 -49.505  1.00  0.00    -0.067 N 
HETATM   27  C   UNL     1     -46.794  63.082 -48.422  1.00  0.00     0.270 C 
HETATM   28  H   UNL     1     -45.681  63.695 -50.045  1.00  0.00     0.280 HD
HETATM   29  C   UNL     1     -44.418  62.430 -49.022  1.00  0.00     0.273 C 
HETATM   30  C   UNL     1     -42.686  60.866 -50.156  1.00  0.00     0.012 A 
HETATM   31  C   UNL     1     -42.497  59.898 -51.152  1.00  0.00     0.030 A 
ENDBRANCH  18  21
ENDBRANCH  13  17
ENDBRANCH  10  11
ENDBRANCH   9  10
ENDBRANCH   1   9
TORSDOF 5
ENDMDL
MODEL 10
REMARK VINA RESULT:      -7.9      2.538      7.515
REMARK  5 active torsions:
REMARK  status: ('A' for Active; 'I' for Inactive)
REMARK    1  A    between atoms: C_9  and  N_10 
REMARK       I    between atoms: N_10  and  C_11 
REMARK    2  A    between atoms: C_11  and  C_12 
REMARK    3  A    between atoms: C_14  and  O_15 
REMARK    4  A    between atoms: O_15  and  C_16 
REMARK    5  A    between atoms: C_16  and  C_17 
ROOT
HETATM    1  C   UNL     1     -42.271  59.283 -57.661  1.00  0.00    -0.013 A 
HETATM    2  C   UNL     1     -42.573  57.999 -58.159  1.00  0.00     0.053 A 
HETATM    3  C   UNL     1     -42.758  56.877 -57.279  1.00  0.00     0.100 C 
HETATM    4  N   UNL     1     -42.923  55.975 -56.566  1.00  0.00    -0.191 NA
HETATM    5  C   UNL     1     -42.707  57.795 -59.540  1.00  0.00     0.023 A 
HETATM    6  C   UNL     1     -42.542  58.858 -60.429  1.00  0.00     0.002 A 
HETATM    7  C   UNL     1     -42.240  60.127 -59.945  1.00  0.00     0.001 A 
HETATM    8  C   UNL     1     -42.103  60.340 -58.572  1.00  0.00     0.011 A 
ENDROOT
BRANCH   1   9
HETATM    9  C   UNL     1     -42.119  59.544 -56.179  1.00  0.00     0.216 C 
BRANCH   9  10
HETATM   10  O   UNL     1     -43.315  60.163 -55.713  1.00  0.00    -0.347 OA
BRANCH  10  11
HETATM   11  C   UNL     1     -43.886  59.645 -54.584  1.00  0.00     0.070 A 
HETATM   12  C   UNL     1     -43.337  58.434 -54.155  1.00  0.00     0.053 A 
HETATM   13  C   UNL     1     -43.820  57.796 -53.006  1.00  0.00     0.035 A 
HETATM   14  C   UNL     1     -44.846  58.395 -52.266  1.00  0.00     0.017 A 
HETATM   15  C   UNL     1     -45.396  59.605 -52.692  1.00  0.00     0.004 A 
HETATM   16  C   UNL     1     -44.919  60.228 -53.849  1.00  0.00     0.037 A 
BRANCH  13  17
HETATM   17  C   UNL     1     -43.175  56.523 -52.575  1.00  0.00     0.256 C 
HETATM   18  N   UNL     1     -42.131  56.082 -53.373  1.00  0.00    -0.323 N 
HETATM   19  H   UNL     1     -41.807  56.715 -54.093  1.00  0.00     0.169 HD
HETATM   20  O   UNL     1     -43.595  55.964 -51.568  1.00  0.00    -0.267 OA
BRANCH  18  21
HETATM   21  C   UNL     1     -41.450  54.850 -53.275  1.00  0.00     0.035 A 
HETATM   22  C   UNL     1     -41.145  54.232 -52.059  1.00  0.00     0.039 A 
HETATM   23  C   UNL     1     -40.518  52.996 -52.071  1.00  0.00    -0.022 A 
HETATM   24  C   UNL     1     -40.142  52.156 -50.901  1.00  0.00     0.274 C 
HETATM   25  C   UNL     1     -40.195  52.356 -53.268  1.00  0.00    -0.025 A 
HETATM   26  N   UNL     1     -39.329  51.011 -51.496  1.00  0.00    -0.067 N 
HETATM   27  C   UNL     1     -39.547  49.698 -50.834  1.00  0.00     0.270 C 
HETATM   28  H   UNL     1     -38.345  51.281 -51.380  1.00  0.00     0.280 HD
HETATM   29  C   UNL     1     -39.594  51.020 -52.997  1.00  0.00     0.273 C 
HETATM   30  C   UNL     1     -40.478  52.951 -54.485  1.00  0.00     0.012 A 
HETATM   31  C   UNL     1     -41.103  54.206 -54.481  1.00  0.00     0.030 A 
ENDBRANCH  18  21
ENDBRANCH  13  17
ENDBRANCH  10  11
ENDBRANCH   9  10
ENDBRANCH   1   9
TORSDOF 5
ENDMDL
