MODEL 1
REMARK VINA RESULT:      -8.8      0.000      0.000
REMARK  8 active torsions:
REMARK  status: ('A' for Active; 'I' for Inactive)
REMARK    1  A    between atoms: C_2  and  O_3 
REMARK    2  A    between atoms: O_3  and  C_4 
REMARK    3  A    between atoms: C_5  and  C_6 
REMARK    4  A    between atoms: C_6  and  N_7 
REMARK    5  A    between atoms: C_23  and  C_24 
REMARK    6  A    between atoms: N_25  and  N_26 
REMARK       I    between atoms: N_26  and  C_27 
REMARK    7  A    between atoms: C_27  and  C_28 
REMARK    8  A    between atoms: C_31  and  N_32 
REMARK       I    between atoms: N_32  and  C_33 
ROOT
HETATM    1  C   UNL     1     -44.956  58.354 -55.344  1.00  0.00     0.076 A 
HETATM    2  C   UNL     1     -44.578  57.589 -54.226  1.00  0.00     0.002 A 
HETATM    3  C   UNL     1     -44.434  58.213 -52.979  1.00  0.00     0.024 A 
HETATM    4  C   UNL     1     -44.674  59.581 -52.837  1.00  0.00    -0.016 A 
HETATM    5  C   UNL     1     -45.026  60.344 -53.948  1.00  0.00     0.016 A 
HETATM    6  C   UNL     1     -45.166  59.731 -55.200  1.00  0.00     0.038 A 
ENDROOT
BRANCH   4   7
HETATM    7  C   UNL     1     -44.595  60.209 -51.500  1.00  0.00     0.150 C 
HETATM    8  N   UNL     1     -45.361  59.782 -50.548  1.00  0.00    -0.184 NA
BRANCH   8   9
HETATM    9  N   UNL     1     -45.290  60.353 -49.309  1.00  0.00    -0.243 N 
HETATM   10  C   UNL     1     -45.828  61.573 -48.920  1.00  0.00     0.271 C 
HETATM   11  O   UNL     1     -46.477  62.336 -49.627  1.00  0.00    -0.266 OA
HETATM   12  H   UNL     1     -44.553  59.953 -48.735  1.00  0.00     0.192 HD
BRANCH  10  13
HETATM   13  C   UNL     1     -45.515  61.971 -47.516  1.00  0.00     0.033 A 
HETATM   14  C   UNL     1     -45.250  61.025 -46.519  1.00  0.00     0.019 A 
HETATM   15  C   UNL     1     -44.941  61.438 -45.217  1.00  0.00     0.030 A 
HETATM   16  C   UNL     1     -44.904  62.796 -44.891  1.00  0.00     0.034 A 
HETATM   17  C   UNL     1     -45.197  63.738 -45.885  1.00  0.00     0.030 A 
HETATM   18  C   UNL     1     -45.504  63.330 -47.188  1.00  0.00     0.019 A 
BRANCH  16  19
HETATM   19  N   UNL     1     -44.595  63.286 -43.605  1.00  0.00    -0.328 N 
HETATM   20  C   UNL     1     -43.552  62.894 -42.784  1.00  0.00     0.218 C 
HETATM   21  C   UNL     1     -43.544  63.641 -41.474  1.00  0.00     0.117 C 
HETATM   22  O   UNL     1     -42.683  62.069 -43.043  1.00  0.00    -0.274 OA
HETATM   23  H   UNL     1     -45.194  64.024 -43.255  1.00  0.00     0.169 HD
ENDBRANCH  16  19
ENDBRANCH  10  13
ENDBRANCH   8   9
ENDBRANCH   4   7
BRANCH   2  24
HETATM   24  C   UNL     1     -44.346  56.106 -54.332  1.00  0.00     0.276 C 
BRANCH  24  25
HETATM   25  N   UNL     1     -43.306  55.716 -55.367  1.00  0.00    -0.066 N 
HETATM   26  H   UNL     1     -43.828  55.930 -56.232  1.00  0.00     0.280 HD
HETATM   27  C   UNL     1     -42.097  56.627 -55.387  1.00  0.00     0.246 C 
HETATM   28  C   UNL     1     -40.931  56.116 -54.516  1.00  0.00     0.062 C 
HETATM   29  C   UNL     1     -40.558  54.702 -54.946  1.00  0.00     0.020 C 
HETATM   30  C   UNL     1     -41.259  56.155 -53.035  1.00  0.00     0.020 A 
HETATM   31  C   UNL     1     -41.755  53.808 -54.658  1.00  0.00     0.031 C 
HETATM   32  C   UNL     1     -42.008  53.769 -53.151  1.00  0.00     0.138 C 
HETATM   33  C   UNL     1     -42.977  54.247 -55.474  1.00  0.00     0.241 C 
HETATM   34  N   UNL     1     -41.842  55.034 -52.437  1.00  0.00    -0.317 N 
HETATM   35  C   UNL     1     -42.190  55.008 -51.077  1.00  0.00     0.247 A 
HETATM   36  O   UNL     1     -42.716  54.045 -50.525  1.00  0.00    -0.268 OA
HETATM   37  C   UNL     1     -41.918  56.241 -50.302  1.00  0.00     0.074 A 
HETATM   38  C   UNL     1     -41.353  57.294 -50.899  1.00  0.00     0.007 A 
HETATM   39  C   UNL     1     -41.010  57.251 -52.297  1.00  0.00     0.026 A 
ENDBRANCH  24  25
ENDBRANCH   2  24
BRANCH   1  40
HETATM   40  O   UNL     1     -45.132  57.642 -56.504  1.00  0.00    -0.351 OA
BRANCH  40  41
HETATM   41  C   UNL     1     -45.454  58.397 -57.679  1.00  0.00     0.171 C 
HETATM   42  C   UNL     1     -46.855  58.003 -58.111  1.00  0.00     0.034 C 
ENDBRANCH  40  41
ENDBRANCH   1  40
TORSDOF 8
ENDMDL
MODEL 2
REMARK VINA RESULT:      -8.2      2.614      4.475
REMARK  8 active torsions:
REMARK  status: ('A' for Active; 'I' for Inactive)
REMARK    1  A    between atoms: C_2  and  O_3 
REMARK    2  A    between atoms: O_3  and  C_4 
REMARK    3  A    between atoms: C_5  and  C_6 
REMARK    4  A    between atoms: C_6  and  N_7 
REMARK    5  A    between atoms: C_23  and  C_24 
REMARK    6  A    between atoms: N_25  and  N_26 
REMARK       I    between atoms: N_26  and  C_27 
REMARK    7  A    between atoms: C_27  and  C_28 
REMARK    8  A    between atoms: C_31  and  N_32 
REMARK       I    between atoms: N_32  and  C_33 
ROOT
HETATM    1  C   UNL     1     -45.701  61.069 -51.569  1.00  0.00     0.076 A 
HETATM    2  C   UNL     1     -44.553  60.626 -50.890  1.00  0.00     0.002 A 
HETATM    3  C   UNL     1     -44.267  61.130 -49.613  1.00  0.00     0.024 A 
HETATM    4  C   UNL     1     -45.118  62.059 -49.010  1.00  0.00    -0.016 A 
HETATM    5  C   UNL     1     -46.243  62.516 -49.691  1.00  0.00     0.016 A 
HETATM    6  C   UNL     1     -46.534  62.022 -50.971  1.00  0.00     0.038 A 
ENDROOT
BRANCH   4   7
HETATM    7  C   UNL     1     -44.845  62.522 -47.632  1.00  0.00     0.150 C 
HETATM    8  N   UNL     1     -45.577  62.090 -46.657  1.00  0.00    -0.184 NA
BRANCH   8   9
HETATM    9  N   UNL     1     -45.328  62.508 -45.380  1.00  0.00    -0.243 N 
HETATM   10  C   UNL     1     -45.506  63.788 -44.872  1.00  0.00     0.271 C 
HETATM   11  O   UNL     1     -45.939  64.757 -45.486  1.00  0.00    -0.266 OA
HETATM   12  H   UNL     1     -44.715  61.877 -44.873  1.00  0.00     0.192 HD
BRANCH  10  13
HETATM   13  C   UNL     1     -45.067  63.962 -43.456  1.00  0.00     0.033 A 
HETATM   14  C   UNL     1     -45.844  64.652 -42.518  1.00  0.00     0.019 A 
HETATM   15  C   UNL     1     -45.408  64.777 -41.194  1.00  0.00     0.030 A 
HETATM   16  C   UNL     1     -44.190  64.227 -40.790  1.00  0.00     0.034 A 
HETATM   17  C   UNL     1     -43.403  63.561 -41.738  1.00  0.00     0.030 A 
HETATM   18  C   UNL     1     -43.835  63.431 -43.063  1.00  0.00     0.019 A 
BRANCH  16  19
HETATM   19  N   UNL     1     -43.689  64.307 -39.475  1.00  0.00    -0.328 N 
HETATM   20  C   UNL     1     -44.267  63.801 -38.323  1.00  0.00     0.218 C 
HETATM   21  C   UNL     1     -43.439  64.087 -37.095  1.00  0.00     0.117 C 
HETATM   22  O   UNL     1     -45.307  63.158 -38.244  1.00  0.00    -0.274 OA
HETATM   23  H   UNL     1     -42.794  64.769 -39.366  1.00  0.00     0.169 HD
ENDBRANCH  16  19
ENDBRANCH  10  13
ENDBRANCH   8   9
ENDBRANCH   4   7
BRANCH   2  24
HETATM   24  C   UNL     1     -43.631  59.599 -51.492  1.00  0.00     0.276 C 
BRANCH  24  25
HETATM   25  N   UNL     1     -42.279  60.152 -51.906  1.00  0.00    -0.066 N 
HETATM   26  H   UNL     1     -42.439  61.158 -51.735  1.00  0.00     0.280 HD
HETATM   27  C   UNL     1     -41.151  59.757 -50.977  1.00  0.00     0.246 C 
HETATM   28  C   UNL     1     -40.396  58.491 -51.435  1.00  0.00     0.062 C 
HETATM   29  C   UNL     1     -39.890  58.690 -52.860  1.00  0.00     0.020 C 
HETATM   30  C   UNL     1     -41.255  57.245 -51.343  1.00  0.00     0.020 A 
HETATM   31  C   UNL     1     -41.107  58.834 -53.760  1.00  0.00     0.031 C 
HETATM   32  C   UNL     1     -41.907  57.530 -53.743  1.00  0.00     0.138 C 
HETATM   33  C   UNL     1     -41.934  60.065 -53.373  1.00  0.00     0.241 C 
HETATM   34  N   UNL     1     -42.020  56.861 -52.448  1.00  0.00    -0.317 N 
HETATM   35  C   UNL     1     -42.852  55.731 -52.426  1.00  0.00     0.247 A 
HETATM   36  O   UNL     1     -43.547  55.375 -53.374  1.00  0.00    -0.268 OA
HETATM   37  C   UNL     1     -42.890  54.963 -51.158  1.00  0.00     0.074 A 
HETATM   38  C   UNL     1     -42.142  55.350 -50.121  1.00  0.00     0.007 A 
HETATM   39  C   UNL     1     -41.300  56.514 -50.214  1.00  0.00     0.026 A 
ENDBRANCH  24  25
ENDBRANCH   2  24
BRANCH   1  40
HETATM   40  O   UNL     1     -45.927  60.469 -52.783  1.00  0.00    -0.351 OA
BRANCH  40  41
HETATM   41  C   UNL     1     -46.200  61.340 -53.888  1.00  0.00     0.171 C 
HETATM   42  C   UNL     1     -44.892  61.996 -54.293  1.00  0.00     0.034 C 
ENDBRANCH  40  41
ENDBRANCH   1  40
TORSDOF 8
ENDMDL
MODEL 3
REMARK VINA RESULT:      -8.0      4.429     10.302
REMARK  8 active torsions:
REMARK  status: ('A' for Active; 'I' for Inactive)
REMARK    1  A    between atoms: C_2  and  O_3 
REMARK    2  A    between atoms: O_3  and  C_4 
REMARK    3  A    between atoms: C_5  and  C_6 
REMARK    4  A    between atoms: C_6  and  N_7 
REMARK    5  A    between atoms: C_23  and  C_24 
REMARK    6  A    between atoms: N_25  and  N_26 
REMARK       I    between atoms: N_26  and  C_27 
REMARK    7  A    between atoms: C_27  and  C_28 
REMARK    8  A    between atoms: C_31  and  N_32 
REMARK       I    between atoms: N_32  and  C_33 
ROOT
HETATM    1  C   UNL     1     -42.621  59.419 -51.599  1.00  0.00     0.076 A 
HETATM    2  C   UNL     1     -42.384  58.327 -52.451  1.00  0.00     0.002 A 
HETATM    3  C   UNL     1     -43.077  58.235 -53.666  1.00  0.00     0.024 A 
HETATM    4  C   UNL     1     -43.990  59.224 -54.039  1.00  0.00    -0.016 A 
HETATM    5  C   UNL     1     -44.243  60.295 -53.185  1.00  0.00     0.016 A 
HETATM    6  C   UNL     1     -43.559  60.391 -51.965  1.00  0.00     0.038 A 
ENDROOT
BRANCH   4   7
HETATM    7  C   UNL     1     -44.654  59.154 -55.359  1.00  0.00     0.150 C 
HETATM    8  N   UNL     1     -45.162  58.033 -55.760  1.00  0.00    -0.184 NA
BRANCH   8   9
HETATM    9  N   UNL     1     -45.781  57.961 -56.976  1.00  0.00    -0.243 N 
HETATM   10  C   UNL     1     -45.235  57.495 -58.164  1.00  0.00     0.271 C 
HETATM   11  O   UNL     1     -44.103  57.047 -58.314  1.00  0.00    -0.266 OA
HETATM   12  H   UNL     1     -46.605  58.554 -57.032  1.00  0.00     0.192 HD
BRANCH  10  13
HETATM   13  C   UNL     1     -46.131  57.617 -59.351  1.00  0.00     0.033 A 
HETATM   14  C   UNL     1     -46.670  56.495 -59.992  1.00  0.00     0.019 A 
HETATM   15  C   UNL     1     -47.523  56.652 -61.091  1.00  0.00     0.030 A 
HETATM   16  C   UNL     1     -47.841  57.924 -61.571  1.00  0.00     0.034 A 
HETATM   17  C   UNL     1     -47.278  59.042 -60.944  1.00  0.00     0.030 A 
HETATM   18  C   UNL     1     -46.426  58.892 -59.844  1.00  0.00     0.019 A 
BRANCH  16  19
HETATM   19  N   UNL     1     -48.696  58.159 -62.667  1.00  0.00    -0.328 N 
HETATM   20  C   UNL     1     -49.892  58.855 -62.666  1.00  0.00     0.218 C 
HETATM   21  C   UNL     1     -50.532  58.894 -64.031  1.00  0.00     0.117 C 
HETATM   22  O   UNL     1     -50.409  59.427 -61.713  1.00  0.00    -0.274 OA
HETATM   23  H   UNL     1     -48.386  57.794 -63.560  1.00  0.00     0.169 HD
ENDBRANCH  16  19
ENDBRANCH  10  13
ENDBRANCH   8   9
ENDBRANCH   4   7
BRANCH   2  24
HETATM   24  C   UNL     1     -41.381  57.260 -52.101  1.00  0.00     0.276 C 
BRANCH  24  25
HETATM   25  N   UNL     1     -41.816  56.354 -50.962  1.00  0.00    -0.066 N 
HETATM   26  H   UNL     1     -41.875  57.047 -50.198  1.00  0.00     0.280 HD
HETATM   27  C   UNL     1     -43.218  55.808 -51.122  1.00  0.00     0.246 C 
HETATM   28  C   UNL     1     -43.260  54.419 -51.793  1.00  0.00     0.062 C 
HETATM   29  C   UNL     1     -42.380  53.450 -51.011  1.00  0.00     0.020 C 
HETATM   30  C   UNL     1     -42.836  54.471 -53.248  1.00  0.00     0.020 A 
HETATM   31  C   UNL     1     -40.948  53.953 -51.114  1.00  0.00     0.031 C 
HETATM   32  C   UNL     1     -40.495  53.896 -52.573  1.00  0.00     0.138 C 
HETATM   33  C   UNL     1     -40.806  55.341 -50.481  1.00  0.00     0.241 C 
HETATM   34  N   UNL     1     -41.489  54.287 -53.572  1.00  0.00    -0.317 N 
HETATM   35  C   UNL     1     -41.023  54.343 -54.895  1.00  0.00     0.247 A 
HETATM   36  O   UNL     1     -39.845  54.200 -55.211  1.00  0.00    -0.268 OA
HETATM   37  C   UNL     1     -42.036  54.618 -55.941  1.00  0.00     0.074 A 
HETATM   38  C   UNL     1     -43.318  54.781 -55.602  1.00  0.00     0.007 A 
HETATM   39  C   UNL     1     -43.732  54.701 -54.225  1.00  0.00     0.026 A 
ENDBRANCH  24  25
ENDBRANCH   2  24
BRANCH   1  40
HETATM   40  O   UNL     1     -41.848  59.451 -50.465  1.00  0.00    -0.351 OA
BRANCH  40  41
HETATM   41  C   UNL     1     -40.818  60.447 -50.418  1.00  0.00     0.171 C 
HETATM   42  C   UNL     1     -39.485  59.728 -50.323  1.00  0.00     0.034 C 
ENDBRANCH  40  41
ENDBRANCH   1  40
TORSDOF 8
ENDMDL
MODEL 4
REMARK VINA RESULT:      -7.6      5.012     10.402
REMARK  8 active torsions:
REMARK  status: ('A' for Active; 'I' for Inactive)
REMARK    1  A    between atoms: C_2  and  O_3 
REMARK    2  A    between atoms: O_3  and  C_4 
REMARK    3  A    between atoms: C_5  and  C_6 
REMARK    4  A    between atoms: C_6  and  N_7 
REMARK    5  A    between atoms: C_23  and  C_24 
REMARK    6  A    between atoms: N_25  and  N_26 
REMARK       I    between atoms: N_26  and  C_27 
REMARK    7  A    between atoms: C_27  and  C_28 
REMARK    8  A    between atoms: C_31  and  N_32 
REMARK       I    between atoms: N_32  and  C_33 
ROOT
HETATM    1  C   UNL     1     -42.517  58.154 -52.579  1.00  0.00     0.076 A 
HETATM    2  C   UNL     1     -42.205  57.522 -53.796  1.00  0.00     0.002 A 
HETATM    3  C   UNL     1     -43.111  57.594 -54.864  1.00  0.00     0.024 A 
HETATM    4  C   UNL     1     -44.311  58.296 -54.731  1.00  0.00    -0.016 A 
HETATM    5  C   UNL     1     -44.630  58.903 -53.519  1.00  0.00     0.016 A 
HETATM    6  C   UNL     1     -43.734  58.831 -52.444  1.00  0.00     0.038 A 
ENDROOT
BRANCH   4   7
HETATM    7  C   UNL     1     -45.219  58.429 -55.891  1.00  0.00     0.150 C 
HETATM    8  N   UNL     1     -45.011  57.715 -56.950  1.00  0.00    -0.184 NA
BRANCH   8   9
HETATM    9  N   UNL     1     -45.848  57.829 -58.024  1.00  0.00    -0.243 N 
HETATM   10  C   UNL     1     -45.782  57.116 -59.213  1.00  0.00     0.271 C 
HETATM   11  O   UNL     1     -44.965  56.243 -59.489  1.00  0.00    -0.266 OA
HETATM   12  H   UNL     1     -46.375  58.698 -58.020  1.00  0.00     0.192 HD
BRANCH  10  13
HETATM   13  C   UNL     1     -46.787  57.520 -60.239  1.00  0.00     0.033 A 
HETATM   14  C   UNL     1     -47.387  56.591 -61.096  1.00  0.00     0.019 A 
HETATM   15  C   UNL     1     -48.342  57.006 -62.032  1.00  0.00     0.030 A 
HETATM   16  C   UNL     1     -48.702  58.352 -62.133  1.00  0.00     0.034 A 
HETATM   17  C   UNL     1     -48.079  59.282 -61.292  1.00  0.00     0.030 A 
HETATM   18  C   UNL     1     -47.126  58.872 -60.353  1.00  0.00     0.019 A 
BRANCH  16  19
HETATM   19  N   UNL     1     -49.658  58.843 -63.046  1.00  0.00    -0.328 N 
HETATM   20  C   UNL     1     -51.033  58.863 -62.893  1.00  0.00     0.218 C 
HETATM   21  C   UNL     1     -51.733  59.462 -64.087  1.00  0.00     0.117 C 
HETATM   22  O   UNL     1     -51.670  58.487 -61.916  1.00  0.00    -0.274 OA
HETATM   23  H   UNL     1     -49.292  59.246 -63.900  1.00  0.00     0.169 HD
ENDBRANCH  16  19
ENDBRANCH  10  13
ENDBRANCH   8   9
ENDBRANCH   4   7
BRANCH   2  24
HETATM   24  C   UNL     1     -40.906  56.786 -53.989  1.00  0.00     0.276 C 
BRANCH  24  25
HETATM   25  N   UNL     1     -40.991  55.632 -54.972  1.00  0.00    -0.066 N 
HETATM   26  H   UNL     1     -40.639  56.098 -55.824  1.00  0.00     0.280 HD
HETATM   27  C   UNL     1     -40.008  54.516 -54.686  1.00  0.00     0.246 C 
HETATM   28  C   UNL     1     -40.603  53.384 -53.824  1.00  0.00     0.062 C 
HETATM   29  C   UNL     1     -41.864  52.846 -54.492  1.00  0.00     0.020 C 
HETATM   30  C   UNL     1     -40.902  53.835 -52.407  1.00  0.00     0.020 A 
HETATM   31  C   UNL     1     -42.884  53.973 -54.513  1.00  0.00     0.031 C 
HETATM   32  C   UNL     1     -43.259  54.346 -53.078  1.00  0.00     0.138 C 
HETATM   33  C   UNL     1     -42.376  55.159 -55.341  1.00  0.00     0.241 C 
HETATM   34  N   UNL     1     -42.163  54.358 -52.110  1.00  0.00    -0.317 N 
HETATM   35  C   UNL     1     -42.501  54.814 -50.825  1.00  0.00     0.247 A 
HETATM   36  O   UNL     1     -43.595  55.291 -50.535  1.00  0.00    -0.268 OA
HETATM   37  C   UNL     1     -41.442  54.723 -49.793  1.00  0.00     0.074 A 
HETATM   38  C   UNL     1     -40.247  54.211 -50.104  1.00  0.00     0.007 A 
HETATM   39  C   UNL     1     -39.970  53.751 -51.441  1.00  0.00     0.026 A 
ENDBRANCH  24  25
ENDBRANCH   2  24
BRANCH   1  40
HETATM   40  O   UNL     1     -41.539  58.080 -51.618  1.00  0.00    -0.351 OA
BRANCH  40  41
HETATM   41  C   UNL     1     -41.159  59.312 -50.993  1.00  0.00     0.171 C 
HETATM   42  C   UNL     1     -39.657  59.276 -50.776  1.00  0.00     0.034 C 
ENDBRANCH  40  41
ENDBRANCH   1  40
TORSDOF 8
ENDMDL
MODEL 5
REMARK VINA RESULT:      -7.6      2.305      5.125
REMARK  8 active torsions:
REMARK  status: ('A' for Active; 'I' for Inactive)
REMARK    1  A    between atoms: C_2  and  O_3 
REMARK    2  A    between atoms: O_3  and  C_4 
REMARK    3  A    between atoms: C_5  and  C_6 
REMARK    4  A    between atoms: C_6  and  N_7 
REMARK    5  A    between atoms: C_23  and  C_24 
REMARK    6  A    between atoms: N_25  and  N_26 
REMARK       I    between atoms: N_26  and  C_27 
REMARK    7  A    between atoms: C_27  and  C_28 
REMARK    8  A    between atoms: C_31  and  N_32 
REMARK       I    between atoms: N_32  and  C_33 
ROOT
HETATM    1  C   UNL     1     -42.255  57.078 -54.713  1.00  0.00     0.076 A 
HETATM    2  C   UNL     1     -43.194  58.124 -54.744  1.00  0.00     0.002 A 
HETATM    3  C   UNL     1     -43.461  58.847 -53.573  1.00  0.00     0.024 A 
HETATM    4  C   UNL     1     -42.795  58.544 -52.383  1.00  0.00    -0.016 A 
HETATM    5  C   UNL     1     -41.881  57.493 -52.347  1.00  0.00     0.016 A 
HETATM    6  C   UNL     1     -41.613  56.761 -53.511  1.00  0.00     0.038 A 
ENDROOT
BRANCH   4   7
HETATM    7  C   UNL     1     -43.030  59.367 -51.177  1.00  0.00     0.150 C 
HETATM    8  N   UNL     1     -44.237  59.535 -50.743  1.00  0.00    -0.184 NA
BRANCH   8   9
HETATM    9  N   UNL     1     -44.462  60.290 -49.627  1.00  0.00    -0.243 N 
HETATM   10  C   UNL     1     -44.658  61.664 -49.573  1.00  0.00     0.271 C 
HETATM   11  O   UNL     1     -44.684  62.429 -50.532  1.00  0.00    -0.266 OA
HETATM   12  H   UNL     1     -44.186  59.816 -48.771  1.00  0.00     0.192 HD
BRANCH  10  13
HETATM   13  C   UNL     1     -44.797  62.219 -48.195  1.00  0.00     0.033 A 
HETATM   14  C   UNL     1     -44.711  63.593 -47.938  1.00  0.00     0.019 A 
HETATM   15  C   UNL     1     -44.866  64.078 -46.633  1.00  0.00     0.030 A 
HETATM   16  C   UNL     1     -45.097  63.202 -45.570  1.00  0.00     0.034 A 
HETATM   17  C   UNL     1     -45.155  61.827 -45.829  1.00  0.00     0.030 A 
HETATM   18  C   UNL     1     -45.003  61.336 -47.131  1.00  0.00     0.019 A 
BRANCH  16  19
HETATM   19  N   UNL     1     -45.269  63.617 -44.234  1.00  0.00    -0.328 N 
HETATM   20  C   UNL     1     -44.451  63.333 -43.154  1.00  0.00     0.218 C 
HETATM   21  C   UNL     1     -44.961  63.948 -41.874  1.00  0.00     0.117 C 
HETATM   22  O   UNL     1     -43.406  62.695 -43.171  1.00  0.00    -0.274 OA
HETATM   23  H   UNL     1     -46.070  64.209 -44.052  1.00  0.00     0.169 HD
ENDBRANCH  16  19
ENDBRANCH  10  13
ENDBRANCH   8   9
ENDBRANCH   4   7
BRANCH   2  24
HETATM   24  C   UNL     1     -43.906  58.505 -56.014  1.00  0.00     0.276 C 
BRANCH  24  25
HETATM   25  N   UNL     1     -43.385  59.779 -56.655  1.00  0.00    -0.066 N 
HETATM   26  H   UNL     1     -43.078  60.289 -55.811  1.00  0.00     0.280 HD
HETATM   27  C   UNL     1     -42.135  59.576 -57.484  1.00  0.00     0.246 C 
HETATM   28  C   UNL     1     -42.425  59.342 -58.981  1.00  0.00     0.062 C 
HETATM   29  C   UNL     1     -43.260  60.497 -59.523  1.00  0.00     0.020 C 
HETATM   30  C   UNL     1     -43.119  58.018 -59.233  1.00  0.00     0.020 A 
HETATM   31  C   UNL     1     -44.597  60.470 -58.800  1.00  0.00     0.031 C 
HETATM   32  C   UNL     1     -45.336  59.178 -59.149  1.00  0.00     0.138 C 
HETATM   33  C   UNL     1     -44.412  60.683 -57.293  1.00  0.00     0.241 C 
HETATM   34  N   UNL     1     -44.516  57.970 -59.232  1.00  0.00    -0.317 N 
HETATM   35  C   UNL     1     -45.224  56.775 -59.438  1.00  0.00     0.247 A 
HETATM   36  O   UNL     1     -46.449  56.697 -59.429  1.00  0.00    -0.268 OA
HETATM   37  C   UNL     1     -44.411  55.553 -59.646  1.00  0.00     0.074 A 
HETATM   38  C   UNL     1     -43.077  55.631 -59.650  1.00  0.00     0.007 A 
HETATM   39  C   UNL     1     -42.413  56.893 -59.443  1.00  0.00     0.026 A 
ENDBRANCH  24  25
ENDBRANCH   2  24
BRANCH   1  40
HETATM   40  O   UNL     1     -42.017  56.475 -55.923  1.00  0.00    -0.351 OA
BRANCH  40  41
HETATM   41  C   UNL     1     -41.826  55.054 -55.905  1.00  0.00     0.171 C 
HETATM   42  C   UNL     1     -43.194  54.406 -55.793  1.00  0.00     0.034 C 
ENDBRANCH  40  41
ENDBRANCH   1  40
TORSDOF 8
ENDMDL
MODEL 6
REMARK VINA RESULT:      -7.5      2.255      5.338
REMARK  8 active torsions:
REMARK  status: ('A' for Active; 'I' for Inactive)
REMARK    1  A    between atoms: C_2  and  O_3 
REMARK    2  A    between atoms: O_3  and  C_4 
REMARK    3  A    between atoms: C_5  and  C_6 
REMARK    4  A    between atoms: C_6  and  N_7 
REMARK    5  A    between atoms: C_23  and  C_24 
REMARK    6  A    between atoms: N_25  and  N_26 
REMARK       I    between atoms: N_26  and  C_27 
REMARK    7  A    between atoms: C_27  and  C_28 
REMARK    8  A    between atoms: C_31  and  N_32 
REMARK       I    between atoms: N_32  and  C_33 
ROOT
HETATM    1  C   UNL     1     -43.186  55.318 -54.241  1.00  0.00     0.076 A 
HETATM    2  C   UNL     1     -43.801  56.514 -54.652  1.00  0.00     0.002 A 
HETATM    3  C   UNL     1     -44.296  57.403 -53.688  1.00  0.00     0.024 A 
HETATM    4  C   UNL     1     -44.172  57.116 -52.327  1.00  0.00    -0.016 A 
HETATM    5  C   UNL     1     -43.583  55.921 -51.919  1.00  0.00     0.016 A 
HETATM    6  C   UNL     1     -43.091  55.023 -52.876  1.00  0.00     0.038 A 
ENDROOT
BRANCH   4   7
HETATM    7  C   UNL     1     -44.628  58.101 -51.321  1.00  0.00     0.150 C 
HETATM    8  N   UNL     1     -43.790  58.966 -50.850  1.00  0.00    -0.184 NA
BRANCH   8   9
HETATM    9  N   UNL     1     -44.204  59.882 -49.924  1.00  0.00    -0.243 N 
HETATM   10  C   UNL     1     -44.381  61.246 -50.121  1.00  0.00     0.271 C 
HETATM   11  O   UNL     1     -44.213  61.853 -51.173  1.00  0.00    -0.266 OA
HETATM   12  H   UNL     1     -44.101  59.549 -48.970  1.00  0.00     0.192 HD
BRANCH  10  13
HETATM   13  C   UNL     1     -44.763  62.006 -48.895  1.00  0.00     0.033 A 
HETATM   14  C   UNL     1     -44.457  63.363 -48.739  1.00  0.00     0.019 A 
HETATM   15  C   UNL     1     -44.850  64.048 -47.583  1.00  0.00     0.030 A 
HETATM   16  C   UNL     1     -45.541  63.387 -46.564  1.00  0.00     0.034 A 
HETATM   17  C   UNL     1     -45.821  62.023 -46.712  1.00  0.00     0.030 A 
HETATM   18  C   UNL     1     -45.433  61.335 -47.867  1.00  0.00     0.019 A 
BRANCH  16  19
HETATM   19  N   UNL     1     -45.973  64.011 -45.376  1.00  0.00    -0.328 N 
HETATM   20  C   UNL     1     -45.339  64.007 -44.146  1.00  0.00     0.218 C 
HETATM   21  C   UNL     1     -46.107  64.782 -43.104  1.00  0.00     0.117 C 
HETATM   22  O   UNL     1     -44.264  63.485 -43.874  1.00  0.00    -0.274 OA
HETATM   23  H   UNL     1     -46.834  64.541 -45.440  1.00  0.00     0.169 HD
ENDBRANCH  16  19
ENDBRANCH  10  13
ENDBRANCH   8   9
ENDBRANCH   4   7
BRANCH   2  24
HETATM   24  C   UNL     1     -43.921  56.875 -56.108  1.00  0.00     0.276 C 
BRANCH  24  25
HETATM   25  N   UNL     1     -42.592  56.925 -56.843  1.00  0.00    -0.066 N 
HETATM   26  H   UNL     1     -41.974  56.528 -56.117  1.00  0.00     0.280 HD
HETATM   27  C   UNL     1     -42.509  55.967 -58.012  1.00  0.00     0.246 C 
HETATM   28  C   UNL     1     -42.894  56.612 -59.360  1.00  0.00     0.062 C 
HETATM   29  C   UNL     1     -42.028  57.845 -59.598  1.00  0.00     0.020 C 
HETATM   30  C   UNL     1     -44.366  56.973 -59.425  1.00  0.00     0.020 A 
HETATM   31  C   UNL     1     -42.362  58.853 -58.509  1.00  0.00     0.031 C 
HETATM   32  C   UNL     1     -43.820  59.291 -58.653  1.00  0.00     0.138 C 
HETATM   33  C   UNL     1     -42.025  58.295 -57.121  1.00  0.00     0.241 C 
HETATM   34  N   UNL     1     -44.775  58.243 -59.008  1.00  0.00    -0.317 N 
HETATM   35  C   UNL     1     -46.123  58.637 -59.023  1.00  0.00     0.247 A 
HETATM   36  O   UNL     1     -46.517  59.738 -58.650  1.00  0.00    -0.268 OA
HETATM   37  C   UNL     1     -47.101  57.628 -59.496  1.00  0.00     0.074 A 
HETATM   38  C   UNL     1     -46.678  56.425 -59.896  1.00  0.00     0.007 A 
HETATM   39  C   UNL     1     -45.278  56.089 -59.866  1.00  0.00     0.026 A 
ENDBRANCH  24  25
ENDBRANCH   2  24
BRANCH   1  40
HETATM   40  O   UNL     1     -42.678  54.546 -55.256  1.00  0.00    -0.351 OA
BRANCH  40  41
HETATM   41  C   UNL     1     -41.477  53.819 -54.970  1.00  0.00     0.171 C 
HETATM   42  C   UNL     1     -40.337  54.819 -54.902  1.00  0.00     0.034 C 
ENDBRANCH  40  41
ENDBRANCH   1  40
TORSDOF 8
ENDMDL
MODEL 7
REMARK VINA RESULT:      -7.4      7.356     10.361
REMARK  8 active torsions:
REMARK  status: ('A' for Active; 'I' for Inactive)
REMARK    1  A    between atoms: C_2  and  O_3 
REMARK    2  A    between atoms: O_3  and  C_4 
REMARK    3  A    between atoms: C_5  and  C_6 
REMARK    4  A    between atoms: C_6  and  N_7 
REMARK    5  A    between atoms: C_23  and  C_24 
REMARK    6  A    between atoms: N_25  and  N_26 
REMARK       I    between atoms: N_26  and  C_27 
REMARK    7  A    between atoms: C_27  and  C_28 
REMARK    8  A    between atoms: C_31  and  N_32 
REMARK       I    between atoms: N_32  and  C_33 
ROOT
HETATM    1  C   UNL     1     -42.920  61.759 -60.895  1.00  0.00     0.076 A 
HETATM    2  C   UNL     1     -43.738  60.621 -60.786  1.00  0.00     0.002 A 
HETATM    3  C   UNL     1     -43.393  59.606 -59.882  1.00  0.00     0.024 A 
HETATM    4  C   UNL     1     -42.252  59.723 -59.085  1.00  0.00    -0.016 A 
HETATM    5  C   UNL     1     -41.429  60.840 -59.209  1.00  0.00     0.016 A 
HETATM    6  C   UNL     1     -41.763  61.857 -60.115  1.00  0.00     0.038 A 
ENDROOT
BRANCH   4   7
HETATM    7  C   UNL     1     -41.945  58.682 -58.080  1.00  0.00     0.150 C 
HETATM    8  N   UNL     1     -42.501  57.518 -58.177  1.00  0.00    -0.184 NA
BRANCH   8   9
HETATM    9  N   UNL     1     -42.219  56.549 -57.256  1.00  0.00    -0.243 N 
HETATM   10  C   UNL     1     -42.702  56.466 -55.957  1.00  0.00     0.271 C 
HETATM   11  O   UNL     1     -43.486  57.245 -55.425  1.00  0.00    -0.266 OA
HETATM   12  H   UNL     1     -41.380  56.022 -57.485  1.00  0.00     0.192 HD
BRANCH  10  13
HETATM   13  C   UNL     1     -42.148  55.334 -55.158  1.00  0.00     0.033 A 
HETATM   14  C   UNL     1     -42.801  54.837 -54.024  1.00  0.00     0.019 A 
HETATM   15  C   UNL     1     -42.260  53.760 -53.312  1.00  0.00     0.030 A 
HETATM   16  C   UNL     1     -41.058  53.173 -53.713  1.00  0.00     0.034 A 
HETATM   17  C   UNL     1     -40.394  53.691 -54.831  1.00  0.00     0.030 A 
HETATM   18  C   UNL     1     -40.932  54.765 -55.549  1.00  0.00     0.019 A 
BRANCH  16  19
HETATM   19  N   UNL     1     -40.457  52.084 -53.049  1.00  0.00    -0.328 N 
HETATM   20  C   UNL     1     -39.806  52.099 -51.828  1.00  0.00     0.218 C 
HETATM   21  C   UNL     1     -39.285  50.737 -51.441  1.00  0.00     0.117 C 
HETATM   22  O   UNL     1     -39.665  53.060 -51.081  1.00  0.00    -0.274 OA
HETATM   23  H   UNL     1     -40.530  51.186 -53.512  1.00  0.00     0.169 HD
ENDBRANCH  16  19
ENDBRANCH  10  13
ENDBRANCH   8   9
ENDBRANCH   4   7
BRANCH   2  24
HETATM   24  C   UNL     1     -44.995  60.474 -61.602  1.00  0.00     0.276 C 
BRANCH  24  25
HETATM   25  N   UNL     1     -46.073  61.488 -61.261  1.00  0.00    -0.066 N 
HETATM   26  H   UNL     1     -45.673  62.329 -61.709  1.00  0.00     0.280 HD
HETATM   27  C   UNL     1     -47.387  61.238 -61.970  1.00  0.00     0.246 C 
HETATM   28  C   UNL     1     -48.382  60.404 -61.137  1.00  0.00     0.062 C 
HETATM   29  C   UNL     1     -48.607  61.079 -59.788  1.00  0.00     0.020 C 
HETATM   30  C   UNL     1     -47.916  58.973 -60.947  1.00  0.00     0.020 A 
HETATM   31  C   UNL     1     -47.279  61.063 -59.045  1.00  0.00     0.031 C 
HETATM   32  C   UNL     1     -46.874  59.616 -58.764  1.00  0.00     0.138 C 
HETATM   33  C   UNL     1     -46.214  61.861 -59.806  1.00  0.00     0.241 C 
HETATM   34  N   UNL     1     -47.133  58.654 -59.834  1.00  0.00    -0.317 N 
HETATM   35  C   UNL     1     -46.650  57.356 -59.606  1.00  0.00     0.247 A 
HETATM   36  O   UNL     1     -45.950  57.046 -58.647  1.00  0.00    -0.268 OA
HETATM   37  C   UNL     1     -47.003  56.333 -60.619  1.00  0.00     0.074 A 
HETATM   38  C   UNL     1     -47.760  56.666 -61.669  1.00  0.00     0.007 A 
HETATM   39  C   UNL     1     -48.233  58.016 -61.837  1.00  0.00     0.026 A 
ENDBRANCH  24  25
ENDBRANCH   2  24
BRANCH   1  40
HETATM   40  O   UNL     1     -43.378  62.722 -61.760  1.00  0.00    -0.351 OA
BRANCH  40  41
HETATM   41  C   UNL     1     -42.968  64.070 -61.494  1.00  0.00     0.171 C 
HETATM   42  C   UNL     1     -44.062  64.732 -60.677  1.00  0.00     0.034 C 
ENDBRANCH  40  41
ENDBRANCH   1  40
TORSDOF 8
ENDMDL
MODEL 8
REMARK VINA RESULT:      -7.3      4.361      7.812
REMARK  8 active torsions:
REMARK  status: ('A' for Active; 'I' for Inactive)
REMARK    1  A    between atoms: C_2  and  O_3 
REMARK    2  A    between atoms: O_3  and  C_4 
REMARK    3  A    between atoms: C_5  and  C_6 
REMARK    4  A    between atoms: C_6  and  N_7 
REMARK    5  A    between atoms: C_23  and  C_24 
REMARK    6  A    between atoms: N_25  and  N_26 
REMARK       I    between atoms: N_26  and  C_27 
REMARK    7  A    between atoms: C_27  and  C_28 
REMARK    8  A    between atoms: C_31  and  N_32 
REMARK       I    between atoms: N_32  and  C_33 
ROOT
HETATM    1  C   UNL     1     -41.596  59.496 -50.598  1.00  0.00     0.076 A 
HETATM    2  C   UNL     1     -42.311  58.599 -51.412  1.00  0.00     0.002 A 
HETATM    3  C   UNL     1     -43.543  58.991 -51.954  1.00  0.00     0.024 A 
HETATM    4  C   UNL     1     -44.057  60.265 -51.703  1.00  0.00    -0.016 A 
HETATM    5  C   UNL     1     -43.360  61.146 -50.879  1.00  0.00     0.016 A 
HETATM    6  C   UNL     1     -42.130  60.761 -50.327  1.00  0.00     0.038 A 
ENDROOT
BRANCH   4   7
HETATM    7  C   UNL     1     -45.319  60.692 -52.347  1.00  0.00     0.150 C 
HETATM    8  N   UNL     1     -46.048  61.600 -51.784  1.00  0.00    -0.184 NA
BRANCH   8   9
HETATM    9  N   UNL     1     -47.212  62.003 -52.375  1.00  0.00    -0.243 N 
HETATM   10  C   UNL     1     -48.127  62.921 -51.877  1.00  0.00     0.271 C 
HETATM   11  O   UNL     1     -48.028  63.544 -50.825  1.00  0.00    -0.266 OA
HETATM   12  H   UNL     1     -47.528  61.359 -53.095  1.00  0.00     0.192 HD
BRANCH  10  13
HETATM   13  C   UNL     1     -49.351  63.095 -52.713  1.00  0.00     0.033 A 
HETATM   14  C   UNL     1     -49.806  64.359 -53.107  1.00  0.00     0.019 A 
HETATM   15  C   UNL     1     -50.948  64.481 -53.908  1.00  0.00     0.030 A 
HETATM   16  C   UNL     1     -51.656  63.348 -54.316  1.00  0.00     0.034 A 
HETATM   17  C   UNL     1     -51.213  62.088 -53.897  1.00  0.00     0.030 A 
HETATM   18  C   UNL     1     -50.070  61.960 -53.098  1.00  0.00     0.019 A 
BRANCH  16  19
HETATM   19  N   UNL     1     -52.809  63.393 -55.126  1.00  0.00    -0.328 N 
HETATM   20  C   UNL     1     -52.864  63.415 -56.509  1.00  0.00     0.218 C 
HETATM   21  C   UNL     1     -54.281  63.467 -57.024  1.00  0.00     0.117 C 
HETATM   22  O   UNL     1     -51.916  63.364 -57.283  1.00  0.00    -0.274 OA
HETATM   23  H   UNL     1     -53.696  63.385 -54.638  1.00  0.00     0.169 HD
ENDBRANCH  16  19
ENDBRANCH  10  13
ENDBRANCH   8   9
ENDBRANCH   4   7
BRANCH   2  24
HETATM   24  C   UNL     1     -41.773  57.231 -51.735  1.00  0.00     0.276 C 
BRANCH  24  25
HETATM   25  N   UNL     1     -42.075  56.184 -50.678  1.00  0.00    -0.066 N 
HETATM   26  H   UNL     1     -42.237  56.797 -49.862  1.00  0.00     0.280 HD
HETATM   27  C   UNL     1     -43.382  55.454 -50.901  1.00  0.00     0.246 C 
HETATM   28  C   UNL     1     -43.219  54.132 -51.680  1.00  0.00     0.062 C 
HETATM   29  C   UNL     1     -42.209  53.242 -50.964  1.00  0.00     0.020 C 
HETATM   30  C   UNL     1     -42.801  54.362 -53.121  1.00  0.00     0.020 A 
HETATM   31  C   UNL     1     -40.865  53.954 -51.006  1.00  0.00     0.031 C 
HETATM   32  C   UNL     1     -40.403  54.081 -52.458  1.00  0.00     0.138 C 
HETATM   33  C   UNL     1     -40.930  55.293 -50.263  1.00  0.00     0.241 C 
HETATM   34  N   UNL     1     -41.441  54.402 -53.437  1.00  0.00    -0.317 N 
HETATM   35  C   UNL     1     -40.983  54.631 -54.745  1.00  0.00     0.247 A 
HETATM   36  O   UNL     1     -39.796  54.687 -55.053  1.00  0.00    -0.268 OA
HETATM   37  C   UNL     1     -42.022  54.839 -55.781  1.00  0.00     0.074 A 
HETATM   38  C   UNL     1     -43.316  54.786 -55.450  1.00  0.00     0.007 A 
HETATM   39  C   UNL     1     -43.718  54.537 -54.089  1.00  0.00     0.026 A 
ENDBRANCH  24  25
ENDBRANCH   2  24
BRANCH   1  40
HETATM   40  O   UNL     1     -40.373  59.042 -50.168  1.00  0.00    -0.351 OA
BRANCH  40  41
HETATM   41  C   UNL     1     -39.226  59.507 -50.892  1.00  0.00     0.171 C 
HETATM   42  C   UNL     1     -38.199  59.973 -49.876  1.00  0.00     0.034 C 
ENDBRANCH  40  41
ENDBRANCH   1  40
TORSDOF 8
ENDMDL
MODEL 9
REMARK VINA RESULT:      -7.2      5.138      8.577
REMARK  8 active torsions:
REMARK  status: ('A' for Active; 'I' for Inactive)
REMARK    1  A    between atoms: C_2  and  O_3 
REMARK    2  A    between atoms: O_3  and  C_4 
REMARK    3  A    between atoms: C_5  and  C_6 
REMARK    4  A    between atoms: C_6  and  N_7 
REMARK    5  A    between atoms: C_23  and  C_24 
REMARK    6  A    between atoms: N_25  and  N_26 
REMARK       I    between atoms: N_26  and  C_27 
REMARK    7  A    between atoms: C_27  and  C_28 
REMARK    8  A    between atoms: C_31  and  N_32 
REMARK       I    between atoms: N_32  and  C_33 
ROOT
HETATM    1  C   UNL     1     -46.249  61.982 -55.457  1.00  0.00     0.076 A 
HETATM    2  C   UNL     1     -45.527  61.060 -56.235  1.00  0.00     0.002 A 
HETATM    3  C   UNL     1     -44.945  59.943 -55.620  1.00  0.00     0.024 A 
HETATM    4  C   UNL     1     -45.086  59.735 -54.246  1.00  0.00    -0.016 A 
HETATM    5  C   UNL     1     -45.783  60.659 -53.471  1.00  0.00     0.016 A 
HETATM    6  C   UNL     1     -46.363  61.782 -54.077  1.00  0.00     0.038 A 
ENDROOT
BRANCH   4   7
HETATM    7  C   UNL     1     -44.534  58.511 -53.625  1.00  0.00     0.150 C 
HETATM    8  N   UNL     1     -43.265  58.431 -53.390  1.00  0.00    -0.184 NA
BRANCH   8   9
HETATM    9  N   UNL     1     -42.747  57.306 -52.813  1.00  0.00    -0.243 N 
HETATM   10  C   UNL     1     -42.003  57.235 -51.643  1.00  0.00     0.271 C 
HETATM   11  O   UNL     1     -41.702  58.177 -50.918  1.00  0.00    -0.266 OA
HETATM   12  H   UNL     1     -42.693  56.523 -53.459  1.00  0.00     0.192 HD
BRANCH  10  13
HETATM   13  C   UNL     1     -41.503  55.870 -51.306  1.00  0.00     0.033 A 
HETATM   14  C   UNL     1     -40.609  55.647 -50.251  1.00  0.00     0.019 A 
HETATM   15  C   UNL     1     -40.178  54.349 -49.953  1.00  0.00     0.030 A 
HETATM   16  C   UNL     1     -40.621  53.260 -50.707  1.00  0.00     0.034 A 
HETATM   17  C   UNL     1     -41.492  53.491 -51.779  1.00  0.00     0.030 A 
HETATM   18  C   UNL     1     -41.929  54.786 -52.080  1.00  0.00     0.019 A 
BRANCH  16  19
HETATM   19  N   UNL     1     -40.235  51.926 -50.463  1.00  0.00    -0.328 N 
HETATM   20  C   UNL     1     -39.605  51.059 -51.338  1.00  0.00     0.218 C 
HETATM   21  C   UNL     1     -39.354  49.706 -50.722  1.00  0.00     0.117 C 
HETATM   22  O   UNL     1     -39.235  51.308 -52.480  1.00  0.00    -0.274 OA
HETATM   23  H   UNL     1     -40.421  51.573 -49.532  1.00  0.00     0.169 HD
ENDBRANCH  16  19
ENDBRANCH  10  13
ENDBRANCH   8   9
ENDBRANCH   4   7
BRANCH   2  24
HETATM   24  C   UNL     1     -45.382  61.231 -57.724  1.00  0.00     0.276 C 
BRANCH  24  25
HETATM   25  N   UNL     1     -46.622  60.847 -58.512  1.00  0.00    -0.066 N 
HETATM   26  H   UNL     1     -47.240  61.637 -58.266  1.00  0.00     0.280 HD
HETATM   27  C   UNL     1     -46.438  60.929 -60.012  1.00  0.00     0.246 C 
HETATM   28  C   UNL     1     -46.027  59.587 -60.653  1.00  0.00     0.062 C 
HETATM   29  C   UNL     1     -47.047  58.515 -60.284  1.00  0.00     0.020 C 
HETATM   30  C   UNL     1     -44.631  59.158 -60.244  1.00  0.00     0.020 A 
HETATM   31  C   UNL     1     -46.985  58.328 -58.775  1.00  0.00     0.031 C 
HETATM   32  C   UNL     1     -45.607  57.791 -58.388  1.00  0.00     0.138 C 
HETATM   33  C   UNL     1     -47.367  59.620 -58.045  1.00  0.00     0.241 C 
HETATM   34  N   UNL     1     -44.469  58.357 -59.110  1.00  0.00    -0.317 N 
HETATM   35  C   UNL     1     -43.205  57.940 -58.663  1.00  0.00     0.247 A 
HETATM   36  O   UNL     1     -43.027  57.250 -57.663  1.00  0.00    -0.268 OA
HETATM   37  C   UNL     1     -42.039  58.404 -59.452  1.00  0.00     0.074 A 
HETATM   38  C   UNL     1     -42.226  59.161 -60.537  1.00  0.00     0.007 A 
HETATM   39  C   UNL     1     -43.552  59.545 -60.947  1.00  0.00     0.026 A 
ENDBRANCH  24  25
ENDBRANCH   2  24
BRANCH   1  40
HETATM   40  O   UNL     1     -46.833  63.005 -56.162  1.00  0.00    -0.351 OA
BRANCH  40  41
HETATM   41  C   UNL     1     -48.151  63.394 -55.754  1.00  0.00     0.171 C 
HETATM   42  C   UNL     1     -49.142  62.524 -56.507  1.00  0.00     0.034 C 
ENDBRANCH  40  41
ENDBRANCH   1  40
TORSDOF 8
ENDMDL
MODEL 10
REMARK VINA RESULT:      -7.2      5.663      9.561
REMARK  8 active torsions:
REMARK  status: ('A' for Active; 'I' for Inactive)
REMARK    1  A    between atoms: C_2  and  O_3 
REMARK    2  A    between atoms: O_3  and  C_4 
REMARK    3  A    between atoms: C_5  and  C_6 
REMARK    4  A    between atoms: C_6  and  N_7 
REMARK    5  A    between atoms: C_23  and  C_24 
REMARK    6  A    between atoms: N_25  and  N_26 
REMARK       I    between atoms: N_26  and  C_27 
REMARK    7  A    between atoms: C_27  and  C_28 
REMARK    8  A    between atoms: C_31  and  N_32 
REMARK       I    between atoms: N_32  and  C_33 
ROOT
HETATM    1  C   UNL     1     -46.185  61.769 -55.456  1.00  0.00     0.076 A 
HETATM    2  C   UNL     1     -45.468  60.962 -56.356  1.00  0.00     0.002 A 
HETATM    3  C   UNL     1     -44.755  59.855 -55.875  1.00  0.00     0.024 A 
HETATM    4  C   UNL     1     -44.762  59.543 -54.514  1.00  0.00    -0.016 A 
HETATM    5  C   UNL     1     -45.454  60.354 -53.618  1.00  0.00     0.016 A 
HETATM    6  C   UNL     1     -46.164  61.467 -54.089  1.00  0.00     0.038 A 
ENDROOT
BRANCH   4   7
HETATM    7  C   UNL     1     -44.071  58.326 -54.033  1.00  0.00     0.150 C 
HETATM    8  N   UNL     1     -43.058  57.865 -54.692  1.00  0.00    -0.184 NA
BRANCH   8   9
HETATM    9  N   UNL     1     -42.411  56.745 -54.252  1.00  0.00    -0.243 N 
HETATM   10  C   UNL     1     -42.081  55.623 -55.001  1.00  0.00     0.271 C 
HETATM   11  O   UNL     1     -42.301  55.460 -56.196  1.00  0.00    -0.266 OA
HETATM   12  H   UNL     1     -42.433  56.651 -53.240  1.00  0.00     0.192 HD
BRANCH  10  13
HETATM   13  C   UNL     1     -41.448  54.519 -54.221  1.00  0.00     0.033 A 
HETATM   14  C   UNL     1     -40.577  53.597 -54.815  1.00  0.00     0.019 A 
HETATM   15  C   UNL     1     -39.987  52.587 -54.046  1.00  0.00     0.030 A 
HETATM   16  C   UNL     1     -40.265  52.475 -52.682  1.00  0.00     0.034 A 
HETATM   17  C   UNL     1     -41.157  53.382 -52.098  1.00  0.00     0.030 A 
HETATM   18  C   UNL     1     -41.749  54.396 -52.861  1.00  0.00     0.019 A 
BRANCH  16  19
HETATM   19  N   UNL     1     -39.704  51.489 -51.845  1.00  0.00    -0.328 N 
HETATM   20  C   UNL     1     -39.623  50.129 -52.086  1.00  0.00     0.218 C 
HETATM   21  C   UNL     1     -38.957  49.386 -50.954  1.00  0.00     0.117 C 
HETATM   22  O   UNL     1     -39.995  49.537 -53.092  1.00  0.00    -0.274 OA
HETATM   23  H   UNL     1     -39.295  51.821 -50.979  1.00  0.00     0.169 HD
ENDBRANCH  16  19
ENDBRANCH  10  13
ENDBRANCH   8   9
ENDBRANCH   4   7
BRANCH   2  24
HETATM   24  C   UNL     1     -45.465  61.245 -57.835  1.00  0.00     0.276 C 
BRANCH  24  25
HETATM   25  N   UNL     1     -46.745  60.837 -58.543  1.00  0.00    -0.066 N 
HETATM   26  H   UNL     1     -47.404  61.511 -58.120  1.00  0.00     0.280 HD
HETATM   27  C   UNL     1     -46.745  61.148 -60.025  1.00  0.00     0.246 C 
HETATM   28  C   UNL     1     -46.283  59.963 -60.898  1.00  0.00     0.062 C 
HETATM   29  C   UNL     1     -47.145  58.742 -60.593  1.00  0.00     0.020 C 
HETATM   30  C   UNL     1     -44.814  59.641 -60.701  1.00  0.00     0.020 A 
HETATM   31  C   UNL     1     -46.891  58.355 -59.145  1.00  0.00     0.031 C 
HETATM   32  C   UNL     1     -45.431  57.928 -58.983  1.00  0.00     0.138 C 
HETATM   33  C   UNL     1     -47.309  59.482 -58.193  1.00  0.00     0.241 C 
HETATM   34  N   UNL     1     -44.445  58.714 -59.722  1.00  0.00    -0.317 N 
HETATM   35  C   UNL     1     -43.103  58.384 -59.472  1.00  0.00     0.247 A 
HETATM   36  O   UNL     1     -42.745  57.585 -58.612  1.00  0.00    -0.268 OA
HETATM   37  C   UNL     1     -42.087  59.081 -60.296  1.00  0.00     0.074 A 
HETATM   38  C   UNL     1     -42.471  59.956 -61.230  1.00  0.00     0.007 A 
HETATM   39  C   UNL     1     -43.867  60.241 -61.443  1.00  0.00     0.026 A 
ENDBRANCH  24  25
ENDBRANCH   2  24
BRANCH   1  40
HETATM   40  O   UNL     1     -46.901  62.789 -56.032  1.00  0.00    -0.351 OA
BRANCH  40  41
HETATM   41  C   UNL     1     -48.188  63.069 -55.466  1.00  0.00     0.171 C 
HETATM   42  C   UNL     1     -49.205  62.197 -56.179  1.00  0.00     0.034 C 
ENDBRANCH  40  41
ENDBRANCH   1  40
TORSDOF 8
ENDMDL
