MODEL 1
REMARK VINA RESULT:      -8.3      0.000      0.000
REMARK  5 active torsions:
REMARK  status: ('A' for Active; 'I' for Inactive)
REMARK    1  A    between atoms: C_5  and  O_6 
REMARK    2  A    between atoms: O_6  and  C_7 
REMARK    3  A    between atoms: C_7  and  C_8 
REMARK       I    between atoms: C_8  and  N_9 
REMARK    4  A    between atoms: N_9  and  N_10 
REMARK       I    between atoms: N_10  and  C_11 
REMARK    5  A    between atoms: C_11  and  C_12 
ROOT
HETATM    1  N   UNL     1     -43.530  58.783 -50.804  1.00  0.00    -0.263 N 
HETATM    2  C   UNL     1     -42.188  58.617 -51.087  1.00  0.00     0.276 C 
HETATM    3  O   UNL     1     -41.335  59.431 -50.736  1.00  0.00    -0.266 OA
HETATM    4  H   UNL     1     -44.234  58.155 -51.200  1.00  0.00     0.190 HD
ENDROOT
BRANCH   1   5
HETATM    5  N   UNL     1     -43.968  59.964 -50.203  1.00  0.00    -0.265 N 
HETATM    6  C   UNL     1     -45.288  60.067 -49.817  1.00  0.00     0.260 C 
HETATM    7  O   UNL     1     -46.090  59.138 -49.901  1.00  0.00    -0.269 OA
HETATM    8  H   UNL     1     -43.345  60.771 -50.230  1.00  0.00     0.190 HD
BRANCH   6   9
HETATM    9  C   UNL     1     -45.695  61.462 -49.353  1.00  0.00     0.280 C 
BRANCH   9  10
HETATM   10  O   UNL     1     -46.519  61.384 -48.194  1.00  0.00    -0.342 OA
BRANCH  10  11
HETATM   11  C   UNL     1     -45.915  61.740 -47.018  1.00  0.00     0.069 A 
HETATM   12  C   UNL     1     -45.317  60.693 -46.315  1.00  0.00     0.037 A 
HETATM   13  C   UNL     1     -44.662  60.936 -45.105  1.00  0.00     0.009 A 
HETATM   14  C   UNL     1     -44.593  62.233 -44.586  1.00  0.00    -0.062 A 
HETATM   15  C   UNL     1     -43.860  62.507 -43.306  1.00  0.00     0.048 C 
HETATM   16  C   UNL     1     -45.164  63.284 -45.312  1.00  0.00     0.009 A 
HETATM   17  C   UNL     1     -45.825  63.039 -46.521  1.00  0.00     0.037 A 
ENDBRANCH  10  11
ENDBRANCH   9  10
ENDBRANCH   6   9
ENDBRANCH   1   5
BRANCH   2  18
HETATM   18  C   UNL     1     -41.866  57.407 -51.824  1.00  0.00     0.107 A 
HETATM   19  C   UNL     1     -41.393  56.214 -51.309  1.00  0.00     0.169 A 
HETATM   20  N   UNL     1     -41.212  55.350 -52.394  1.00  0.00    -0.219 N 
HETATM   21  N   UNL     1     -41.117  55.837 -50.020  1.00  0.00    -0.233 NA
HETATM   22  C   UNL     1     -40.715  54.052 -52.199  1.00  0.00     0.036 A 
HETATM   23  N   UNL     1     -41.571  55.943 -53.559  1.00  0.00    -0.170 NA
HETATM   24  C   UNL     1     -40.512  53.155 -53.381  1.00  0.00     0.070 C 
HETATM   25  C   UNL     1     -40.423  53.644 -50.950  1.00  0.00     0.053 A 
HETATM   26  C   UNL     1     -40.665  54.628 -49.849  1.00  0.00     0.035 A 
HETATM   27  C   UNL     1     -40.367  54.180 -48.441  1.00  0.00     0.070 C 
HETATM   28  C   UNL     1     -41.963  57.175 -53.219  1.00  0.00     0.071 A 
HETATM   29  C   UNL     1     -42.431  58.117 -54.270  1.00  0.00     0.073 C 
ENDBRANCH   2  18
TORSDOF 5
ENDMDL
MODEL 2
REMARK VINA RESULT:      -8.3      4.977      9.759
REMARK  5 active torsions:
REMARK  status: ('A' for Active; 'I' for Inactive)
REMARK    1  A    between atoms: C_5  and  O_6 
REMARK    2  A    between atoms: O_6  and  C_7 
REMARK    3  A    between atoms: C_7  and  C_8 
REMARK       I    between atoms: C_8  and  N_9 
REMARK    4  A    between atoms: N_9  and  N_10 
REMARK       I    between atoms: N_10  and  C_11 
REMARK    5  A    between atoms: C_11  and  C_12 
ROOT
HETATM    1  N   UNL     1     -41.781  55.213 -54.900  1.00  0.00    -0.263 N 
HETATM    2  C   UNL     1     -40.695  54.418 -54.585  1.00  0.00     0.276 C 
HETATM    3  O   UNL     1     -39.849  54.100 -55.420  1.00  0.00    -0.266 OA
HETATM    4  H   UNL     1     -42.530  55.373 -54.221  1.00  0.00     0.190 HD
ENDROOT
BRANCH   1   5
HETATM    5  N   UNL     1     -42.007  55.582 -56.226  1.00  0.00    -0.265 N 
HETATM    6  C   UNL     1     -42.314  56.895 -56.511  1.00  0.00     0.260 C 
HETATM    7  O   UNL     1     -42.321  57.786 -55.663  1.00  0.00    -0.269 OA
HETATM    8  H   UNL     1     -42.111  54.837 -56.916  1.00  0.00     0.190 HD
BRANCH   6   9
HETATM    9  C   UNL     1     -42.728  57.139 -57.959  1.00  0.00     0.280 C 
BRANCH   9  10
HETATM   10  O   UNL     1     -43.132  55.921 -58.578  1.00  0.00    -0.342 OA
BRANCH  10  11
HETATM   11  C   UNL     1     -44.261  56.000 -59.347  1.00  0.00     0.069 A 
HETATM   12  C   UNL     1     -45.164  57.000 -58.981  1.00  0.00     0.037 A 
HETATM   13  C   UNL     1     -46.349  57.182 -59.699  1.00  0.00     0.009 A 
HETATM   14  C   UNL     1     -46.643  56.367 -60.796  1.00  0.00    -0.062 A 
HETATM   15  C   UNL     1     -47.895  56.581 -61.594  1.00  0.00     0.048 C 
HETATM   16  C   UNL     1     -45.718  55.389 -61.181  1.00  0.00     0.009 A 
HETATM   17  C   UNL     1     -44.535  55.204 -60.459  1.00  0.00     0.037 A 
ENDBRANCH  10  11
ENDBRANCH   9  10
ENDBRANCH   6   9
ENDBRANCH   1   5
BRANCH   2  18
HETATM   18  C   UNL     1     -40.630  53.995 -53.197  1.00  0.00     0.107 A 
HETATM   19  C   UNL     1     -40.877  54.765 -52.075  1.00  0.00     0.169 A 
HETATM   20  N   UNL     1     -40.674  53.937 -50.966  1.00  0.00    -0.219 N 
HETATM   21  N   UNL     1     -41.250  56.078 -51.949  1.00  0.00    -0.233 NA
HETATM   22  C   UNL     1     -40.827  54.437 -49.664  1.00  0.00     0.036 A 
HETATM   23  N   UNL     1     -40.332  52.682 -51.346  1.00  0.00    -0.170 NA
HETATM   24  C   UNL     1     -40.583  53.534 -48.494  1.00  0.00     0.070 C 
HETATM   25  C   UNL     1     -41.184  55.724 -49.495  1.00  0.00     0.053 A 
HETATM   26  C   UNL     1     -41.399  56.529 -50.737  1.00  0.00     0.035 A 
HETATM   27  C   UNL     1     -41.822  57.966 -50.567  1.00  0.00     0.070 C 
HETATM   28  C   UNL     1     -40.306  52.715 -52.683  1.00  0.00     0.071 A 
HETATM   29  C   UNL     1     -39.961  51.486 -53.445  1.00  0.00     0.073 C 
ENDBRANCH   2  18
TORSDOF 5
ENDMDL
MODEL 3
REMARK VINA RESULT:      -8.2      6.208      9.999
REMARK  5 active torsions:
REMARK  status: ('A' for Active; 'I' for Inactive)
REMARK    1  A    between atoms: C_5  and  O_6 
REMARK    2  A    between atoms: O_6  and  C_7 
REMARK    3  A    between atoms: C_7  and  C_8 
REMARK       I    between atoms: C_8  and  N_9 
REMARK    4  A    between atoms: N_9  and  N_10 
REMARK       I    between atoms: N_10  and  C_11 
REMARK    5  A    between atoms: C_11  and  C_12 
ROOT
HETATM    1  N   UNL     1     -41.939  55.464 -56.310  1.00  0.00    -0.263 N 
HETATM    2  C   UNL     1     -42.579  54.583 -55.458  1.00  0.00     0.276 C 
HETATM    3  O   UNL     1     -43.565  53.934 -55.804  1.00  0.00    -0.266 OA
HETATM    4  H   UNL     1     -41.193  56.076 -55.970  1.00  0.00     0.190 HD
ENDROOT
BRANCH   1   5
HETATM    5  N   UNL     1     -42.482  55.726 -57.568  1.00  0.00    -0.265 N 
HETATM    6  C   UNL     1     -42.806  57.025 -57.898  1.00  0.00     0.260 C 
HETATM    7  O   UNL     1     -42.568  57.987 -57.168  1.00  0.00    -0.269 OA
HETATM    8  H   UNL     1     -42.782  54.931 -58.132  1.00  0.00     0.190 HD
BRANCH   6   9
HETATM    9  C   UNL     1     -43.565  57.164 -59.214  1.00  0.00     0.280 C 
BRANCH   9  10
HETATM   10  O   UNL     1     -44.734  56.349 -59.208  1.00  0.00    -0.342 OA
BRANCH  10  11
HETATM   11  C   UNL     1     -45.786  56.827 -59.942  1.00  0.00     0.069 A 
HETATM   12  C   UNL     1     -45.875  58.218 -60.022  1.00  0.00     0.037 A 
HETATM   13  C   UNL     1     -46.903  58.821 -60.751  1.00  0.00     0.009 A 
HETATM   14  C   UNL     1     -47.853  58.038 -61.414  1.00  0.00    -0.062 A 
HETATM   15  C   UNL     1     -48.938  58.678 -62.229  1.00  0.00     0.048 C 
HETATM   16  C   UNL     1     -47.739  56.644 -61.359  1.00  0.00     0.009 A 
HETATM   17  C   UNL     1     -46.713  56.041 -60.624  1.00  0.00     0.037 A 
ENDBRANCH  10  11
ENDBRANCH   9  10
ENDBRANCH   6   9
ENDBRANCH   1   5
BRANCH   2  18
HETATM   18  C   UNL     1     -41.995  54.483 -54.132  1.00  0.00     0.107 A 
HETATM   19  C   UNL     1     -41.199  53.464 -53.643  1.00  0.00     0.169 A 
HETATM   20  N   UNL     1     -40.892  53.793 -52.319  1.00  0.00    -0.219 N 
HETATM   21  N   UNL     1     -40.740  52.317 -54.237  1.00  0.00    -0.233 NA
HETATM   22  C   UNL     1     -40.106  52.935 -51.533  1.00  0.00     0.036 A 
HETATM   23  N   UNL     1     -41.442  54.980 -51.967  1.00  0.00    -0.170 NA
HETATM   24  C   UNL     1     -39.810  53.302 -50.112  1.00  0.00     0.070 C 
HETATM   25  C   UNL     1     -39.642  51.793 -52.075  1.00  0.00     0.053 A 
HETATM   26  C   UNL     1     -40.005  51.533 -53.503  1.00  0.00     0.035 A 
HETATM   27  C   UNL     1     -39.473  50.271 -54.133  1.00  0.00     0.070 C 
HETATM   28  C   UNL     1     -42.103  55.396 -53.053  1.00  0.00     0.071 A 
HETATM   29  C   UNL     1     -42.838  56.688 -53.021  1.00  0.00     0.073 C 
ENDBRANCH   2  18
TORSDOF 5
ENDMDL
MODEL 4
REMARK VINA RESULT:      -8.2      2.218      9.482
REMARK  5 active torsions:
REMARK  status: ('A' for Active; 'I' for Inactive)
REMARK    1  A    between atoms: C_5  and  O_6 
REMARK    2  A    between atoms: O_6  and  C_7 
REMARK    3  A    between atoms: C_7  and  C_8 
REMARK       I    between atoms: C_8  and  N_9 
REMARK    4  A    between atoms: N_9  and  N_10 
REMARK       I    between atoms: N_10  and  C_11 
REMARK    5  A    between atoms: C_11  and  C_12 
ROOT
HETATM    1  N   UNL     1     -43.612  58.287 -50.713  1.00  0.00    -0.263 N 
HETATM    2  C   UNL     1     -44.977  58.457 -50.836  1.00  0.00     0.276 C 
HETATM    3  O   UNL     1     -45.759  57.508 -50.863  1.00  0.00    -0.266 OA
HETATM    4  H   UNL     1     -42.972  59.080 -50.805  1.00  0.00     0.190 HD
ENDROOT
BRANCH   1   5
HETATM    5  N   UNL     1     -43.070  57.001 -50.735  1.00  0.00    -0.265 N 
HETATM    6  C   UNL     1     -41.700  56.854 -50.777  1.00  0.00     0.260 C 
HETATM    7  O   UNL     1     -40.917  57.801 -50.713  1.00  0.00    -0.269 OA
HETATM    8  H   UNL     1     -43.706  56.221 -50.898  1.00  0.00     0.190 HD
BRANCH   6   9
HETATM    9  C   UNL     1     -41.233  55.418 -50.992  1.00  0.00     0.280 C 
BRANCH   9  10
HETATM   10  O   UNL     1     -40.923  55.192 -52.364  1.00  0.00    -0.342 OA
BRANCH  10  11
HETATM   11  C   UNL     1     -40.569  53.908 -52.682  1.00  0.00     0.069 A 
HETATM   12  C   UNL     1     -40.729  53.561 -54.024  1.00  0.00     0.037 A 
HETATM   13  C   UNL     1     -40.393  52.279 -54.469  1.00  0.00     0.009 A 
HETATM   14  C   UNL     1     -39.887  51.331 -53.575  1.00  0.00    -0.062 A 
HETATM   15  C   UNL     1     -39.489  49.966 -54.052  1.00  0.00     0.048 C 
HETATM   16  C   UNL     1     -39.696  51.695 -52.237  1.00  0.00     0.009 A 
HETATM   17  C   UNL     1     -40.038  52.976 -51.791  1.00  0.00     0.037 A 
ENDBRANCH  10  11
ENDBRANCH   9  10
ENDBRANCH   6   9
ENDBRANCH   1   5
BRANCH   2  18
HETATM   18  C   UNL     1     -45.414  59.840 -50.925  1.00  0.00     0.107 A 
HETATM   19  C   UNL     1     -45.714  60.693 -49.878  1.00  0.00     0.169 A 
HETATM   20  N   UNL     1     -46.104  61.909 -50.449  1.00  0.00    -0.219 N 
HETATM   21  N   UNL     1     -45.674  60.500 -48.522  1.00  0.00    -0.233 NA
HETATM   22  C   UNL     1     -46.496  62.985 -49.637  1.00  0.00     0.036 A 
HETATM   23  N   UNL     1     -46.042  61.859 -51.802  1.00  0.00    -0.170 NA
HETATM   24  C   UNL     1     -46.930  64.269 -50.275  1.00  0.00     0.070 C 
HETATM   25  C   UNL     1     -46.481  62.835 -48.300  1.00  0.00     0.053 A 
HETATM   26  C   UNL     1     -46.031  61.507 -47.778  1.00  0.00     0.035 A 
HETATM   27  C   UNL     1     -45.985  61.330 -46.282  1.00  0.00     0.070 C 
HETATM   28  C   UNL     1     -45.628  60.621 -52.089  1.00  0.00     0.071 A 
HETATM   29  C   UNL     1     -45.446  60.213 -53.507  1.00  0.00     0.073 C 
ENDBRANCH   2  18
TORSDOF 5
ENDMDL
MODEL 5
REMARK VINA RESULT:      -8.2      3.881      5.473
REMARK  5 active torsions:
REMARK  status: ('A' for Active; 'I' for Inactive)
REMARK    1  A    between atoms: C_5  and  O_6 
REMARK    2  A    between atoms: O_6  and  C_7 
REMARK    3  A    between atoms: C_7  and  C_8 
REMARK       I    between atoms: C_8  and  N_9 
REMARK    4  A    between atoms: N_9  and  N_10 
REMARK       I    between atoms: N_10  and  C_11 
REMARK    5  A    between atoms: C_11  and  C_12 
ROOT
HETATM    1  N   UNL     1     -42.913  55.774 -50.736  1.00  0.00    -0.263 N 
HETATM    2  C   UNL     1     -41.595  55.645 -50.340  1.00  0.00     0.276 C 
HETATM    3  O   UNL     1     -40.964  56.576 -49.842  1.00  0.00    -0.266 OA
HETATM    4  H   UNL     1     -43.384  55.025 -51.249  1.00  0.00     0.190 HD
ENDROOT
BRANCH   1   5
HETATM    5  N   UNL     1     -43.531  57.024 -50.685  1.00  0.00    -0.265 N 
HETATM    6  C   UNL     1     -44.094  57.538 -51.833  1.00  0.00     0.260 C 
HETATM    7  O   UNL     1     -44.154  56.916 -52.893  1.00  0.00    -0.269 OA
HETATM    8  H   UNL     1     -43.392  57.589 -49.847  1.00  0.00     0.190 HD
BRANCH   6   9
HETATM    9  C   UNL     1     -44.566  58.983 -51.703  1.00  0.00     0.280 C 
BRANCH   9  10
HETATM   10  O   UNL     1     -43.648  59.870 -52.334  1.00  0.00    -0.342 OA
BRANCH  10  11
HETATM   11  C   UNL     1     -42.338  59.720 -51.965  1.00  0.00     0.069 A 
HETATM   12  C   UNL     1     -42.030  60.145 -50.672  1.00  0.00     0.037 A 
HETATM   13  C   UNL     1     -40.727  60.034 -50.181  1.00  0.00     0.009 A 
HETATM   14  C   UNL     1     -39.715  59.489 -50.979  1.00  0.00    -0.062 A 
HETATM   15  C   UNL     1     -38.322  59.332 -50.446  1.00  0.00     0.048 C 
HETATM   16  C   UNL     1     -40.037  59.032 -52.262  1.00  0.00     0.009 A 
HETATM   17  C   UNL     1     -41.341  59.150 -52.755  1.00  0.00     0.037 A 
ENDBRANCH  10  11
ENDBRANCH   9  10
ENDBRANCH   6   9
ENDBRANCH   1   5
BRANCH   2  18
HETATM   18  C   UNL     1     -41.020  54.329 -50.554  1.00  0.00     0.107 A 
HETATM   19  C   UNL     1     -40.714  53.735 -51.765  1.00  0.00     0.169 A 
HETATM   20  N   UNL     1     -40.201  52.467 -51.474  1.00  0.00    -0.219 N 
HETATM   21  N   UNL     1     -40.842  54.195 -53.050  1.00  0.00    -0.233 NA
HETATM   22  C   UNL     1     -39.814  51.599 -52.507  1.00  0.00     0.036 A 
HETATM   23  N   UNL     1     -40.155  52.251 -50.137  1.00  0.00    -0.170 NA
HETATM   24  C   UNL     1     -39.287  50.238 -52.167  1.00  0.00     0.070 C 
HETATM   25  C   UNL     1     -39.932  52.007 -53.784  1.00  0.00     0.053 A 
HETATM   26  C   UNL     1     -40.471  53.386 -54.000  1.00  0.00     0.035 A 
HETATM   27  C   UNL     1     -40.587  53.869 -55.423  1.00  0.00     0.070 C 
HETATM   28  C   UNL     1     -40.644  53.366 -49.584  1.00  0.00     0.071 A 
HETATM   29  C   UNL     1     -40.740  53.476 -48.105  1.00  0.00     0.073 C 
ENDBRANCH   2  18
TORSDOF 5
ENDMDL
MODEL 6
REMARK VINA RESULT:      -8.1      5.930      9.646
REMARK  5 active torsions:
REMARK  status: ('A' for Active; 'I' for Inactive)
REMARK    1  A    between atoms: C_5  and  O_6 
REMARK    2  A    between atoms: O_6  and  C_7 
REMARK    3  A    between atoms: C_7  and  C_8 
REMARK       I    between atoms: C_8  and  N_9 
REMARK    4  A    between atoms: N_9  and  N_10 
REMARK       I    between atoms: N_10  and  C_11 
REMARK    5  A    between atoms: C_11  and  C_12 
ROOT
HETATM    1  N   UNL     1     -43.343  56.403 -54.330  1.00  0.00    -0.263 N 
HETATM    2  C   UNL     1     -42.686  56.139 -55.516  1.00  0.00     0.276 C 
HETATM    3  O   UNL     1     -42.022  55.119 -55.688  1.00  0.00    -0.266 OA
HETATM    4  H   UNL     1     -43.796  57.306 -54.168  1.00  0.00     0.190 HD
ENDROOT
BRANCH   1   5
HETATM    5  N   UNL     1     -43.165  55.553 -53.237  1.00  0.00    -0.265 N 
HETATM    6  C   UNL     1     -42.246  55.895 -52.267  1.00  0.00     0.260 C 
HETATM    7  O   UNL     1     -41.626  56.958 -52.269  1.00  0.00    -0.269 OA
HETATM    8  H   UNL     1     -43.588  54.627 -53.282  1.00  0.00     0.190 HD
BRANCH   6   9
HETATM    9  C   UNL     1     -42.000  54.805 -51.230  1.00  0.00     0.280 C 
BRANCH   9  10
HETATM   10  O   UNL     1     -40.635  54.399 -51.243  1.00  0.00    -0.342 OA
BRANCH  10  11
HETATM   11  C   UNL     1     -40.346  53.337 -52.057  1.00  0.00     0.069 A 
HETATM   12  C   UNL     1     -39.905  52.186 -51.402  1.00  0.00     0.037 A 
HETATM   13  C   UNL     1     -39.587  51.035 -52.129  1.00  0.00     0.009 A 
HETATM   14  C   UNL     1     -39.713  51.022 -53.521  1.00  0.00    -0.062 A 
HETATM   15  C   UNL     1     -39.410  49.779 -54.305  1.00  0.00     0.048 C 
HETATM   16  C   UNL     1     -40.188  52.167 -54.170  1.00  0.00     0.009 A 
HETATM   17  C   UNL     1     -40.500  53.321 -53.443  1.00  0.00     0.037 A 
ENDBRANCH  10  11
ENDBRANCH   9  10
ENDBRANCH   6   9
ENDBRANCH   1   5
BRANCH   2  18
HETATM   18  C   UNL     1     -42.847  57.156 -56.541  1.00  0.00     0.107 A 
HETATM   19  C   UNL     1     -43.323  56.981 -57.828  1.00  0.00     0.169 A 
HETATM   20  N   UNL     1     -43.279  58.234 -58.448  1.00  0.00    -0.219 N 
HETATM   21  N   UNL     1     -43.774  55.860 -58.474  1.00  0.00    -0.233 NA
HETATM   22  C   UNL     1     -43.683  58.383 -59.784  1.00  0.00     0.036 A 
HETATM   23  N   UNL     1     -42.817  59.185 -57.601  1.00  0.00    -0.170 NA
HETATM   24  C   UNL     1     -43.606  59.733 -60.430  1.00  0.00     0.070 C 
HETATM   25  C   UNL     1     -44.123  57.306 -60.459  1.00  0.00     0.053 A 
HETATM   26  C   UNL     1     -44.154  56.011 -59.710  1.00  0.00     0.035 A 
HETATM   27  C   UNL     1     -44.668  54.798 -60.444  1.00  0.00     0.070 C 
HETATM   28  C   UNL     1     -42.558  58.541 -56.458  1.00  0.00     0.071 A 
HETATM   29  C   UNL     1     -42.027  59.294 -55.290  1.00  0.00     0.073 C 
ENDBRANCH   2  18
TORSDOF 5
ENDMDL
MODEL 7
REMARK VINA RESULT:      -8.0      2.091      2.935
REMARK  5 active torsions:
REMARK  status: ('A' for Active; 'I' for Inactive)
REMARK    1  A    between atoms: C_5  and  O_6 
REMARK    2  A    between atoms: O_6  and  C_7 
REMARK    3  A    between atoms: C_7  and  C_8 
REMARK       I    between atoms: C_8  and  N_9 
REMARK    4  A    between atoms: N_9  and  N_10 
REMARK       I    between atoms: N_10  and  C_11 
REMARK    5  A    between atoms: C_11  and  C_12 
ROOT
HETATM    1  N   UNL     1     -44.062  56.184 -51.916  1.00  0.00    -0.263 N 
HETATM    2  C   UNL     1     -43.573  56.012 -53.197  1.00  0.00     0.276 C 
HETATM    3  O   UNL     1     -43.873  56.766 -54.122  1.00  0.00    -0.266 OA
HETATM    4  H   UNL     1     -43.891  55.485 -51.188  1.00  0.00     0.190 HD
ENDROOT
BRANCH   1   5
HETATM    5  N   UNL     1     -45.018  57.170 -51.667  1.00  0.00    -0.265 N 
HETATM    6  C   UNL     1     -44.602  58.410 -51.231  1.00  0.00     0.260 C 
HETATM    7  O   UNL     1     -43.418  58.726 -51.125  1.00  0.00    -0.269 OA
HETATM    8  H   UNL     1     -45.998  56.887 -51.646  1.00  0.00     0.190 HD
BRANCH   6   9
HETATM    9  C   UNL     1     -45.738  59.336 -50.810  1.00  0.00     0.280 C 
BRANCH   9  10
HETATM   10  O   UNL     1     -45.856  59.374 -49.391  1.00  0.00    -0.342 OA
BRANCH  10  11
HETATM   11  C   UNL     1     -45.545  60.573 -48.808  1.00  0.00     0.069 A 
HETATM   12  C   UNL     1     -45.142  61.578 -49.689  1.00  0.00     0.037 A 
HETATM   13  C   UNL     1     -44.808  62.847 -49.210  1.00  0.00     0.009 A 
HETATM   14  C   UNL     1     -44.879  63.128 -47.842  1.00  0.00    -0.062 A 
HETATM   15  C   UNL     1     -44.557  64.499 -47.324  1.00  0.00     0.048 C 
HETATM   16  C   UNL     1     -45.316  62.127 -46.967  1.00  0.00     0.009 A 
HETATM   17  C   UNL     1     -45.645  60.855 -47.446  1.00  0.00     0.037 A 
ENDBRANCH  10  11
ENDBRANCH   9  10
ENDBRANCH   6   9
ENDBRANCH   1   5
BRANCH   2  18
HETATM   18  C   UNL     1     -42.679  54.880 -53.361  1.00  0.00     0.107 A 
HETATM   19  C   UNL     1     -41.810  54.355 -52.421  1.00  0.00     0.169 A 
HETATM   20  N   UNL     1     -41.147  53.288 -53.037  1.00  0.00    -0.219 N 
HETATM   21  N   UNL     1     -41.561  54.721 -51.124  1.00  0.00    -0.233 NA
HETATM   22  C   UNL     1     -40.173  52.556 -52.341  1.00  0.00     0.036 A 
HETATM   23  N   UNL     1     -41.578  53.111 -54.310  1.00  0.00    -0.170 NA
HETATM   24  C   UNL     1     -39.463  51.431 -53.031  1.00  0.00     0.070 C 
HETATM   25  C   UNL     1     -39.891  52.888 -51.067  1.00  0.00     0.053 A 
HETATM   26  C   UNL     1     -40.663  54.029 -50.485  1.00  0.00     0.035 A 
HETATM   27  C   UNL     1     -40.377  54.398 -49.051  1.00  0.00     0.070 C 
HETATM   28  C   UNL     1     -42.496  54.063 -54.505  1.00  0.00     0.071 A 
HETATM   29  C   UNL     1     -43.187  54.164 -55.818  1.00  0.00     0.073 C 
ENDBRANCH   2  18
TORSDOF 5
ENDMDL
MODEL 8
REMARK VINA RESULT:      -8.0      1.268      3.045
REMARK  5 active torsions:
REMARK  status: ('A' for Active; 'I' for Inactive)
REMARK    1  A    between atoms: C_5  and  O_6 
REMARK    2  A    between atoms: O_6  and  C_7 
REMARK    3  A    between atoms: C_7  and  C_8 
REMARK       I    between atoms: C_8  and  N_9 
REMARK    4  A    between atoms: N_9  and  N_10 
REMARK       I    between atoms: N_10  and  C_11 
REMARK    5  A    between atoms: C_11  and  C_12 
ROOT
HETATM    1  N   UNL     1     -43.072  57.811 -51.133  1.00  0.00    -0.263 N 
HETATM    2  C   UNL     1     -41.773  57.406 -50.892  1.00  0.00     0.276 C 
HETATM    3  O   UNL     1     -40.985  58.081 -50.231  1.00  0.00    -0.266 OA
HETATM    4  H   UNL     1     -43.675  57.292 -51.776  1.00  0.00     0.190 HD
ENDROOT
BRANCH   1   5
HETATM    5  N   UNL     1     -43.490  59.077 -50.719  1.00  0.00    -0.265 N 
HETATM    6  C   UNL     1     -44.832  59.298 -50.500  1.00  0.00     0.260 C 
HETATM    7  O   UNL     1     -45.684  58.412 -50.572  1.00  0.00    -0.269 OA
HETATM    8  H   UNL     1     -42.813  59.839 -50.764  1.00  0.00     0.190 HD
BRANCH   6   9
HETATM    9  C   UNL     1     -45.190  60.758 -50.241  1.00  0.00     0.280 C 
BRANCH   9  10
HETATM   10  O   UNL     1     -46.227  60.857 -49.270  1.00  0.00    -0.342 OA
BRANCH  10  11
HETATM   11  C   UNL     1     -45.848  61.362 -48.056  1.00  0.00     0.069 A 
HETATM   12  C   UNL     1     -45.740  62.752 -47.995  1.00  0.00     0.037 A 
HETATM   13  C   UNL     1     -45.369  63.383 -46.805  1.00  0.00     0.009 A 
HETATM   14  C   UNL     1     -45.105  62.629 -45.658  1.00  0.00    -0.062 A 
HETATM   15  C   UNL     1     -44.742  63.301 -44.367  1.00  0.00     0.048 C 
HETATM   16  C   UNL     1     -45.248  61.237 -45.714  1.00  0.00     0.009 A 
HETATM   17  C   UNL     1     -45.615  60.606 -46.908  1.00  0.00     0.037 A 
ENDBRANCH  10  11
ENDBRANCH   9  10
ENDBRANCH   6   9
ENDBRANCH   1   5
BRANCH   2  18
HETATM   18  C   UNL     1     -41.415  56.125 -51.476  1.00  0.00     0.107 A 
HETATM   19  C   UNL     1     -41.485  55.763 -52.809  1.00  0.00     0.169 A 
HETATM   20  N   UNL     1     -41.057  54.433 -52.888  1.00  0.00    -0.219 N 
HETATM   21  N   UNL     1     -41.876  56.473 -53.914  1.00  0.00    -0.233 NA
HETATM   22  C   UNL     1     -41.034  53.763 -54.121  1.00  0.00     0.036 A 
HETATM   23  N   UNL     1     -40.705  53.957 -51.669  1.00  0.00    -0.170 NA
HETATM   24  C   UNL     1     -40.592  52.333 -54.174  1.00  0.00     0.070 C 
HETATM   25  C   UNL     1     -41.420  54.420 -55.230  1.00  0.00     0.053 A 
HETATM   26  C   UNL     1     -41.842  55.844 -55.053  1.00  0.00     0.035 A 
HETATM   27  C   UNL     1     -42.254  56.603 -56.289  1.00  0.00     0.070 C 
HETATM   28  C   UNL     1     -40.918  54.970 -50.822  1.00  0.00     0.071 A 
HETATM   29  C   UNL     1     -40.632  54.793 -49.373  1.00  0.00     0.073 C 
ENDBRANCH   2  18
TORSDOF 5
ENDMDL
MODEL 9
REMARK VINA RESULT:      -7.9      6.267      9.747
REMARK  5 active torsions:
REMARK  status: ('A' for Active; 'I' for Inactive)
REMARK    1  A    between atoms: C_5  and  O_6 
REMARK    2  A    between atoms: O_6  and  C_7 
REMARK    3  A    between atoms: C_7  and  C_8 
REMARK       I    between atoms: C_8  and  N_9 
REMARK    4  A    between atoms: N_9  and  N_10 
REMARK       I    between atoms: N_10  and  C_11 
REMARK    5  A    between atoms: C_11  and  C_12 
ROOT
HETATM    1  N   UNL     1     -42.000  55.363 -56.485  1.00  0.00    -0.263 N 
HETATM    2  C   UNL     1     -42.578  54.500 -55.574  1.00  0.00     0.276 C 
HETATM    3  O   UNL     1     -43.536  53.785 -55.862  1.00  0.00    -0.266 OA
HETATM    4  H   UNL     1     -41.278  56.029 -56.196  1.00  0.00     0.190 HD
ENDROOT
BRANCH   1   5
HETATM    5  N   UNL     1     -42.579  55.529 -57.744  1.00  0.00    -0.265 N 
HETATM    6  C   UNL     1     -43.496  56.541 -57.929  1.00  0.00     0.260 C 
HETATM    7  O   UNL     1     -43.776  57.366 -57.060  1.00  0.00    -0.269 OA
HETATM    8  H   UNL     1     -42.438  54.790 -58.433  1.00  0.00     0.190 HD
BRANCH   6   9
HETATM    9  C   UNL     1     -44.200  56.504 -59.281  1.00  0.00     0.280 C 
BRANCH   9  10
HETATM   10  O   UNL     1     -43.298  56.852 -60.328  1.00  0.00    -0.342 OA
BRANCH  10  11
HETATM   11  C   UNL     1     -43.130  58.194 -60.537  1.00  0.00     0.069 A 
HETATM   12  C   UNL     1     -44.308  58.942 -60.585  1.00  0.00     0.037 A 
HETATM   13  C   UNL     1     -44.261  60.324 -60.785  1.00  0.00     0.009 A 
HETATM   14  C   UNL     1     -43.033  60.975 -60.936  1.00  0.00    -0.062 A 
HETATM   15  C   UNL     1     -42.973  62.464 -61.114  1.00  0.00     0.048 C 
HETATM   16  C   UNL     1     -41.854  60.226 -60.853  1.00  0.00     0.009 A 
HETATM   17  C   UNL     1     -41.902  58.841 -60.658  1.00  0.00     0.037 A 
ENDBRANCH  10  11
ENDBRANCH   9  10
ENDBRANCH   6   9
ENDBRANCH   1   5
BRANCH   2  18
HETATM   18  C   UNL     1     -41.964  54.502 -54.257  1.00  0.00     0.107 A 
HETATM   19  C   UNL     1     -41.172  53.514 -53.701  1.00  0.00     0.169 A 
HETATM   20  N   UNL     1     -40.828  53.949 -52.416  1.00  0.00    -0.219 N 
HETATM   21  N   UNL     1     -40.744  52.314 -54.206  1.00  0.00    -0.233 NA
HETATM   22  C   UNL     1     -40.038  53.147 -51.579  1.00  0.00     0.036 A 
HETATM   23  N   UNL     1     -41.353  55.171 -52.155  1.00  0.00    -0.170 NA
HETATM   24  C   UNL     1     -39.702  53.628 -50.200  1.00  0.00     0.070 C 
HETATM   25  C   UNL     1     -39.604  51.956 -52.032  1.00  0.00     0.053 A 
HETATM   26  C   UNL     1     -40.004  51.583 -53.425  1.00  0.00     0.035 A 
HETATM   27  C   UNL     1     -39.506  50.263 -53.957  1.00  0.00     0.070 C 
HETATM   28  C   UNL     1     -42.033  55.504 -53.257  1.00  0.00     0.071 A 
HETATM   29  C   UNL     1     -42.747  56.807 -53.318  1.00  0.00     0.073 C 
ENDBRANCH   2  18
TORSDOF 5
ENDMDL
MODEL 10
REMARK VINA RESULT:      -7.9      6.106      9.652
REMARK  5 active torsions:
REMARK  status: ('A' for Active; 'I' for Inactive)
REMARK    1  A    between atoms: C_5  and  O_6 
REMARK    2  A    between atoms: O_6  and  C_7 
REMARK    3  A    between atoms: C_7  and  C_8 
REMARK       I    between atoms: C_8  and  N_9 
REMARK    4  A    between atoms: N_9  and  N_10 
REMARK       I    between atoms: N_10  and  C_11 
REMARK    5  A    between atoms: C_11  and  C_12 
ROOT
HETATM    1  N   UNL     1     -44.000  56.271 -55.253  1.00  0.00    -0.263 N 
HETATM    2  C   UNL     1     -43.233  56.032 -56.377  1.00  0.00     0.276 C 
HETATM    3  O   UNL     1     -42.473  55.069 -56.462  1.00  0.00    -0.266 OA
HETATM    4  H   UNL     1     -44.540  57.135 -55.157  1.00  0.00     0.190 HD
ENDROOT
BRANCH   1   5
HETATM    5  N   UNL     1     -43.835  55.472 -54.120  1.00  0.00    -0.265 N 
HETATM    6  C   UNL     1     -43.003  55.907 -53.111  1.00  0.00     0.260 C 
HETATM    7  O   UNL     1     -42.455  57.009 -53.116  1.00  0.00    -0.269 OA
HETATM    8  H   UNL     1     -44.195  54.518 -54.155  1.00  0.00     0.190 HD
BRANCH   6   9
HETATM    9  C   UNL     1     -42.751  54.871 -52.020  1.00  0.00     0.280 C 
BRANCH   9  10
HETATM   10  O   UNL     1     -41.356  54.622 -51.877  1.00  0.00    -0.342 OA
BRANCH  10  11
HETATM   11  C   UNL     1     -40.892  53.502 -52.513  1.00  0.00     0.069 A 
HETATM   12  C   UNL     1     -40.091  52.664 -51.735  1.00  0.00     0.037 A 
HETATM   13  C   UNL     1     -39.566  51.486 -52.273  1.00  0.00     0.009 A 
HETATM   14  C   UNL     1     -39.840  51.130 -53.597  1.00  0.00    -0.062 A 
HETATM   15  C   UNL     1     -39.311  49.849 -54.170  1.00  0.00     0.048 C 
HETATM   16  C   UNL     1     -40.671  51.956 -54.362  1.00  0.00     0.009 A 
HETATM   17  C   UNL     1     -41.192  53.138 -53.825  1.00  0.00     0.037 A 
ENDBRANCH  10  11
ENDBRANCH   9  10
ENDBRANCH   6   9
ENDBRANCH   1   5
BRANCH   2  18
HETATM   18  C   UNL     1     -43.400  57.000 -57.446  1.00  0.00     0.107 A 
HETATM   19  C   UNL     1     -43.410  58.379 -57.334  1.00  0.00     0.169 A 
HETATM   20  N   UNL     1     -43.618  58.886 -58.621  1.00  0.00    -0.219 N 
HETATM   21  N   UNL     1     -43.259  59.193 -56.242  1.00  0.00    -0.233 NA
HETATM   22  C   UNL     1     -43.701  60.270 -58.837  1.00  0.00     0.036 A 
HETATM   23  N   UNL     1     -43.717  57.888 -59.532  1.00  0.00    -0.170 NA
HETATM   24  C   UNL     1     -43.945  60.786 -60.223  1.00  0.00     0.070 C 
HETATM   25  C   UNL     1     -43.568  61.106 -57.791  1.00  0.00     0.053 A 
HETATM   26  C   UNL     1     -43.329  60.475 -56.455  1.00  0.00     0.035 A 
HETATM   27  C   UNL     1     -43.152  61.397 -55.275  1.00  0.00     0.070 C 
HETATM   28  C   UNL     1     -43.586  56.758 -58.831  1.00  0.00     0.071 A 
HETATM   29  C   UNL     1     -43.646  55.446 -59.527  1.00  0.00     0.073 C 
ENDBRANCH   2  18
TORSDOF 5
ENDMDL
