MODEL 1
REMARK VINA RESULT:      -7.4      0.000      0.000
REMARK  5 active torsions:
REMARK  status: ('A' for Active; 'I' for Inactive)
REMARK    1  A    between atoms: C_2  and  O_3 
REMARK    2  A    between atoms: O_3  and  C_4 
REMARK    3  A    between atoms: C_5  and  N_6 
REMARK       I    between atoms: N_6  and  C_7 
REMARK       I    between atoms: C_7  and  N_8 
REMARK    4  A    between atoms: N_8  and  C_9 
REMARK    5  A    between atoms: C_9  and  C_10 
ROOT
HETATM    1  N   UNL     1     -41.396  55.073 -53.999  1.00  0.00    -0.306 N 
HETATM    2  C   UNL     1     -42.727  55.245 -54.259  1.00  0.00     0.321 C 
HETATM    3  N   UNL     1     -43.032  56.416 -54.901  1.00  0.00    -0.337 N 
HETATM    4  O   UNL     1     -43.644  54.493 -53.946  1.00  0.00    -0.247 OA
HETATM    5  H   UNL     1     -40.952  55.956 -53.749  1.00  0.00     0.171 HD
HETATM    6  H   UNL     1     -44.028  56.460 -55.072  1.00  0.00     0.164 HD
ENDROOT
BRANCH   1   7
HETATM    7  C   UNL     1     -40.825  53.895 -53.476  1.00  0.00     0.069 A 
HETATM    8  C   UNL     1     -40.443  53.736 -52.136  1.00  0.00     0.096 A 
HETATM    9  C   UNL     1     -39.803  52.562 -51.727  1.00  0.00     0.039 A 
HETATM   10  C   UNL     1     -39.611  51.513 -52.626  1.00  0.00     0.003 A 
HETATM   11  C   UNL     1     -40.061  51.635 -53.938  1.00  0.00     0.002 A 
HETATM   12  C   UNL     1     -40.673  52.818 -54.359  1.00  0.00     0.032 A 
BRANCH   8  13
HETATM   13  O   UNL     1     -40.668  54.658 -51.146  1.00  0.00    -0.344 OA
BRANCH  13  14
HETATM   14  C   UNL     1     -41.520  54.177 -50.094  1.00  0.00     0.121 C 
HETATM   15  C   UNL     1     -42.931  54.666 -50.408  1.00  0.00     0.040 C 
HETATM   16  C   UNL     1     -41.063  54.727 -48.745  1.00  0.00     0.040 C 
ENDBRANCH  13  14
ENDBRANCH   8  13
ENDBRANCH   1   7
BRANCH   3  17
HETATM   17  C   UNL     1     -42.178  57.053 -55.889  1.00  0.00     0.183 C 
BRANCH  17  18
HETATM   18  C   UNL     1     -42.597  56.909 -57.345  1.00  0.00     0.053 A 
HETATM   19  N   UNL     1     -42.194  57.840 -58.253  1.00  0.00    -0.264 NA
HETATM   20  C   UNL     1     -42.526  57.645 -59.550  1.00  0.00     0.118 A 
HETATM   21  C   UNL     1     -43.226  56.548 -60.006  1.00  0.00     0.043 A 
HETATM   22  C   UNL     1     -43.612  55.601 -59.069  1.00  0.00     0.037 A 
HETATM   23 CL   UNL     1     -44.472  54.200 -59.574  1.00  0.00    -0.084 Cl
HETATM   24  C   UNL     1     -43.300  55.770 -57.725  1.00  0.00     0.052 A 
ENDBRANCH  17  18
ENDBRANCH   3  17
TORSDOF 5
ENDMDL
MODEL 2
REMARK VINA RESULT:      -7.3      3.085      4.168
REMARK  5 active torsions:
REMARK  status: ('A' for Active; 'I' for Inactive)
REMARK    1  A    between atoms: C_2  and  O_3 
REMARK    2  A    between atoms: O_3  and  C_4 
REMARK    3  A    between atoms: C_5  and  N_6 
REMARK       I    between atoms: N_6  and  C_7 
REMARK       I    between atoms: C_7  and  N_8 
REMARK    4  A    between atoms: N_8  and  C_9 
REMARK    5  A    between atoms: C_9  and  C_10 
ROOT
HETATM    1  N   UNL     1     -41.392  53.619 -54.575  1.00  0.00    -0.306 N 
HETATM    2  C   UNL     1     -40.766  54.695 -55.144  1.00  0.00     0.321 C 
HETATM    3  N   UNL     1     -41.607  55.560 -55.793  1.00  0.00    -0.337 N 
HETATM    4  O   UNL     1     -39.563  54.927 -55.157  1.00  0.00    -0.247 OA
HETATM    5  H   UNL     1     -42.159  53.289 -55.159  1.00  0.00     0.171 HD
HETATM    6  H   UNL     1     -41.073  56.333 -56.168  1.00  0.00     0.164 HD
ENDROOT
BRANCH   1   7
HETATM    7  C   UNL     1     -40.763  52.673 -53.743  1.00  0.00     0.069 A 
HETATM    8  C   UNL     1     -40.410  52.912 -52.406  1.00  0.00     0.096 A 
HETATM    9  C   UNL     1     -39.708  51.942 -51.684  1.00  0.00     0.039 A 
HETATM   10  C   UNL     1     -39.424  50.704 -52.258  1.00  0.00     0.003 A 
HETATM   11  C   UNL     1     -39.843  50.431 -53.558  1.00  0.00     0.002 A 
HETATM   12  C   UNL     1     -40.516  51.408 -54.294  1.00  0.00     0.032 A 
BRANCH   8  13
HETATM   13  O   UNL     1     -40.723  54.052 -51.710  1.00  0.00    -0.344 OA
BRANCH  13  14
HETATM   14  C   UNL     1     -41.703  53.847 -50.680  1.00  0.00     0.121 C 
HETATM   15  C   UNL     1     -43.071  54.067 -51.320  1.00  0.00     0.040 C 
HETATM   16  C   UNL     1     -41.492  54.840 -49.539  1.00  0.00     0.040 C 
ENDBRANCH  13  14
ENDBRANCH   8  13
ENDBRANCH   1   7
BRANCH   3  17
HETATM   17  C   UNL     1     -42.964  55.857 -55.367  1.00  0.00     0.183 C 
BRANCH  17  18
HETATM   18  C   UNL     1     -43.114  56.640 -54.072  1.00  0.00     0.053 A 
HETATM   19  N   UNL     1     -44.360  56.910 -53.593  1.00  0.00    -0.264 NA
HETATM   20  C   UNL     1     -44.458  57.548 -52.404  1.00  0.00     0.118 A 
HETATM   21  C   UNL     1     -43.370  57.918 -51.640  1.00  0.00     0.043 A 
HETATM   22  C   UNL     1     -42.110  57.619 -52.136  1.00  0.00     0.037 A 
HETATM   23 CL   UNL     1     -40.712  58.036 -51.225  1.00  0.00    -0.084 Cl
HETATM   24  C   UNL     1     -41.967  56.973 -53.359  1.00  0.00     0.052 A 
ENDBRANCH  17  18
ENDBRANCH   3  17
TORSDOF 5
ENDMDL
MODEL 3
REMARK VINA RESULT:      -7.2      2.944      4.726
REMARK  5 active torsions:
REMARK  status: ('A' for Active; 'I' for Inactive)
REMARK    1  A    between atoms: C_2  and  O_3 
REMARK    2  A    between atoms: O_3  and  C_4 
REMARK    3  A    between atoms: C_5  and  N_6 
REMARK       I    between atoms: N_6  and  C_7 
REMARK       I    between atoms: C_7  and  N_8 
REMARK    4  A    between atoms: N_8  and  C_9 
REMARK    5  A    between atoms: C_9  and  C_10 
ROOT
HETATM    1  N   UNL     1     -40.684  54.670 -51.329  1.00  0.00    -0.306 N 
HETATM    2  C   UNL     1     -41.868  54.886 -50.681  1.00  0.00     0.321 C 
HETATM    3  N   UNL     1     -41.953  56.097 -50.046  1.00  0.00    -0.337 N 
HETATM    4  O   UNL     1     -42.811  54.109 -50.588  1.00  0.00    -0.247 OA
HETATM    5  H   UNL     1     -39.901  55.059 -50.805  1.00  0.00     0.171 HD
HETATM    6  H   UNL     1     -42.861  56.187 -49.609  1.00  0.00     0.164 HD
ENDROOT
BRANCH   1   7
HETATM    7  C   UNL     1     -40.414  53.566 -52.162  1.00  0.00     0.069 A 
HETATM    8  C   UNL     1     -40.708  53.526 -53.534  1.00  0.00     0.096 A 
HETATM    9  C   UNL     1     -40.486  52.354 -54.262  1.00  0.00     0.039 A 
HETATM   10  C   UNL     1     -39.899  51.245 -53.653  1.00  0.00     0.003 A 
HETATM   11  C   UNL     1     -39.531  51.307 -52.311  1.00  0.00     0.002 A 
HETATM   12  C   UNL     1     -39.780  52.465 -51.571  1.00  0.00     0.032 A 
BRANCH   8  13
HETATM   13  O   UNL     1     -41.196  54.585 -54.257  1.00  0.00    -0.344 OA
BRANCH  13  14
HETATM   14  C   UNL     1     -42.491  54.342 -54.830  1.00  0.00     0.121 C 
HETATM   15  C   UNL     1     -42.501  55.011 -56.202  1.00  0.00     0.040 C 
HETATM   16  C   UNL     1     -43.584  54.942 -53.948  1.00  0.00     0.040 C 
ENDBRANCH  13  14
ENDBRANCH   8  13
ENDBRANCH   1   7
BRANCH   3  17
HETATM   17  C   UNL     1     -41.348  57.323 -50.537  1.00  0.00     0.183 C 
BRANCH  17  18
HETATM   18  C   UNL     1     -41.853  57.843 -51.874  1.00  0.00     0.053 A 
HETATM   19  N   UNL     1     -41.074  57.708 -52.983  1.00  0.00    -0.264 NA
HETATM   20  C   UNL     1     -41.582  58.120 -54.168  1.00  0.00     0.118 A 
HETATM   21  C   UNL     1     -42.849  58.643 -54.319  1.00  0.00     0.043 A 
HETATM   22  C   UNL     1     -43.634  58.756 -53.182  1.00  0.00     0.037 A 
HETATM   23 CL   UNL     1     -45.231  59.385 -53.303  1.00  0.00    -0.084 Cl
HETATM   24  C   UNL     1     -43.145  58.355 -51.944  1.00  0.00     0.052 A 
ENDBRANCH  17  18
ENDBRANCH   3  17
TORSDOF 5
ENDMDL
MODEL 4
REMARK VINA RESULT:      -7.1      3.692      4.943
REMARK  5 active torsions:
REMARK  status: ('A' for Active; 'I' for Inactive)
REMARK    1  A    between atoms: C_2  and  O_3 
REMARK    2  A    between atoms: O_3  and  C_4 
REMARK    3  A    between atoms: C_5  and  N_6 
REMARK       I    between atoms: N_6  and  C_7 
REMARK       I    between atoms: C_7  and  N_8 
REMARK    4  A    between atoms: N_8  and  C_9 
REMARK    5  A    between atoms: C_9  and  C_10 
ROOT
HETATM    1  N   UNL     1     -41.563  55.112 -53.088  1.00  0.00    -0.306 N 
HETATM    2  C   UNL     1     -42.699  55.292 -53.828  1.00  0.00     0.321 C 
HETATM    3  N   UNL     1     -43.059  56.603 -54.000  1.00  0.00    -0.337 N 
HETATM    4  O   UNL     1     -43.418  54.420 -54.301  1.00  0.00    -0.247 OA
HETATM    5  H   UNL     1     -41.506  55.790 -52.330  1.00  0.00     0.171 HD
HETATM    6  H   UNL     1     -43.894  56.653 -54.569  1.00  0.00     0.164 HD
ENDROOT
BRANCH   1   7
HETATM    7  C   UNL     1     -40.920  53.873 -52.893  1.00  0.00     0.069 A 
HETATM    8  C   UNL     1     -40.786  53.245 -51.645  1.00  0.00     0.096 A 
HETATM    9  C   UNL     1     -40.054  52.059 -51.535  1.00  0.00     0.039 A 
HETATM   10  C   UNL     1     -39.522  51.451 -52.672  1.00  0.00     0.003 A 
HETATM   11  C   UNL     1     -39.720  52.028 -53.923  1.00  0.00     0.002 A 
HETATM   12  C   UNL     1     -40.424  53.230 -54.034  1.00  0.00     0.032 A 
BRANCH   8  13
HETATM   13  O   UNL     1     -41.349  53.699 -50.480  1.00  0.00    -0.344 OA
BRANCH  13  14
HETATM   14  C   UNL     1     -40.515  54.622 -49.760  1.00  0.00     0.121 C 
HETATM   15  C   UNL     1     -40.351  54.063 -48.349  1.00  0.00     0.040 C 
HETATM   16  C   UNL     1     -41.171  56.000 -49.704  1.00  0.00     0.040 C 
ENDBRANCH  13  14
ENDBRANCH   8  13
ENDBRANCH   1   7
BRANCH   3  17
HETATM   17  C   UNL     1     -42.117  57.700 -54.137  1.00  0.00     0.183 C 
BRANCH  17  18
HETATM   18  C   UNL     1     -41.839  58.519 -52.886  1.00  0.00     0.053 A 
HETATM   19  N   UNL     1     -42.881  59.048 -52.186  1.00  0.00    -0.264 NA
HETATM   20  C   UNL     1     -42.602  59.713 -51.041  1.00  0.00     0.118 A 
HETATM   21  C   UNL     1     -41.330  59.862 -50.531  1.00  0.00     0.043 A 
HETATM   22  C   UNL     1     -40.284  59.301 -51.247  1.00  0.00     0.037 A 
HETATM   23 CL   UNL     1     -38.674  59.436 -50.657  1.00  0.00    -0.084 Cl
HETATM   24  C   UNL     1     -40.526  58.619 -52.434  1.00  0.00     0.052 A 
ENDBRANCH  17  18
ENDBRANCH   3  17
TORSDOF 5
ENDMDL
MODEL 5
REMARK VINA RESULT:      -6.9      1.573      1.932
REMARK  5 active torsions:
REMARK  status: ('A' for Active; 'I' for Inactive)
REMARK    1  A    between atoms: C_2  and  O_3 
REMARK    2  A    between atoms: O_3  and  C_4 
REMARK    3  A    between atoms: C_5  and  N_6 
REMARK       I    between atoms: N_6  and  C_7 
REMARK       I    between atoms: C_7  and  N_8 
REMARK    4  A    between atoms: N_8  and  C_9 
REMARK    5  A    between atoms: C_9  and  C_10 
ROOT
HETATM    1  N   UNL     1     -41.644  54.456 -54.512  1.00  0.00    -0.306 N 
HETATM    2  C   UNL     1     -43.000  54.626 -54.521  1.00  0.00     0.321 C 
HETATM    3  N   UNL     1     -43.454  55.500 -55.473  1.00  0.00    -0.337 N 
HETATM    4  O   UNL     1     -43.814  54.115 -53.760  1.00  0.00    -0.247 OA
HETATM    5  H   UNL     1     -41.162  55.331 -54.713  1.00  0.00     0.171 HD
HETATM    6  H   UNL     1     -44.464  55.557 -55.427  1.00  0.00     0.164 HD
ENDROOT
BRANCH   1   7
HETATM    7  C   UNL     1     -40.958  53.511 -53.723  1.00  0.00     0.069 A 
HETATM    8  C   UNL     1     -40.674  53.682 -52.360  1.00  0.00     0.096 A 
HETATM    9  C   UNL     1     -39.911  52.728 -51.680  1.00  0.00     0.039 A 
HETATM   10  C   UNL     1     -39.494  51.565 -52.328  1.00  0.00     0.003 A 
HETATM   11  C   UNL     1     -39.842  51.353 -53.659  1.00  0.00     0.002 A 
HETATM   12  C   UNL     1     -40.578  52.317 -54.352  1.00  0.00     0.032 A 
BRANCH   8  13
HETATM   13  O   UNL     1     -41.114  54.735 -51.599  1.00  0.00    -0.344 OA
BRANCH  13  14
HETATM   14  C   UNL     1     -41.755  54.334 -50.377  1.00  0.00     0.121 C 
HETATM   15  C   UNL     1     -43.240  54.651 -50.531  1.00  0.00     0.040 C 
HETATM   16  C   UNL     1     -41.175  55.104 -49.193  1.00  0.00     0.040 C 
ENDBRANCH  13  14
ENDBRANCH   8  13
ENDBRANCH   1   7
BRANCH   3  17
HETATM   17  C   UNL     1     -42.857  55.663 -56.787  1.00  0.00     0.183 C 
BRANCH  17  18
HETATM   18  C   UNL     1     -42.627  57.091 -57.258  1.00  0.00     0.053 A 
HETATM   19  N   UNL     1     -42.493  58.086 -56.338  1.00  0.00    -0.264 NA
HETATM   20  C   UNL     1     -42.221  59.333 -56.789  1.00  0.00     0.118 A 
HETATM   21  C   UNL     1     -42.048  59.646 -58.121  1.00  0.00     0.043 A 
HETATM   22  C   UNL     1     -42.170  58.616 -59.041  1.00  0.00     0.037 A 
HETATM   23 CL   UNL     1     -41.947  58.936 -60.717  1.00  0.00    -0.084 Cl
HETATM   24  C   UNL     1     -42.459  57.323 -58.620  1.00  0.00     0.052 A 
ENDBRANCH  17  18
ENDBRANCH   3  17
TORSDOF 5
ENDMDL
MODEL 6
REMARK VINA RESULT:      -6.9      1.446      1.635
REMARK  5 active torsions:
REMARK  status: ('A' for Active; 'I' for Inactive)
REMARK    1  A    between atoms: C_2  and  O_3 
REMARK    2  A    between atoms: O_3  and  C_4 
REMARK    3  A    between atoms: C_5  and  N_6 
REMARK       I    between atoms: N_6  and  C_7 
REMARK       I    between atoms: C_7  and  N_8 
REMARK    4  A    between atoms: N_8  and  C_9 
REMARK    5  A    between atoms: C_9  and  C_10 
ROOT
HETATM    1  N   UNL     1     -41.719  54.998 -54.503  1.00  0.00    -0.306 N 
HETATM    2  C   UNL     1     -43.067  55.083 -54.713  1.00  0.00     0.321 C 
HETATM    3  N   UNL     1     -43.449  56.124 -55.519  1.00  0.00    -0.337 N 
HETATM    4  O   UNL     1     -43.936  54.364 -54.234  1.00  0.00    -0.247 OA
HETATM    5  H   UNL     1     -41.299  55.923 -54.423  1.00  0.00     0.171 HD
HETATM    6  H   UNL     1     -44.453  56.108 -55.639  1.00  0.00     0.164 HD
ENDROOT
BRANCH   1   7
HETATM    7  C   UNL     1     -41.077  53.940 -53.829  1.00  0.00     0.069 A 
HETATM    8  C   UNL     1     -40.781  53.946 -52.457  1.00  0.00     0.096 A 
HETATM    9  C   UNL     1     -40.062  52.888 -51.893  1.00  0.00     0.039 A 
HETATM   10  C   UNL     1     -39.704  51.786 -52.668  1.00  0.00     0.003 A 
HETATM   11  C   UNL     1     -40.065  51.738 -54.012  1.00  0.00     0.002 A 
HETATM   12  C   UNL     1     -40.756  52.806 -54.588  1.00  0.00     0.032 A 
BRANCH   8  13
HETATM   13  O   UNL     1     -41.168  54.928 -51.581  1.00  0.00    -0.344 OA
BRANCH  13  14
HETATM   14  C   UNL     1     -41.809  54.425 -50.399  1.00  0.00     0.121 C 
HETATM   15  C   UNL     1     -43.308  54.652 -50.576  1.00  0.00     0.040 C 
HETATM   16  C   UNL     1     -41.309  55.170 -49.163  1.00  0.00     0.040 C 
ENDBRANCH  13  14
ENDBRANCH   8  13
ENDBRANCH   1   7
BRANCH   3  17
HETATM   17  C   UNL     1     -42.671  56.618 -56.641  1.00  0.00     0.183 C 
BRANCH  17  18
HETATM   18  C   UNL     1     -43.321  56.525 -58.014  1.00  0.00     0.053 A 
HETATM   19  N   UNL     1     -43.464  55.307 -58.605  1.00  0.00    -0.264 NA
HETATM   20  C   UNL     1     -44.107  55.251 -59.794  1.00  0.00     0.118 A 
HETATM   21  C   UNL     1     -44.648  56.352 -60.426  1.00  0.00     0.043 A 
HETATM   22  C   UNL     1     -44.509  57.581 -59.799  1.00  0.00     0.037 A 
HETATM   23 CL   UNL     1     -45.176  58.991 -60.524  1.00  0.00    -0.084 Cl
HETATM   24  C   UNL     1     -43.845  57.682 -58.582  1.00  0.00     0.052 A 
ENDBRANCH  17  18
ENDBRANCH   3  17
TORSDOF 5
ENDMDL
MODEL 7
REMARK VINA RESULT:      -6.9     14.426     15.839
REMARK  5 active torsions:
REMARK  status: ('A' for Active; 'I' for Inactive)
REMARK    1  A    between atoms: C_2  and  O_3 
REMARK    2  A    between atoms: O_3  and  C_4 
REMARK    3  A    between atoms: C_5  and  N_6 
REMARK       I    between atoms: N_6  and  C_7 
REMARK       I    between atoms: C_7  and  N_8 
REMARK    4  A    between atoms: N_8  and  C_9 
REMARK    5  A    between atoms: C_9  and  C_10 
ROOT
HETATM    1  N   UNL     1     -35.942  41.627 -53.736  1.00  0.00    -0.306 N 
HETATM    2  C   UNL     1     -37.055  40.879 -54.002  1.00  0.00     0.321 C 
HETATM    3  N   UNL     1     -37.895  41.427 -54.936  1.00  0.00    -0.337 N 
HETATM    4  O   UNL     1     -37.378  39.821 -53.475  1.00  0.00    -0.247 OA
HETATM    5  H   UNL     1     -36.156  42.624 -53.748  1.00  0.00     0.171 HD
HETATM    6  H   UNL     1     -38.681  40.809 -55.090  1.00  0.00     0.164 HD
ENDROOT
BRANCH   1   7
HETATM    7  C   UNL     1     -34.871  41.210 -52.921  1.00  0.00     0.069 A 
HETATM    8  C   UNL     1     -33.880  40.304 -53.329  1.00  0.00     0.096 A 
HETATM    9  C   UNL     1     -32.905  39.880 -52.420  1.00  0.00     0.039 A 
HETATM   10  C   UNL     1     -32.861  40.413 -51.132  1.00  0.00     0.003 A 
HETATM   11  C   UNL     1     -33.794  41.372 -50.749  1.00  0.00     0.002 A 
HETATM   12  C   UNL     1     -34.789  41.776 -51.642  1.00  0.00     0.032 A 
BRANCH   8  13
HETATM   13  O   UNL     1     -33.767  39.791 -54.595  1.00  0.00    -0.344 OA
BRANCH  13  14
HETATM   14  C   UNL     1     -33.030  40.635 -55.494  1.00  0.00     0.121 C 
HETATM   15  C   UNL     1     -33.966  40.973 -56.652  1.00  0.00     0.040 C 
HETATM   16  C   UNL     1     -31.793  39.907 -56.017  1.00  0.00     0.040 C 
ENDBRANCH  13  14
ENDBRANCH   8  13
ENDBRANCH   1   7
BRANCH   3  17
HETATM   17  C   UNL     1     -37.451  42.205 -56.080  1.00  0.00     0.183 C 
BRANCH  17  18
HETATM   18  C   UNL     1     -37.566  41.538 -57.442  1.00  0.00     0.053 A 
HETATM   19  N   UNL     1     -37.102  42.185 -58.546  1.00  0.00    -0.264 NA
HETATM   20  C   UNL     1     -37.157  41.535 -59.732  1.00  0.00     0.118 A 
HETATM   21  C   UNL     1     -37.632  40.249 -59.880  1.00  0.00     0.043 A 
HETATM   22  C   UNL     1     -38.082  39.599 -58.742  1.00  0.00     0.037 A 
HETATM   23 CL   UNL     1     -38.671  37.986 -58.854  1.00  0.00    -0.084 Cl
HETATM   24  C   UNL     1     -38.053  40.236 -57.506  1.00  0.00     0.052 A 
ENDBRANCH  17  18
ENDBRANCH   3  17
TORSDOF 5
ENDMDL
MODEL 8
REMARK VINA RESULT:      -6.9      4.029      5.376
REMARK  5 active torsions:
REMARK  status: ('A' for Active; 'I' for Inactive)
REMARK    1  A    between atoms: C_2  and  O_3 
REMARK    2  A    between atoms: O_3  and  C_4 
REMARK    3  A    between atoms: C_5  and  N_6 
REMARK       I    between atoms: N_6  and  C_7 
REMARK       I    between atoms: C_7  and  N_8 
REMARK    4  A    between atoms: N_8  and  C_9 
REMARK    5  A    between atoms: C_9  and  C_10 
ROOT
HETATM    1  N   UNL     1     -42.206  54.698 -53.160  1.00  0.00    -0.306 N 
HETATM    2  C   UNL     1     -41.822  55.985 -53.418  1.00  0.00     0.321 C 
HETATM    3  N   UNL     1     -42.847  56.894 -53.408  1.00  0.00    -0.337 N 
HETATM    4  O   UNL     1     -40.693  56.379 -53.685  1.00  0.00    -0.247 OA
HETATM    5  H   UNL     1     -43.112  54.493 -53.579  1.00  0.00     0.171 HD
HETATM    6  H   UNL     1     -42.481  57.820 -53.588  1.00  0.00     0.164 HD
ENDROOT
BRANCH   1   7
HETATM    7  C   UNL     1     -41.321  53.617 -52.981  1.00  0.00     0.069 A 
HETATM    8  C   UNL     1     -40.900  53.144 -51.729  1.00  0.00     0.096 A 
HETATM    9  C   UNL     1     -39.950  52.121 -51.651  1.00  0.00     0.039 A 
HETATM   10  C   UNL     1     -39.473  51.512 -52.811  1.00  0.00     0.003 A 
HETATM   11  C   UNL     1     -39.947  51.923 -54.054  1.00  0.00     0.002 A 
HETATM   12  C   UNL     1     -40.874  52.965 -54.138  1.00  0.00     0.032 A 
BRANCH   8  13
HETATM   13  O   UNL     1     -41.373  53.601 -50.525  1.00  0.00    -0.344 OA
BRANCH  13  14
HETATM   14  C   UNL     1     -40.540  54.604 -49.923  1.00  0.00     0.121 C 
HETATM   15  C   UNL     1     -40.180  54.103 -48.527  1.00  0.00     0.040 C 
HETATM   16  C   UNL     1     -41.290  55.931 -49.825  1.00  0.00     0.040 C 
ENDBRANCH  13  14
ENDBRANCH   8  13
ENDBRANCH   1   7
BRANCH   3  17
HETATM   17  C   UNL     1     -44.002  56.816 -52.530  1.00  0.00     0.183 C 
BRANCH  17  18
HETATM   18  C   UNL     1     -44.336  58.068 -51.733  1.00  0.00     0.053 A 
HETATM   19  N   UNL     1     -45.539  58.157 -51.100  1.00  0.00    -0.264 NA
HETATM   20  C   UNL     1     -45.777  59.254 -50.344  1.00  0.00     0.118 A 
HETATM   21  C   UNL     1     -44.863  60.271 -50.158  1.00  0.00     0.043 A 
HETATM   22  C   UNL     1     -43.637  60.153 -50.795  1.00  0.00     0.037 A 
HETATM   23 CL   UNL     1     -42.446  61.377 -50.591  1.00  0.00    -0.084 Cl
HETATM   24  C   UNL     1     -43.357  59.047 -51.590  1.00  0.00     0.052 A 
ENDBRANCH  17  18
ENDBRANCH   3  17
TORSDOF 5
ENDMDL
MODEL 9
REMARK VINA RESULT:      -6.8      3.172      7.050
REMARK  5 active torsions:
REMARK  status: ('A' for Active; 'I' for Inactive)
REMARK    1  A    between atoms: C_2  and  O_3 
REMARK    2  A    between atoms: O_3  and  C_4 
REMARK    3  A    between atoms: C_5  and  N_6 
REMARK       I    between atoms: N_6  and  C_7 
REMARK       I    between atoms: C_7  and  N_8 
REMARK    4  A    between atoms: N_8  and  C_9 
REMARK    5  A    between atoms: C_9  and  C_10 
ROOT
HETATM    1  N   UNL     1     -43.005  56.574 -50.747  1.00  0.00    -0.306 N 
HETATM    2  C   UNL     1     -41.675  56.661 -50.442  1.00  0.00     0.321 C 
HETATM    3  N   UNL     1     -41.192  55.608 -49.710  1.00  0.00    -0.337 N 
HETATM    4  O   UNL     1     -40.912  57.579 -50.721  1.00  0.00    -0.247 OA
HETATM    5  H   UNL     1     -43.533  56.166 -49.976  1.00  0.00     0.171 HD
HETATM    6  H   UNL     1     -40.203  55.738 -49.542  1.00  0.00     0.164 HD
ENDROOT
BRANCH   1   7
HETATM    7  C   UNL     1     -43.692  57.459 -51.601  1.00  0.00     0.069 A 
HETATM    8  C   UNL     1     -43.483  57.536 -52.986  1.00  0.00     0.096 A 
HETATM    9  C   UNL     1     -44.149  58.507 -53.740  1.00  0.00     0.039 A 
HETATM   10  C   UNL     1     -45.081  59.352 -53.137  1.00  0.00     0.003 A 
HETATM   11  C   UNL     1     -45.351  59.226 -51.778  1.00  0.00     0.002 A 
HETATM   12  C   UNL     1     -44.666  58.278 -51.014  1.00  0.00     0.032 A 
BRANCH   8  13
HETATM   13  O   UNL     1     -42.666  56.696 -53.699  1.00  0.00    -0.344 OA
BRANCH  13  14
HETATM   14  C   UNL     1     -43.320  56.064 -54.811  1.00  0.00     0.121 C 
HETATM   15  C   UNL     1     -43.738  54.671 -54.347  1.00  0.00     0.040 C 
HETATM   16  C   UNL     1     -42.366  55.956 -55.998  1.00  0.00     0.040 C 
ENDBRANCH  13  14
ENDBRANCH   8  13
ENDBRANCH   1   7
BRANCH   3  17
HETATM   17  C   UNL     1     -41.650  54.236 -49.849  1.00  0.00     0.183 C 
BRANCH  17  18
HETATM   18  C   UNL     1     -40.892  53.363 -50.837  1.00  0.00     0.053 A 
HETATM   19  N   UNL     1     -40.319  52.205 -50.405  1.00  0.00    -0.264 NA
HETATM   20  C   UNL     1     -39.711  51.418 -51.323  1.00  0.00     0.118 A 
HETATM   21  C   UNL     1     -39.662  51.709 -52.671  1.00  0.00     0.043 A 
HETATM   22  C   UNL     1     -40.266  52.882 -53.094  1.00  0.00     0.037 A 
HETATM   23 CL   UNL     1     -40.256  53.295 -54.764  1.00  0.00    -0.084 Cl
HETATM   24  C   UNL     1     -40.892  53.724 -52.181  1.00  0.00     0.052 A 
ENDBRANCH  17  18
ENDBRANCH   3  17
TORSDOF 5
ENDMDL
MODEL 10
REMARK VINA RESULT:      -6.8     14.216     16.202
REMARK  5 active torsions:
REMARK  status: ('A' for Active; 'I' for Inactive)
REMARK    1  A    between atoms: C_2  and  O_3 
REMARK    2  A    between atoms: O_3  and  C_4 
REMARK    3  A    between atoms: C_5  and  N_6 
REMARK       I    between atoms: N_6  and  C_7 
REMARK       I    between atoms: C_7  and  N_8 
REMARK    4  A    between atoms: N_8  and  C_9 
REMARK    5  A    between atoms: C_9  and  C_10 
ROOT
HETATM    1  N   UNL     1     -35.179  40.843 -53.979  1.00  0.00    -0.306 N 
HETATM    2  C   UNL     1     -35.867  42.022 -53.911  1.00  0.00     0.321 C 
HETATM    3  N   UNL     1     -36.883  42.137 -54.823  1.00  0.00    -0.337 N 
HETATM    4  O   UNL     1     -35.643  42.966 -53.163  1.00  0.00    -0.247 OA
HETATM    5  H   UNL     1     -35.073  40.532 -54.944  1.00  0.00     0.171 HD
HETATM    6  H   UNL     1     -37.352  43.025 -54.698  1.00  0.00     0.164 HD
ENDROOT
BRANCH   1   7
HETATM    7  C   UNL     1     -34.189  40.437 -53.061  1.00  0.00     0.069 A 
HETATM    8  C   UNL     1     -32.827  40.315 -53.377  1.00  0.00     0.096 A 
HETATM    9  C   UNL     1     -31.931  39.820 -52.425  1.00  0.00     0.039 A 
HETATM   10  C   UNL     1     -32.367  39.520 -51.134  1.00  0.00     0.003 A 
HETATM   11  C   UNL     1     -33.702  39.716 -50.792  1.00  0.00     0.002 A 
HETATM   12  C   UNL     1     -34.608  40.181 -51.749  1.00  0.00     0.032 A 
BRANCH   8  13
HETATM   13  O   UNL     1     -32.271  40.670 -54.579  1.00  0.00    -0.344 OA
BRANCH  13  14
HETATM   14  C   UNL     1     -32.256  39.605 -55.544  1.00  0.00     0.121 C 
HETATM   15  C   UNL     1     -30.829  39.511 -56.077  1.00  0.00     0.040 C 
HETATM   16  C   UNL     1     -33.223  39.908 -56.686  1.00  0.00     0.040 C 
ENDBRANCH  13  14
ENDBRANCH   8  13
ENDBRANCH   1   7
BRANCH   3  17
HETATM   17  C   UNL     1     -37.706  41.029 -55.276  1.00  0.00     0.183 C 
BRANCH  17  18
HETATM   18  C   UNL     1     -37.667  40.715 -56.764  1.00  0.00     0.053 A 
HETATM   19  N   UNL     1     -37.934  39.450 -57.189  1.00  0.00    -0.264 NA
HETATM   20  C   UNL     1     -37.958  39.221 -58.522  1.00  0.00     0.118 A 
HETATM   21  C   UNL     1     -37.754  40.200 -59.472  1.00  0.00     0.043 A 
HETATM   22  C   UNL     1     -37.501  41.486 -59.021  1.00  0.00     0.037 A 
HETATM   23 CL   UNL     1     -37.255  42.757 -60.153  1.00  0.00    -0.084 Cl
HETATM   24  C   UNL     1     -37.457  41.761 -57.658  1.00  0.00     0.052 A 
ENDBRANCH  17  18
ENDBRANCH   3  17
TORSDOF 5
ENDMDL
