MODEL 1
REMARK VINA RESULT:      -9.2      0.000      0.000
REMARK  6 active torsions:
REMARK  status: ('A' for Active; 'I' for Inactive)
REMARK    1  A    between atoms: C_2  and  N_3 
REMARK    2  A    between atoms: C_2  and  C_32 
REMARK       I    between atoms: N_3  and  C_4 
REMARK    3  A    between atoms: C_4  and  C_5 
REMARK    4  A    between atoms: C_6  and  N_7 
REMARK       I    between atoms: N_7  and  C_8 
REMARK    5  A    between atoms: C_8  and  C_9 
REMARK    6  A    between atoms: C_9  and  N_10 
ROOT
HETATM    1  N   UNL     1     -43.216  58.488 -55.607  1.00  0.00    -0.325 N 
HETATM    2  C   UNL     1     -43.283  57.146 -55.274  1.00  0.00     0.240 C 
HETATM    3  O   UNL     1     -43.871  56.679 -54.301  1.00  0.00    -0.271 OA
HETATM    4  H   UNL     1     -42.586  58.755 -56.372  1.00  0.00     0.169 HD
ENDROOT
BRANCH   1   5
HETATM    5  C   UNL     1     -43.910  59.565 -54.994  1.00  0.00     0.050 A 
HETATM    6  C   UNL     1     -43.367  60.186 -53.849  1.00  0.00     0.058 A 
HETATM    7  C   UNL     1     -44.013  61.281 -53.250  1.00  0.00     0.019 A 
HETATM    8  C   UNL     1     -45.216  61.755 -53.768  1.00  0.00     0.001 A 
HETATM    9  C   UNL     1     -45.771  61.139 -54.886  1.00  0.00     0.002 A 
HETATM   10  C   UNL     1     -45.124  60.058 -55.494  1.00  0.00     0.030 A 
BRANCH   6  11
HETATM   11  C   UNL     1     -42.098  59.690 -53.253  1.00  0.00     0.254 C 
HETATM   12  N   UNL     1     -42.214  59.067 -52.028  1.00  0.00    -0.349 N 
HETATM   13  H   UNL     1     -43.138  58.802 -51.719  1.00  0.00     0.163 HD
HETATM   14  O   UNL     1     -41.049  59.811 -53.874  1.00  0.00    -0.268 OA
BRANCH  12  15
HETATM   15  C   UNL     1     -41.095  58.357 -51.430  1.00  0.00     0.114 C 
HETATM   16  C   UNL     1     -40.400  59.249 -50.400  1.00  0.00     0.037 C 
BRANCH  15  17
HETATM   17  C   UNL     1     -41.569  57.045 -50.826  1.00  0.00    -0.036 A 
HETATM   18  C   UNL     1     -40.760  56.379 -49.892  1.00  0.00     0.009 A 
HETATM   19  C   UNL     1     -41.184  55.188 -49.300  1.00  0.00     0.001 A 
HETATM   20  C   UNL     1     -42.411  54.632 -49.650  1.00  0.00     0.000 A 
HETATM   21  C   UNL     1     -43.214  55.265 -50.594  1.00  0.00     0.001 A 
HETATM   22  C   UNL     1     -42.798  56.464 -51.178  1.00  0.00     0.009 A 
ENDBRANCH  15  17
ENDBRANCH  12  15
ENDBRANCH   6  11
ENDBRANCH   1   5
BRANCH   2  23
HETATM   23  C   UNL     1     -42.469  56.243 -56.197  1.00  0.00     0.240 C 
BRANCH  23  24
HETATM   24  N   UNL     1     -42.070  55.061 -55.468  1.00  0.00    -0.259 N 
HETATM   25  C   UNL     1     -42.818  53.933 -55.378  1.00  0.00     0.326 A 
HETATM   26  O   UNL     1     -43.908  53.733 -55.883  1.00  0.00    -0.247 OA
HETATM   27  N   UNL     1     -42.155  53.031 -54.585  1.00  0.00    -0.324 N 
HETATM   28  C   UNL     1     -40.859  53.516 -54.155  1.00  0.00     0.120 A 
HETATM   29  H   UNL     1     -42.535  52.113 -54.398  1.00  0.00     0.165 HD
HETATM   30  C   UNL     1     -40.704  53.559 -52.634  1.00  0.00     0.080 C 
HETATM   31  C   UNL     1     -39.721  52.736 -54.813  1.00  0.00     0.046 C 
HETATM   32  C   UNL     1     -40.927  54.943 -54.726  1.00  0.00     0.257 A 
HETATM   33  C   UNL     1     -40.350  52.218 -52.033  1.00  0.00    -0.049 A 
HETATM   34  C   UNL     1     -39.838  51.169 -52.817  1.00  0.00    -0.052 A 
HETATM   35  C   UNL     1     -40.477  52.045 -50.646  1.00  0.00     0.007 A 
HETATM   36  C   UNL     1     -39.687  51.293 -54.314  1.00  0.00     0.042 C 
HETATM   37  C   UNL     1     -39.505  49.952 -52.202  1.00  0.00     0.007 A 
HETATM   38  C   UNL     1     -39.647  49.788 -50.825  1.00  0.00     0.001 A 
HETATM   39  C   UNL     1     -40.129  50.835 -50.046  1.00  0.00     0.001 A 
HETATM   40  O   UNL     1     -40.088  55.813 -54.546  1.00  0.00    -0.270 OA
ENDBRANCH  23  24
ENDBRANCH   2  23
TORSDOF 6
ENDMDL
MODEL 2
REMARK VINA RESULT:      -9.1      2.200      5.336
REMARK  6 active torsions:
REMARK  status: ('A' for Active; 'I' for Inactive)
REMARK    1  A    between atoms: C_2  and  N_3 
REMARK    2  A    between atoms: C_2  and  C_32 
REMARK       I    between atoms: N_3  and  C_4 
REMARK    3  A    between atoms: C_4  and  C_5 
REMARK    4  A    between atoms: C_6  and  N_7 
REMARK       I    between atoms: N_7  and  C_8 
REMARK    5  A    between atoms: C_8  and  C_9 
REMARK    6  A    between atoms: C_9  and  N_10 
ROOT
HETATM    1  N   UNL     1     -43.122  61.157 -52.752  1.00  0.00    -0.325 N 
HETATM    2  C   UNL     1     -43.927  60.112 -52.334  1.00  0.00     0.240 C 
HETATM    3  O   UNL     1     -44.925  59.699 -52.918  1.00  0.00    -0.271 OA
HETATM    4  H   UNL     1     -42.395  61.484 -52.106  1.00  0.00     0.169 HD
ENDROOT
BRANCH   1   5
HETATM    5  C   UNL     1     -43.194  61.862 -53.984  1.00  0.00     0.050 A 
HETATM    6  C   UNL     1     -42.856  61.205 -55.187  1.00  0.00     0.058 A 
HETATM    7  C   UNL     1     -42.961  61.869 -56.422  1.00  0.00     0.019 A 
HETATM    8  C   UNL     1     -43.379  63.196 -56.472  1.00  0.00     0.001 A 
HETATM    9  C   UNL     1     -43.697  63.859 -55.291  1.00  0.00     0.002 A 
HETATM   10  C   UNL     1     -43.608  63.199 -54.060  1.00  0.00     0.030 A 
BRANCH   6  11
HETATM   11  C   UNL     1     -42.381  59.797 -55.168  1.00  0.00     0.254 C 
HETATM   12  N   UNL     1     -43.250  58.865 -55.694  1.00  0.00    -0.349 N 
HETATM   13  H   UNL     1     -44.032  59.201 -56.236  1.00  0.00     0.163 HD
HETATM   14  O   UNL     1     -41.261  59.540 -54.742  1.00  0.00    -0.268 OA
BRANCH  12  15
HETATM   15  C   UNL     1     -42.837  57.489 -55.928  1.00  0.00     0.114 C 
HETATM   16  C   UNL     1     -43.847  56.527 -55.301  1.00  0.00     0.037 C 
BRANCH  15  17
HETATM   17  C   UNL     1     -42.655  57.241 -57.416  1.00  0.00    -0.036 A 
HETATM   18  C   UNL     1     -43.092  56.031 -57.976  1.00  0.00     0.009 A 
HETATM   19  C   UNL     1     -42.963  55.789 -59.345  1.00  0.00     0.001 A 
HETATM   20  C   UNL     1     -42.374  56.742 -60.171  1.00  0.00     0.000 A 
HETATM   21  C   UNL     1     -41.912  57.938 -59.628  1.00  0.00     0.001 A 
HETATM   22  C   UNL     1     -42.051  58.188 -58.260  1.00  0.00     0.009 A 
ENDBRANCH  15  17
ENDBRANCH  12  15
ENDBRANCH   6  11
ENDBRANCH   1   5
BRANCH   2  23
HETATM   23  C   UNL     1     -43.518  59.525 -50.985  1.00  0.00     0.240 C 
BRANCH  23  24
HETATM   24  N   UNL     1     -42.751  58.321 -51.209  1.00  0.00    -0.259 N 
HETATM   25  C   UNL     1     -41.423  58.306 -51.490  1.00  0.00     0.326 A 
HETATM   26  O   UNL     1     -40.683  59.268 -51.592  1.00  0.00    -0.247 OA
HETATM   27  N   UNL     1     -41.032  57.004 -51.676  1.00  0.00    -0.324 N 
HETATM   28  C   UNL     1     -42.108  56.062 -51.450  1.00  0.00     0.120 A 
HETATM   29  H   UNL     1     -40.071  56.767 -51.884  1.00  0.00     0.165 HD
HETATM   30  C   UNL     1     -42.396  55.172 -52.660  1.00  0.00     0.080 C 
HETATM   31  C   UNL     1     -41.873  55.233 -50.188  1.00  0.00     0.046 C 
HETATM   32  C   UNL     1     -43.263  57.054 -51.228  1.00  0.00     0.257 A 
HETATM   33  C   UNL     1     -41.453  53.996 -52.773  1.00  0.00    -0.049 A 
HETATM   34  C   UNL     1     -40.677  53.564 -51.683  1.00  0.00    -0.052 A 
HETATM   35  C   UNL     1     -41.405  53.283 -53.981  1.00  0.00     0.007 A 
HETATM   36  C   UNL     1     -40.679  54.296 -50.363  1.00  0.00     0.042 C 
HETATM   37  C   UNL     1     -39.834  52.452 -51.839  1.00  0.00     0.007 A 
HETATM   38  C   UNL     1     -39.786  51.759 -53.048  1.00  0.00     0.001 A 
HETATM   39  C   UNL     1     -40.574  52.171 -54.117  1.00  0.00     0.001 A 
HETATM   40  O   UNL     1     -44.437  56.745 -51.088  1.00  0.00    -0.270 OA
ENDBRANCH  23  24
ENDBRANCH   2  23
TORSDOF 6
ENDMDL
MODEL 3
REMARK VINA RESULT:      -9.1      3.577      6.368
REMARK  6 active torsions:
REMARK  status: ('A' for Active; 'I' for Inactive)
REMARK    1  A    between atoms: C_2  and  N_3 
REMARK    2  A    between atoms: C_2  and  C_32 
REMARK       I    between atoms: N_3  and  C_4 
REMARK    3  A    between atoms: C_4  and  C_5 
REMARK    4  A    between atoms: C_6  and  N_7 
REMARK       I    between atoms: N_7  and  C_8 
REMARK    5  A    between atoms: C_8  and  C_9 
REMARK    6  A    between atoms: C_9  and  N_10 
ROOT
HETATM    1  N   UNL     1     -42.363  60.867 -56.750  1.00  0.00    -0.325 N 
HETATM    2  C   UNL     1     -42.267  59.577 -56.257  1.00  0.00     0.240 C 
HETATM    3  O   UNL     1     -41.882  58.597 -56.889  1.00  0.00    -0.271 OA
HETATM    4  H   UNL     1     -42.822  61.568 -56.157  1.00  0.00     0.169 HD
ENDROOT
BRANCH   1   5
HETATM    5  C   UNL     1     -41.915  61.345 -58.011  1.00  0.00     0.050 A 
HETATM    6  C   UNL     1     -42.766  61.260 -59.134  1.00  0.00     0.058 A 
HETATM    7  C   UNL     1     -42.362  61.765 -60.382  1.00  0.00     0.019 A 
HETATM    8  C   UNL     1     -41.102  62.337 -60.532  1.00  0.00     0.001 A 
HETATM    9  C   UNL     1     -40.247  62.409 -59.437  1.00  0.00     0.002 A 
HETATM   10  C   UNL     1     -40.650  61.921 -58.189  1.00  0.00     0.030 A 
BRANCH   6  11
HETATM   11  C   UNL     1     -44.109  60.633 -59.016  1.00  0.00     0.254 C 
HETATM   12  N   UNL     1     -44.313  59.505 -59.783  1.00  0.00    -0.349 N 
HETATM   13  H   UNL     1     -43.505  59.064 -60.198  1.00  0.00     0.163 HD
HETATM   14  O   UNL     1     -44.931  61.101 -58.236  1.00  0.00    -0.268 OA
BRANCH  12  15
HETATM   15  C   UNL     1     -45.496  58.676 -59.614  1.00  0.00     0.114 C 
HETATM   16  C   UNL     1     -46.527  59.010 -60.693  1.00  0.00     0.037 C 
BRANCH  15  17
HETATM   17  C   UNL     1     -45.113  57.206 -59.622  1.00  0.00    -0.036 A 
HETATM   18  C   UNL     1     -45.879  56.293 -60.363  1.00  0.00     0.009 A 
HETATM   19  C   UNL     1     -45.531  54.942 -60.411  1.00  0.00     0.001 A 
HETATM   20  C   UNL     1     -44.428  54.478 -59.700  1.00  0.00     0.000 A 
HETATM   21  C   UNL     1     -43.672  55.365 -58.938  1.00  0.00     0.001 A 
HETATM   22  C   UNL     1     -44.010  56.720 -58.899  1.00  0.00     0.009 A 
ENDBRANCH  15  17
ENDBRANCH  12  15
ENDBRANCH   6  11
ENDBRANCH   1   5
BRANCH   2  23
HETATM   23  C   UNL     1     -42.774  59.428 -54.825  1.00  0.00     0.240 C 
BRANCH  23  24
HETATM   24  N   UNL     1     -42.193  58.241 -54.242  1.00  0.00    -0.259 N 
HETATM   25  C   UNL     1     -40.981  58.207 -53.633  1.00  0.00     0.326 A 
HETATM   26  O   UNL     1     -40.211  59.138 -53.478  1.00  0.00    -0.247 OA
HETATM   27  N   UNL     1     -40.731  56.919 -53.230  1.00  0.00    -0.324 N 
HETATM   28  C   UNL     1     -41.838  56.026 -53.503  1.00  0.00     0.120 A 
HETATM   29  H   UNL     1     -39.881  56.676 -52.740  1.00  0.00     0.165 HD
HETATM   30  C   UNL     1     -41.451  54.838 -54.385  1.00  0.00     0.080 C 
HETATM   31  C   UNL     1     -42.522  55.569 -52.215  1.00  0.00     0.046 C 
HETATM   32  C   UNL     1     -42.750  56.993 -54.278  1.00  0.00     0.257 A 
HETATM   33  C   UNL     1     -40.795  53.713 -53.617  1.00  0.00    -0.049 A 
HETATM   34  C   UNL     1     -40.898  53.617 -52.218  1.00  0.00    -0.052 A 
HETATM   35  C   UNL     1     -40.122  52.710 -54.331  1.00  0.00     0.007 A 
HETATM   36  C   UNL     1     -41.600  54.669 -51.394  1.00  0.00     0.042 C 
HETATM   37  C   UNL     1     -40.286  52.539 -51.558  1.00  0.00     0.007 A 
HETATM   38  C   UNL     1     -39.610  51.555 -52.277  1.00  0.00     0.001 A 
HETATM   39  C   UNL     1     -39.532  51.637 -53.664  1.00  0.00     0.001 A 
HETATM   40  O   UNL     1     -43.800  56.684 -54.823  1.00  0.00    -0.270 OA
ENDBRANCH  23  24
ENDBRANCH   2  23
TORSDOF 6
ENDMDL
MODEL 4
REMARK VINA RESULT:      -8.6      3.845      6.734
REMARK  6 active torsions:
REMARK  status: ('A' for Active; 'I' for Inactive)
REMARK    1  A    between atoms: C_2  and  N_3 
REMARK    2  A    between atoms: C_2  and  C_32 
REMARK       I    between atoms: N_3  and  C_4 
REMARK    3  A    between atoms: C_4  and  C_5 
REMARK    4  A    between atoms: C_6  and  N_7 
REMARK       I    between atoms: N_7  and  C_8 
REMARK    5  A    between atoms: C_8  and  C_9 
REMARK    6  A    between atoms: C_9  and  N_10 
ROOT
HETATM    1  N   UNL     1     -43.234  57.704 -56.705  1.00  0.00    -0.325 N 
HETATM    2  C   UNL     1     -44.165  58.054 -55.742  1.00  0.00     0.240 C 
HETATM    3  O   UNL     1     -45.379  58.120 -55.912  1.00  0.00    -0.271 OA
HETATM    4  H   UNL     1     -42.241  57.813 -56.466  1.00  0.00     0.169 HD
ENDROOT
BRANCH   1   5
HETATM    5  C   UNL     1     -43.489  57.223 -58.017  1.00  0.00     0.050 A 
HETATM    6  C   UNL     1     -43.764  58.138 -59.056  1.00  0.00     0.058 A 
HETATM    7  C   UNL     1     -43.977  57.689 -60.371  1.00  0.00     0.019 A 
HETATM    8  C   UNL     1     -43.941  56.328 -60.662  1.00  0.00     0.001 A 
HETATM    9  C   UNL     1     -43.690  55.416 -59.642  1.00  0.00     0.002 A 
HETATM   10  C   UNL     1     -43.463  55.858 -58.334  1.00  0.00     0.030 A 
BRANCH   6  11
HETATM   11  C   UNL     1     -43.834  59.596 -58.777  1.00  0.00     0.254 C 
HETATM   12  N   UNL     1     -42.629  60.267 -58.784  1.00  0.00    -0.349 N 
HETATM   13  H   UNL     1     -41.828  59.794 -59.175  1.00  0.00     0.163 HD
HETATM   14  O   UNL     1     -44.924  60.129 -58.602  1.00  0.00    -0.268 OA
BRANCH  12  15
HETATM   15  C   UNL     1     -42.569  61.719 -58.731  1.00  0.00     0.114 C 
HETATM   16  C   UNL     1     -42.420  62.184 -57.282  1.00  0.00     0.037 C 
BRANCH  15  17
HETATM   17  C   UNL     1     -41.444  62.230 -59.616  1.00  0.00    -0.036 A 
HETATM   18  C   UNL     1     -40.330  62.852 -59.032  1.00  0.00     0.009 A 
HETATM   19  C   UNL     1     -39.269  63.304 -59.820  1.00  0.00     0.001 A 
HETATM   20  C   UNL     1     -39.318  63.165 -61.204  1.00  0.00     0.000 A 
HETATM   21  C   UNL     1     -40.427  62.574 -61.802  1.00  0.00     0.001 A 
HETATM   22  C   UNL     1     -41.484  62.108 -61.015  1.00  0.00     0.009 A 
ENDBRANCH  15  17
ENDBRANCH  12  15
ENDBRANCH   6  11
ENDBRANCH   1   5
BRANCH   2  23
HETATM   23  C   UNL     1     -43.545  58.452 -54.405  1.00  0.00     0.240 C 
BRANCH  23  24
HETATM   24  N   UNL     1     -42.751  57.351 -53.908  1.00  0.00    -0.259 N 
HETATM   25  C   UNL     1     -41.432  57.442 -53.601  1.00  0.00     0.326 A 
HETATM   26  O   UNL     1     -40.725  58.430 -53.685  1.00  0.00    -0.247 OA
HETATM   27  N   UNL     1     -40.992  56.207 -53.196  1.00  0.00    -0.324 N 
HETATM   28  C   UNL     1     -42.057  55.225 -53.150  1.00  0.00     0.120 A 
HETATM   29  H   UNL     1     -40.035  56.056 -52.907  1.00  0.00     0.165 HD
HETATM   30  C   UNL     1     -41.789  54.003 -54.030  1.00  0.00     0.080 C 
HETATM   31  C   UNL     1     -42.386  54.821 -51.714  1.00  0.00     0.046 C 
HETATM   32  C   UNL     1     -43.198  56.071 -53.741  1.00  0.00     0.257 A 
HETATM   33  C   UNL     1     -40.884  52.984 -53.376  1.00  0.00    -0.049 A 
HETATM   34  C   UNL     1     -40.653  52.984 -51.989  1.00  0.00    -0.052 A 
HETATM   35  C   UNL     1     -40.316  51.977 -54.170  1.00  0.00     0.007 A 
HETATM   36  C   UNL     1     -41.230  54.046 -51.084  1.00  0.00     0.042 C 
HETATM   37  C   UNL     1     -39.821  52.001 -51.432  1.00  0.00     0.007 A 
HETATM   38  C   UNL     1     -39.252  51.012 -52.234  1.00  0.00     0.001 A 
HETATM   39  C   UNL     1     -39.502  50.997 -53.602  1.00  0.00     0.001 A 
HETATM   40  O   UNL     1     -44.317  55.654 -54.006  1.00  0.00    -0.270 OA
ENDBRANCH  23  24
ENDBRANCH   2  23
TORSDOF 6
ENDMDL
MODEL 5
REMARK VINA RESULT:      -8.5      2.394      5.326
REMARK  6 active torsions:
REMARK  status: ('A' for Active; 'I' for Inactive)
REMARK    1  A    between atoms: C_2  and  N_3 
REMARK    2  A    between atoms: C_2  and  C_32 
REMARK       I    between atoms: N_3  and  C_4 
REMARK    3  A    between atoms: C_4  and  C_5 
REMARK    4  A    between atoms: C_6  and  N_7 
REMARK       I    between atoms: N_7  and  C_8 
REMARK    5  A    between atoms: C_8  and  C_9 
REMARK    6  A    between atoms: C_9  and  N_10 
ROOT
HETATM    1  N   UNL     1     -44.049  60.042 -53.522  1.00  0.00    -0.325 N 
HETATM    2  C   UNL     1     -42.972  60.083 -52.654  1.00  0.00     0.240 C 
HETATM    3  O   UNL     1     -41.985  60.805 -52.772  1.00  0.00    -0.271 OA
HETATM    4  H   UNL     1     -44.746  59.302 -53.377  1.00  0.00     0.169 HD
ENDROOT
BRANCH   1   5
HETATM    5  C   UNL     1     -44.304  60.902 -54.624  1.00  0.00     0.050 A 
HETATM    6  C   UNL     1     -43.986  60.475 -55.932  1.00  0.00     0.058 A 
HETATM    7  C   UNL     1     -44.268  61.290 -57.042  1.00  0.00     0.019 A 
HETATM    8  C   UNL     1     -44.845  62.545 -56.862  1.00  0.00     0.001 A 
HETATM    9  C   UNL     1     -45.144  62.984 -55.576  1.00  0.00     0.002 A 
HETATM   10  C   UNL     1     -44.880  62.170 -54.469  1.00  0.00     0.030 A 
BRANCH   6  11
HETATM   11  C   UNL     1     -43.347  59.153 -56.158  1.00  0.00     0.254 C 
HETATM   12  N   UNL     1     -44.027  58.293 -56.995  1.00  0.00    -0.349 N 
HETATM   13  H   UNL     1     -44.777  58.673 -57.553  1.00  0.00     0.163 HD
HETATM   14  O   UNL     1     -42.260  58.909 -55.646  1.00  0.00    -0.268 OA
BRANCH  12  15
HETATM   15  C   UNL     1     -43.423  57.056 -57.466  1.00  0.00     0.114 C 
HETATM   16  C   UNL     1     -43.354  56.041 -56.325  1.00  0.00     0.037 C 
BRANCH  15  17
HETATM   17  C   UNL     1     -44.188  56.522 -58.665  1.00  0.00    -0.036 A 
HETATM   18  C   UNL     1     -45.287  57.240 -59.162  1.00  0.00     0.009 A 
HETATM   19  C   UNL     1     -45.990  56.787 -60.280  1.00  0.00     0.001 A 
HETATM   20  C   UNL     1     -45.621  55.597 -60.903  1.00  0.00     0.000 A 
HETATM   21  C   UNL     1     -44.550  54.859 -60.407  1.00  0.00     0.001 A 
HETATM   22  C   UNL     1     -43.837  55.317 -59.296  1.00  0.00     0.009 A 
ENDBRANCH  15  17
ENDBRANCH  12  15
ENDBRANCH   6  11
ENDBRANCH   1   5
BRANCH   2  23
HETATM   23  C   UNL     1     -43.055  59.061 -51.523  1.00  0.00     0.240 C 
BRANCH  23  24
HETATM   24  N   UNL     1     -42.645  57.769 -52.025  1.00  0.00    -0.259 N 
HETATM   25  C   UNL     1     -43.501  56.837 -52.514  1.00  0.00     0.326 A 
HETATM   26  O   UNL     1     -44.712  56.931 -52.612  1.00  0.00    -0.247 OA
HETATM   27  N   UNL     1     -42.780  55.724 -52.866  1.00  0.00    -0.324 N 
HETATM   28  C   UNL     1     -41.354  55.905 -52.683  1.00  0.00     0.120 A 
HETATM   29  H   UNL     1     -43.226  54.911 -53.267  1.00  0.00     0.165 HD
HETATM   30  C   UNL     1     -40.730  54.871 -51.744  1.00  0.00     0.080 C 
HETATM   31  C   UNL     1     -40.619  55.964 -54.021  1.00  0.00     0.046 C 
HETATM   32  C   UNL     1     -41.364  57.293 -52.018  1.00  0.00     0.257 A 
HETATM   33  C   UNL     1     -40.428  53.555 -52.424  1.00  0.00    -0.049 A 
HETATM   34  C   UNL     1     -40.362  53.445 -53.824  1.00  0.00    -0.052 A 
HETATM   35  C   UNL     1     -40.144  52.433 -51.629  1.00  0.00     0.007 A 
HETATM   36  C   UNL     1     -40.666  54.613 -54.732  1.00  0.00     0.042 C 
HETATM   37  C   UNL     1     -40.056  52.202 -54.401  1.00  0.00     0.007 A 
HETATM   38  C   UNL     1     -39.789  51.092 -53.601  1.00  0.00     0.001 A 
HETATM   39  C   UNL     1     -39.828  51.208 -52.215  1.00  0.00     0.001 A 
HETATM   40  O   UNL     1     -40.381  57.865 -51.571  1.00  0.00    -0.270 OA
ENDBRANCH  23  24
ENDBRANCH   2  23
TORSDOF 6
ENDMDL
MODEL 6
REMARK VINA RESULT:      -8.3      4.288      8.862
REMARK  6 active torsions:
REMARK  status: ('A' for Active; 'I' for Inactive)
REMARK    1  A    between atoms: C_2  and  N_3 
REMARK    2  A    between atoms: C_2  and  C_32 
REMARK       I    between atoms: N_3  and  C_4 
REMARK    3  A    between atoms: C_4  and  C_5 
REMARK    4  A    between atoms: C_6  and  N_7 
REMARK       I    between atoms: N_7  and  C_8 
REMARK    5  A    between atoms: C_8  and  C_9 
REMARK    6  A    between atoms: C_9  and  N_10 
ROOT
HETATM    1  N   UNL     1     -41.775  56.305 -55.996  1.00  0.00    -0.325 N 
HETATM    2  C   UNL     1     -42.587  56.335 -57.116  1.00  0.00     0.240 C 
HETATM    3  O   UNL     1     -43.139  55.363 -57.626  1.00  0.00    -0.271 OA
HETATM    4  H   UNL     1     -41.273  57.167 -55.751  1.00  0.00     0.169 HD
ENDROOT
BRANCH   1   5
HETATM    5  C   UNL     1     -41.528  55.200 -55.138  1.00  0.00     0.050 A 
HETATM    6  C   UNL     1     -42.365  54.980 -54.023  1.00  0.00     0.058 A 
HETATM    7  C   UNL     1     -42.168  53.869 -53.184  1.00  0.00     0.019 A 
HETATM    8  C   UNL     1     -41.125  52.981 -53.431  1.00  0.00     0.001 A 
HETATM    9  C   UNL     1     -40.281  53.198 -54.516  1.00  0.00     0.002 A 
HETATM   10  C   UNL     1     -40.482  54.294 -55.362  1.00  0.00     0.030 A 
BRANCH   6  11
HETATM   11  C   UNL     1     -43.473  55.922 -53.715  1.00  0.00     0.254 C 
HETATM   12  N   UNL     1     -43.195  56.884 -52.768  1.00  0.00    -0.349 N 
HETATM   13  H   UNL     1     -42.230  57.025 -52.506  1.00  0.00     0.163 HD
HETATM   14  O   UNL     1     -44.532  55.834 -54.326  1.00  0.00    -0.268 OA
BRANCH  12  15
HETATM   15  C   UNL     1     -44.107  57.990 -52.519  1.00  0.00     0.114 C 
HETATM   16  C   UNL     1     -43.882  58.548 -51.113  1.00  0.00     0.037 C 
BRANCH  15  17
HETATM   17  C   UNL     1     -43.947  59.054 -53.591  1.00  0.00    -0.036 A 
HETATM   18  C   UNL     1     -42.662  59.400 -54.039  1.00  0.00     0.009 A 
HETATM   19  C   UNL     1     -42.487  60.353 -55.044  1.00  0.00     0.001 A 
HETATM   20  C   UNL     1     -43.592  60.994 -55.599  1.00  0.00     0.000 A 
HETATM   21  C   UNL     1     -44.872  60.682 -55.149  1.00  0.00     0.001 A 
HETATM   22  C   UNL     1     -45.050  59.719 -54.153  1.00  0.00     0.009 A 
ENDBRANCH  15  17
ENDBRANCH  12  15
ENDBRANCH   6  11
ENDBRANCH   1   5
BRANCH   2  23
HETATM   23  C   UNL     1     -42.695  57.715 -57.759  1.00  0.00     0.240 C 
BRANCH  23  24
HETATM   24  N   UNL     1     -43.737  57.689 -58.759  1.00  0.00    -0.259 N 
HETATM   25  C   UNL     1     -43.515  57.511 -60.086  1.00  0.00     0.326 A 
HETATM   26  O   UNL     1     -42.440  57.346 -60.635  1.00  0.00    -0.247 OA
HETATM   27  N   UNL     1     -44.718  57.576 -60.742  1.00  0.00    -0.324 N 
HETATM   28  C   UNL     1     -45.838  57.737 -59.837  1.00  0.00     0.120 A 
HETATM   29  H   UNL     1     -44.780  57.455 -61.744  1.00  0.00     0.165 HD
HETATM   30  C   UNL     1     -46.670  58.988 -60.123  1.00  0.00     0.080 C 
HETATM   31  C   UNL     1     -46.708  56.482 -59.792  1.00  0.00     0.046 C 
HETATM   32  C   UNL     1     -45.066  57.898 -58.516  1.00  0.00     0.257 A 
HETATM   33  C   UNL     1     -47.665  58.798 -61.245  1.00  0.00    -0.049 A 
HETATM   34  C   UNL     1     -48.044  57.518 -61.687  1.00  0.00    -0.052 A 
HETATM   35  C   UNL     1     -48.270  59.931 -61.810  1.00  0.00     0.007 A 
HETATM   36  C   UNL     1     -47.423  56.263 -61.124  1.00  0.00     0.042 C 
HETATM   37  C   UNL     1     -48.989  57.401 -62.719  1.00  0.00     0.007 A 
HETATM   38  C   UNL     1     -49.574  58.535 -63.282  1.00  0.00     0.001 A 
HETATM   39  C   UNL     1     -49.218  59.800 -62.824  1.00  0.00     0.001 A 
HETATM   40  O   UNL     1     -45.571  58.162 -57.435  1.00  0.00    -0.270 OA
ENDBRANCH  23  24
ENDBRANCH   2  23
TORSDOF 6
ENDMDL
MODEL 7
REMARK VINA RESULT:      -8.2      3.964      7.135
REMARK  6 active torsions:
REMARK  status: ('A' for Active; 'I' for Inactive)
REMARK    1  A    between atoms: C_2  and  N_3 
REMARK    2  A    between atoms: C_2  and  C_32 
REMARK       I    between atoms: N_3  and  C_4 
REMARK    3  A    between atoms: C_4  and  C_5 
REMARK    4  A    between atoms: C_6  and  N_7 
REMARK       I    between atoms: N_7  and  C_8 
REMARK    5  A    between atoms: C_8  and  C_9 
REMARK    6  A    between atoms: C_9  and  N_10 
ROOT
HETATM    1  N   UNL     1     -45.016  60.655 -51.734  1.00  0.00    -0.325 N 
HETATM    2  C   UNL     1     -43.731  60.714 -52.243  1.00  0.00     0.240 C 
HETATM    3  O   UNL     1     -42.798  61.351 -51.760  1.00  0.00    -0.271 OA
HETATM    4  H   UNL     1     -45.732  60.190 -52.305  1.00  0.00     0.169 HD
ENDROOT
BRANCH   1   5
HETATM    5  C   UNL     1     -45.482  61.188 -50.502  1.00  0.00     0.050 A 
HETATM    6  C   UNL     1     -46.410  62.252 -50.506  1.00  0.00     0.058 A 
HETATM    7  C   UNL     1     -46.918  62.768 -49.301  1.00  0.00     0.019 A 
HETATM    8  C   UNL     1     -46.492  62.248 -48.082  1.00  0.00     0.001 A 
HETATM    9  C   UNL     1     -45.564  61.212 -48.064  1.00  0.00     0.002 A 
HETATM   10  C   UNL     1     -45.066  60.685 -49.261  1.00  0.00     0.030 A 
BRANCH   6  11
HETATM   11  C   UNL     1     -46.867  62.847 -51.789  1.00  0.00     0.254 C 
HETATM   12  N   UNL     1     -48.179  62.599 -52.132  1.00  0.00    -0.349 N 
HETATM   13  H   UNL     1     -48.791  62.227 -51.420  1.00  0.00     0.163 HD
HETATM   14  O   UNL     1     -46.098  63.545 -52.442  1.00  0.00    -0.268 OA
BRANCH  12  15
HETATM   15  C   UNL     1     -48.815  63.285 -53.246  1.00  0.00     0.114 C 
HETATM   16  C   UNL     1     -48.470  62.579 -54.559  1.00  0.00     0.037 C 
BRANCH  15  17
HETATM   17  C   UNL     1     -50.315  63.375 -53.020  1.00  0.00    -0.036 A 
HETATM   18  C   UNL     1     -51.135  63.926 -54.017  1.00  0.00     0.009 A 
HETATM   19  C   UNL     1     -52.519  63.995 -53.847  1.00  0.00     0.001 A 
HETATM   20  C   UNL     1     -53.102  63.537 -52.669  1.00  0.00     0.000 A 
HETATM   21  C   UNL     1     -52.301  63.011 -51.659  1.00  0.00     0.001 A 
HETATM   22  C   UNL     1     -50.917  62.929 -51.832  1.00  0.00     0.009 A 
ENDBRANCH  15  17
ENDBRANCH  12  15
ENDBRANCH   6  11
ENDBRANCH   1   5
BRANCH   2  23
HETATM   23  C   UNL     1     -43.557  59.959 -53.559  1.00  0.00     0.240 C 
BRANCH  23  24
HETATM   24  N   UNL     1     -42.811  58.747 -53.311  1.00  0.00    -0.259 N 
HETATM   25  C   UNL     1     -41.459  58.658 -53.380  1.00  0.00     0.326 A 
HETATM   26  O   UNL     1     -40.676  59.552 -53.646  1.00  0.00    -0.247 OA
HETATM   27  N   UNL     1     -41.093  57.360 -53.123  1.00  0.00    -0.324 N 
HETATM   28  C   UNL     1     -42.226  56.519 -52.794  1.00  0.00     0.120 A 
HETATM   29  H   UNL     1     -40.123  57.078 -53.111  1.00  0.00     0.165 HD
HETATM   30  C   UNL     1     -42.373  55.314 -53.725  1.00  0.00     0.080 C 
HETATM   31  C   UNL     1     -42.201  56.094 -51.326  1.00  0.00     0.046 C 
HETATM   32  C   UNL     1     -43.362  57.526 -53.039  1.00  0.00     0.257 A 
HETATM   33  C   UNL     1     -41.468  54.161 -53.355  1.00  0.00    -0.049 A 
HETATM   34  C   UNL     1     -40.869  54.069 -52.086  1.00  0.00    -0.052 A 
HETATM   35  C   UNL     1     -41.276  53.127 -54.285  1.00  0.00     0.007 A 
HETATM   36  C   UNL     1     -41.031  55.153 -51.047  1.00  0.00     0.042 C 
HETATM   37  C   UNL     1     -40.055  52.965 -51.789  1.00  0.00     0.007 A 
HETATM   38  C   UNL     1     -39.862  51.950 -52.726  1.00  0.00     0.001 A 
HETATM   39  C   UNL     1     -40.476  52.029 -53.972  1.00  0.00     0.001 A 
HETATM   40  O   UNL     1     -44.555  57.265 -52.988  1.00  0.00    -0.270 OA
ENDBRANCH  23  24
ENDBRANCH   2  23
TORSDOF 6
ENDMDL
MODEL 8
REMARK VINA RESULT:      -8.2      3.609      7.257
REMARK  6 active torsions:
REMARK  status: ('A' for Active; 'I' for Inactive)
REMARK    1  A    between atoms: C_2  and  N_3 
REMARK    2  A    between atoms: C_2  and  C_32 
REMARK       I    between atoms: N_3  and  C_4 
REMARK    3  A    between atoms: C_4  and  C_5 
REMARK    4  A    between atoms: C_6  and  N_7 
REMARK       I    between atoms: N_7  and  C_8 
REMARK    5  A    between atoms: C_8  and  C_9 
REMARK    6  A    between atoms: C_9  and  N_10 
ROOT
HETATM    1  N   UNL     1     -44.153  57.299 -56.715  1.00  0.00    -0.325 N 
HETATM    2  C   UNL     1     -43.521  58.447 -56.270  1.00  0.00     0.240 C 
HETATM    3  O   UNL     1     -42.927  59.257 -56.977  1.00  0.00    -0.271 OA
HETATM    4  H   UNL     1     -44.501  56.644 -56.005  1.00  0.00     0.169 HD
ENDROOT
BRANCH   1   5
HETATM    5  C   UNL     1     -44.366  56.898 -58.061  1.00  0.00     0.050 A 
HETATM    6  C   UNL     1     -45.477  57.398 -58.773  1.00  0.00     0.058 A 
HETATM    7  C   UNL     1     -45.685  57.050 -60.120  1.00  0.00     0.019 A 
HETATM    8  C   UNL     1     -44.805  56.184 -60.763  1.00  0.00     0.001 A 
HETATM    9  C   UNL     1     -43.716  55.669 -60.066  1.00  0.00     0.002 A 
HETATM   10  C   UNL     1     -43.497  56.024 -58.730  1.00  0.00     0.030 A 
BRANCH   6  11
HETATM   11  C   UNL     1     -46.451  58.304 -58.110  1.00  0.00     0.254 C 
HETATM   12  N   UNL     1     -46.359  59.637 -58.452  1.00  0.00    -0.349 N 
HETATM   13  H   UNL     1     -45.804  59.880 -59.260  1.00  0.00     0.163 HD
HETATM   14  O   UNL     1     -47.292  57.839 -57.349  1.00  0.00    -0.268 OA
BRANCH  12  15
HETATM   15  C   UNL     1     -47.371  60.598 -58.041  1.00  0.00     0.114 C 
HETATM   16  C   UNL     1     -46.745  61.985 -57.890  1.00  0.00     0.037 C 
BRANCH  15  17
HETATM   17  C   UNL     1     -48.528  60.595 -59.027  1.00  0.00    -0.036 A 
HETATM   18  C   UNL     1     -49.836  60.800 -58.561  1.00  0.00     0.009 A 
HETATM   19  C   UNL     1     -50.913  60.831 -59.449  1.00  0.00     0.001 A 
HETATM   20  C   UNL     1     -50.703  60.634 -60.811  1.00  0.00     0.000 A 
HETATM   21  C   UNL     1     -49.415  60.403 -61.286  1.00  0.00     0.001 A 
HETATM   22  C   UNL     1     -48.333  60.384 -60.402  1.00  0.00     0.009 A 
ENDBRANCH  15  17
ENDBRANCH  12  15
ENDBRANCH   6  11
ENDBRANCH   1   5
BRANCH   2  23
HETATM   23  C   UNL     1     -43.543  58.610 -54.752  1.00  0.00     0.240 C 
BRANCH  23  24
HETATM   24  N   UNL     1     -42.773  57.545 -54.153  1.00  0.00    -0.259 N 
HETATM   25  C   UNL     1     -41.467  57.654 -53.802  1.00  0.00     0.326 A 
HETATM   26  O   UNL     1     -40.753  58.633 -53.924  1.00  0.00    -0.247 OA
HETATM   27  N   UNL     1     -41.048  56.448 -53.299  1.00  0.00    -0.324 N 
HETATM   28  C   UNL     1     -42.118  55.473 -53.228  1.00  0.00     0.120 A 
HETATM   29  H   UNL     1     -40.104  56.316 -52.963  1.00  0.00     0.165 HD
HETATM   30  C   UNL     1     -41.822  54.194 -54.013  1.00  0.00     0.080 C 
HETATM   31  C   UNL     1     -42.503  55.166 -51.782  1.00  0.00     0.046 C 
HETATM   32  C   UNL     1     -43.232  56.279 -53.918  1.00  0.00     0.257 A 
HETATM   33  C   UNL     1     -40.947  53.220 -53.258  1.00  0.00    -0.049 A 
HETATM   34  C   UNL     1     -40.769  53.313 -51.866  1.00  0.00    -0.052 A 
HETATM   35  C   UNL     1     -40.352  52.161 -53.961  1.00  0.00     0.007 A 
HETATM   36  C   UNL     1     -41.376  54.434 -51.057  1.00  0.00     0.042 C 
HETATM   37  C   UNL     1     -39.963  52.368 -51.213  1.00  0.00     0.007 A 
HETATM   38  C   UNL     1     -39.367  51.327 -51.924  1.00  0.00     0.001 A 
HETATM   39  C   UNL     1     -39.565  51.221 -53.297  1.00  0.00     0.001 A 
HETATM   40  O   UNL     1     -44.341  55.847 -54.197  1.00  0.00    -0.270 OA
ENDBRANCH  23  24
ENDBRANCH   2  23
TORSDOF 6
ENDMDL
MODEL 9
REMARK VINA RESULT:      -8.2      2.671      5.751
REMARK  6 active torsions:
REMARK  status: ('A' for Active; 'I' for Inactive)
REMARK    1  A    between atoms: C_2  and  N_3 
REMARK    2  A    between atoms: C_2  and  C_32 
REMARK       I    between atoms: N_3  and  C_4 
REMARK    3  A    between atoms: C_4  and  C_5 
REMARK    4  A    between atoms: C_6  and  N_7 
REMARK       I    between atoms: N_7  and  C_8 
REMARK    5  A    between atoms: C_8  and  C_9 
REMARK    6  A    between atoms: C_9  and  N_10 
ROOT
HETATM    1  N   UNL     1     -42.505  58.772 -56.562  1.00  0.00    -0.325 N 
HETATM    2  C   UNL     1     -43.692  58.829 -55.852  1.00  0.00     0.240 C 
HETATM    3  O   UNL     1     -44.817  58.868 -56.343  1.00  0.00    -0.271 OA
HETATM    4  H   UNL     1     -41.631  58.875 -56.033  1.00  0.00     0.169 HD
ENDROOT
BRANCH   1   5
HETATM    5  C   UNL     1     -42.345  58.608 -57.964  1.00  0.00     0.050 A 
HETATM    6  C   UNL     1     -42.091  59.735 -58.776  1.00  0.00     0.058 A 
HETATM    7  C   UNL     1     -41.886  59.593 -60.160  1.00  0.00     0.019 A 
HETATM    8  C   UNL     1     -41.954  58.335 -60.752  1.00  0.00     0.001 A 
HETATM    9  C   UNL     1     -42.222  57.219 -59.966  1.00  0.00     0.002 A 
HETATM   10  C   UNL     1     -42.412  57.354 -58.586  1.00  0.00     0.030 A 
BRANCH   6  11
HETATM   11  C   UNL     1     -42.037  61.096 -58.180  1.00  0.00     0.254 C 
HETATM   12  N   UNL     1     -43.193  61.840 -58.280  1.00  0.00    -0.349 N 
HETATM   13  H   UNL     1     -44.041  61.362 -58.548  1.00  0.00     0.163 HD
HETATM   14  O   UNL     1     -41.019  61.467 -57.607  1.00  0.00    -0.268 OA
BRANCH  12  15
HETATM   15  C   UNL     1     -43.350  63.099 -57.568  1.00  0.00     0.114 C 
HETATM   16  C   UNL     1     -44.142  64.089 -58.423  1.00  0.00     0.037 C 
BRANCH  15  17
HETATM   17  C   UNL     1     -44.000  62.859 -56.215  1.00  0.00    -0.036 A 
HETATM   18  C   UNL     1     -45.302  62.339 -56.155  1.00  0.00     0.009 A 
HETATM   19  C   UNL     1     -45.912  62.081 -54.926  1.00  0.00     0.001 A 
HETATM   20  C   UNL     1     -45.240  62.362 -53.739  1.00  0.00     0.000 A 
HETATM   21  C   UNL     1     -43.958  62.902 -53.781  1.00  0.00     0.001 A 
HETATM   22  C   UNL     1     -43.340  63.148 -55.010  1.00  0.00     0.009 A 
ENDBRANCH  15  17
ENDBRANCH  12  15
ENDBRANCH   6  11
ENDBRANCH   1   5
BRANCH   2  23
HETATM   23  C   UNL     1     -43.499  58.926 -54.341  1.00  0.00     0.240 C 
BRANCH  23  24
HETATM   24  N   UNL     1     -42.728  57.790 -53.891  1.00  0.00    -0.259 N 
HETATM   25  C   UNL     1     -41.389  57.819 -53.671  1.00  0.00     0.326 A 
HETATM   26  O   UNL     1     -40.643  58.772 -53.805  1.00  0.00    -0.247 OA
HETATM   27  N   UNL     1     -40.983  56.565 -53.288  1.00  0.00    -0.324 N 
HETATM   28  C   UNL     1     -42.088  55.636 -53.168  1.00  0.00     0.120 A 
HETATM   29  H   UNL     1     -40.018  56.370 -53.061  1.00  0.00     0.165 HD
HETATM   30  C   UNL     1     -41.936  54.400 -54.057  1.00  0.00     0.080 C 
HETATM   31  C   UNL     1     -42.342  55.251 -51.711  1.00  0.00     0.046 C 
HETATM   32  C   UNL     1     -43.224  56.533 -53.689  1.00  0.00     0.257 A 
HETATM   33  C   UNL     1     -41.040  53.340 -53.456  1.00  0.00    -0.049 A 
HETATM   34  C   UNL     1     -40.720  53.333 -52.087  1.00  0.00    -0.052 A 
HETATM   35  C   UNL     1     -40.573  52.305 -54.281  1.00  0.00     0.007 A 
HETATM   36  C   UNL     1     -41.185  54.424 -51.153  1.00  0.00     0.042 C 
HETATM   37  C   UNL     1     -39.901  52.312 -51.580  1.00  0.00     0.007 A 
HETATM   38  C   UNL     1     -39.432  51.296 -52.412  1.00  0.00     0.001 A 
HETATM   39  C   UNL     1     -39.772  51.289 -53.761  1.00  0.00     0.001 A 
HETATM   40  O   UNL     1     -44.376  56.170 -53.878  1.00  0.00    -0.270 OA
ENDBRANCH  23  24
ENDBRANCH   2  23
TORSDOF 6
ENDMDL
MODEL 10
REMARK VINA RESULT:      -8.2      3.531      8.024
REMARK  6 active torsions:
REMARK  status: ('A' for Active; 'I' for Inactive)
REMARK    1  A    between atoms: C_2  and  N_3 
REMARK    2  A    between atoms: C_2  and  C_32 
REMARK       I    between atoms: N_3  and  C_4 
REMARK    3  A    between atoms: C_4  and  C_5 
REMARK    4  A    between atoms: C_6  and  N_7 
REMARK       I    between atoms: N_7  and  C_8 
REMARK    5  A    between atoms: C_8  and  C_9 
REMARK    6  A    between atoms: C_9  and  N_10 
ROOT
HETATM    1  N   UNL     1     -43.391  58.507 -53.734  1.00  0.00    -0.325 N 
HETATM    2  C   UNL     1     -44.675  59.007 -53.862  1.00  0.00     0.240 C 
HETATM    3  O   UNL     1     -45.335  59.522 -52.962  1.00  0.00    -0.271 OA
HETATM    4  H   UNL     1     -43.004  57.987 -54.530  1.00  0.00     0.169 HD
ENDROOT
BRANCH   1   5
HETATM    5  C   UNL     1     -42.534  58.607 -52.605  1.00  0.00     0.050 A 
HETATM    6  C   UNL     1     -42.193  57.445 -51.881  1.00  0.00     0.058 A 
HETATM    7  C   UNL     1     -41.312  57.512 -50.787  1.00  0.00     0.019 A 
HETATM    8  C   UNL     1     -40.781  58.736 -50.389  1.00  0.00     0.001 A 
HETATM    9  C   UNL     1     -41.125  59.892 -51.084  1.00  0.00     0.002 A 
HETATM   10  C   UNL     1     -41.990  59.828 -52.182  1.00  0.00     0.030 A 
BRANCH   6  11
HETATM   11  C   UNL     1     -42.761  56.125 -52.262  1.00  0.00     0.254 C 
HETATM   12  N   UNL     1     -42.126  55.477 -53.301  1.00  0.00    -0.349 N 
HETATM   13  H   UNL     1     -41.220  55.818 -53.587  1.00  0.00     0.163 HD
HETATM   14  O   UNL     1     -43.706  55.667 -51.632  1.00  0.00    -0.268 OA
BRANCH  12  15
HETATM   15  C   UNL     1     -42.443  54.099 -53.641  1.00  0.00     0.114 C 
HETATM   16  C   UNL     1     -42.769  53.991 -55.132  1.00  0.00     0.037 C 
BRANCH  15  17
HETATM   17  C   UNL     1     -41.301  53.182 -53.236  1.00  0.00    -0.036 A 
HETATM   18  C   UNL     1     -40.853  53.179 -51.905  1.00  0.00     0.009 A 
HETATM   19  C   UNL     1     -39.825  52.326 -51.500  1.00  0.00     0.001 A 
HETATM   20  C   UNL     1     -39.213  51.480 -52.421  1.00  0.00     0.000 A 
HETATM   21  C   UNL     1     -39.627  51.489 -53.750  1.00  0.00     0.001 A 
HETATM   22  C   UNL     1     -40.664  52.333 -54.157  1.00  0.00     0.009 A 
ENDBRANCH  15  17
ENDBRANCH  12  15
ENDBRANCH   6  11
ENDBRANCH   1   5
BRANCH   2  23
HETATM   23  C   UNL     1     -45.282  58.795 -55.246  1.00  0.00     0.240 C 
BRANCH  23  24
HETATM   24  N   UNL     1     -44.533  59.566 -56.211  1.00  0.00    -0.259 N 
HETATM   25  C   UNL     1     -44.794  60.862 -56.518  1.00  0.00     0.326 A 
HETATM   26  O   UNL     1     -45.667  61.567 -56.044  1.00  0.00    -0.247 OA
HETATM   27  N   UNL     1     -43.917  61.265 -57.493  1.00  0.00    -0.324 N 
HETATM   28  C   UNL     1     -42.958  60.236 -57.838  1.00  0.00     0.120 A 
HETATM   29  H   UNL     1     -43.931  62.208 -57.858  1.00  0.00     0.165 HD
HETATM   30  C   UNL     1     -42.983  59.859 -59.320  1.00  0.00     0.080 C 
HETATM   31  C   UNL     1     -41.548  60.606 -57.378  1.00  0.00     0.046 C 
HETATM   32  C   UNL     1     -43.513  59.084 -56.983  1.00  0.00     0.257 A 
HETATM   33  C   UNL     1     -42.201  60.815 -60.192  1.00  0.00    -0.049 A 
HETATM   34  C   UNL     1     -41.250  61.698 -59.651  1.00  0.00    -0.052 A 
HETATM   35  C   UNL     1     -42.389  60.769 -61.582  1.00  0.00     0.007 A 
HETATM   36  C   UNL     1     -41.010  61.799 -58.164  1.00  0.00     0.042 C 
HETATM   37  C   UNL     1     -40.537  62.548 -60.511  1.00  0.00     0.007 A 
HETATM   38  C   UNL     1     -40.742  62.502 -61.889  1.00  0.00     0.001 A 
HETATM   39  C   UNL     1     -41.664  61.609 -62.425  1.00  0.00     0.001 A 
HETATM   40  O   UNL     1     -43.096  57.935 -56.996  1.00  0.00    -0.270 OA
ENDBRANCH  23  24
ENDBRANCH   2  23
TORSDOF 6
ENDMDL
