MODEL 1
REMARK VINA RESULT:      -7.8      0.000      0.000
REMARK  7 active torsions:
REMARK  status: ('A' for Active; 'I' for Inactive)
REMARK    1  A    between atoms: C_3  and  N_4 
REMARK       I    between atoms: N_4  and  C_5 
REMARK    2  A    between atoms: C_5  and  C_6 
REMARK    3  A    between atoms: C_7  and  C_8 
REMARK    4  A    between atoms: C_19  and  C_20 
REMARK    5  A    between atoms: C_20  and  C_21 
REMARK    6  A    between atoms: C_21  and  C_22 
REMARK    7  A    between atoms: C_22  and  O_23 
ROOT
HETATM    1  C   UNL     1     -42.557  55.278 -54.433  1.00  0.00     0.062 C 
HETATM    2  C   UNL     1     -43.501  56.478 -54.584  1.00  0.00     0.202 C 
HETATM    3  N   UNL     1     -43.692  56.818 -56.000  1.00  0.00    -0.083 N 
HETATM    4  C   UNL     1     -42.891  56.353 -57.007  1.00  0.00     0.726 A 
HETATM    5  N   UNL     1     -41.952  55.431 -56.729  1.00  0.00    -0.192 N 
HETATM    6  N   UNL     1     -44.593  57.711 -56.459  1.00  0.00    -0.140 NA
HETATM    7  C   UNL     1     -44.233  57.788 -57.748  1.00  0.00     0.166 A 
HETATM    8  N   UNL     1     -43.195  56.962 -58.124  1.00  0.00    -0.046 NA
HETATM    9  C   UNL     1     -41.793  54.854 -55.474  1.00  0.00     0.037 C 
HETATM   10  C   UNL     1     -40.707  53.809 -55.383  1.00  0.00     0.070 C 
HETATM   11  H   UNL     1     -41.364  55.092 -57.486  1.00  0.00     0.184 HD
ENDROOT
BRANCH   1  12
HETATM   12  C   UNL     1     -42.548  54.668 -53.067  1.00  0.00     0.256 C 
HETATM   13  N   UNL     1     -41.360  54.821 -52.391  1.00  0.00    -0.323 N 
HETATM   14  H   UNL     1     -40.550  55.032 -52.960  1.00  0.00     0.169 HD
HETATM   15  O   UNL     1     -43.489  53.976 -52.704  1.00  0.00    -0.267 OA
BRANCH  13  16
HETATM   16  C   UNL     1     -41.090  54.561 -51.026  1.00  0.00     0.041 A 
HETATM   17  C   UNL     1     -41.112  55.501 -49.979  1.00  0.00    -0.035 A 
HETATM   18  C   UNL     1     -41.373  56.974 -50.141  1.00  0.00     0.050 C 
HETATM   19  C   UNL     1     -40.827  55.063 -48.667  1.00  0.00     0.009 A 
HETATM   20  C   UNL     1     -40.469  53.744 -48.400  1.00  0.00     0.001 A 
HETATM   21  C   UNL     1     -40.391  52.833 -49.443  1.00  0.00     0.002 A 
HETATM   22  C   UNL     1     -40.694  53.240 -50.743  1.00  0.00     0.030 A 
ENDBRANCH  13  16
ENDBRANCH   1  12
BRANCH   2  23
HETATM   23  C   UNL     1     -43.020  57.731 -53.847  1.00  0.00    -0.027 A 
HETATM   24  C   UNL     1     -43.831  58.387 -52.903  1.00  0.00     0.028 A 
HETATM   25  C   UNL     1     -43.361  59.521 -52.239  1.00  0.00     0.011 A 
HETATM   26 BR   UNL     1     -44.466  60.388 -50.975  1.00  0.00    -0.051 Br
HETATM   27  C   UNL     1     -42.086  60.018 -52.498  1.00  0.00     0.019 A 
HETATM   28  C   UNL     1     -41.272  59.375 -53.429  1.00  0.00     0.002 A 
HETATM   29  C   UNL     1     -41.733  58.239 -54.097  1.00  0.00     0.010 A 
ENDBRANCH   2  23
BRANCH   7  30
HETATM   30  C   UNL     1     -44.802  58.784 -58.689  1.00  0.00     0.085 C 
BRANCH  30  31
HETATM   31  C   UNL     1     -45.449  58.136 -59.917  1.00  0.00     0.034 C 
BRANCH  31  32
HETATM   32  C   UNL     1     -46.530  57.103 -59.602  1.00  0.00     0.164 C 
BRANCH  32  33
HETATM   33  O   UNL     1     -45.996  55.788 -59.563  1.00  0.00    -0.401 OA
HETATM   34  H   UNL     1     -46.412  55.300 -60.304  1.00  0.00     0.209 HD
ENDBRANCH  32  33
ENDBRANCH  31  32
ENDBRANCH  30  31
ENDBRANCH   7  30
TORSDOF 7
ENDMDL
MODEL 2
REMARK VINA RESULT:      -7.8      0.336      1.271
REMARK  7 active torsions:
REMARK  status: ('A' for Active; 'I' for Inactive)
REMARK    1  A    between atoms: C_3  and  N_4 
REMARK       I    between atoms: N_4  and  C_5 
REMARK    2  A    between atoms: C_5  and  C_6 
REMARK    3  A    between atoms: C_7  and  C_8 
REMARK    4  A    between atoms: C_19  and  C_20 
REMARK    5  A    between atoms: C_20  and  C_21 
REMARK    6  A    between atoms: C_21  and  C_22 
REMARK    7  A    between atoms: C_22  and  O_23 
ROOT
HETATM    1  C   UNL     1     -42.526  55.303 -54.430  1.00  0.00     0.062 C 
HETATM    2  C   UNL     1     -43.492  56.489 -54.541  1.00  0.00     0.202 C 
HETATM    3  N   UNL     1     -43.718  56.849 -55.947  1.00  0.00    -0.083 N 
HETATM    4  C   UNL     1     -42.932  56.413 -56.979  1.00  0.00     0.726 A 
HETATM    5  N   UNL     1     -41.973  55.503 -56.736  1.00  0.00    -0.192 N 
HETATM    6  N   UNL     1     -44.644  57.735 -56.372  1.00  0.00    -0.140 NA
HETATM    7  C   UNL     1     -44.313  57.839 -57.667  1.00  0.00     0.166 A 
HETATM    8  N   UNL     1     -43.271  57.035 -58.079  1.00  0.00    -0.046 NA
HETATM    9  C   UNL     1     -41.778  54.908 -55.494  1.00  0.00     0.037 C 
HETATM   10  C   UNL     1     -40.674  53.880 -55.443  1.00  0.00     0.070 C 
HETATM   11  H   UNL     1     -41.397  55.185 -57.511  1.00  0.00     0.184 HD
ENDROOT
BRANCH   1  12
HETATM   12  C   UNL     1     -42.477  54.671 -53.075  1.00  0.00     0.256 C 
HETATM   13  N   UNL     1     -41.273  54.821 -52.428  1.00  0.00    -0.323 N 
HETATM   14  H   UNL     1     -40.479  55.046 -53.015  1.00  0.00     0.169 HD
HETATM   15  O   UNL     1     -43.405  53.969 -52.698  1.00  0.00    -0.267 OA
BRANCH  13  16
HETATM   16  C   UNL     1     -40.965  54.540 -51.075  1.00  0.00     0.041 A 
HETATM   17  C   UNL     1     -40.338  53.378 -50.587  1.00  0.00    -0.035 A 
HETATM   18  C   UNL     1     -39.934  52.195 -51.423  1.00  0.00     0.050 C 
HETATM   19  C   UNL     1     -40.097  53.269 -49.200  1.00  0.00     0.009 A 
HETATM   20  C   UNL     1     -40.516  54.252 -48.307  1.00  0.00     0.001 A 
HETATM   21  C   UNL     1     -41.187  55.368 -48.784  1.00  0.00     0.002 A 
HETATM   22  C   UNL     1     -41.412  55.507 -50.154  1.00  0.00     0.030 A 
ENDBRANCH  13  16
ENDBRANCH   1  12
BRANCH   2  23
HETATM   23  C   UNL     1     -43.014  57.738 -53.795  1.00  0.00    -0.027 A 
HETATM   24  C   UNL     1     -43.816  58.368 -52.824  1.00  0.00     0.028 A 
HETATM   25  C   UNL     1     -43.349  59.498 -52.152  1.00  0.00     0.011 A 
HETATM   26 BR   UNL     1     -44.442  60.330 -50.853  1.00  0.00    -0.051 Br
HETATM   27  C   UNL     1     -42.088  60.018 -52.429  1.00  0.00     0.019 A 
HETATM   28  C   UNL     1     -41.283  59.401 -53.385  1.00  0.00     0.002 A 
HETATM   29  C   UNL     1     -41.741  58.270 -54.062  1.00  0.00     0.010 A 
ENDBRANCH   2  23
BRANCH   7  30
HETATM   30  C   UNL     1     -44.918  58.840 -58.579  1.00  0.00     0.085 C 
BRANCH  30  31
HETATM   31  C   UNL     1     -45.554  58.204 -59.819  1.00  0.00     0.034 C 
BRANCH  31  32
HETATM   32  C   UNL     1     -46.588  57.119 -59.524  1.00  0.00     0.164 C 
BRANCH  32  33
HETATM   33  O   UNL     1     -46.002  55.826 -59.538  1.00  0.00    -0.401 OA
HETATM   34  H   UNL     1     -46.140  55.470 -60.440  1.00  0.00     0.209 HD
ENDBRANCH  32  33
ENDBRANCH  31  32
ENDBRANCH  30  31
ENDBRANCH   7  30
TORSDOF 7
ENDMDL
MODEL 3
REMARK VINA RESULT:      -7.6      3.932      5.622
REMARK  7 active torsions:
REMARK  status: ('A' for Active; 'I' for Inactive)
REMARK    1  A    between atoms: C_3  and  N_4 
REMARK       I    between atoms: N_4  and  C_5 
REMARK    2  A    between atoms: C_5  and  C_6 
REMARK    3  A    between atoms: C_7  and  C_8 
REMARK    4  A    between atoms: C_19  and  C_20 
REMARK    5  A    between atoms: C_20  and  C_21 
REMARK    6  A    between atoms: C_21  and  C_22 
REMARK    7  A    between atoms: C_22  and  O_23 
ROOT
HETATM    1  C   UNL     1     -42.358  58.154 -55.828  1.00  0.00     0.062 C 
HETATM    2  C   UNL     1     -42.323  58.201 -57.361  1.00  0.00     0.202 C 
HETATM    3  N   UNL     1     -41.927  59.534 -57.834  1.00  0.00    -0.083 N 
HETATM    4  C   UNL     1     -41.918  60.649 -57.043  1.00  0.00     0.726 A 
HETATM    5  N   UNL     1     -42.155  60.523 -55.725  1.00  0.00    -0.192 N 
HETATM    6  N   UNL     1     -41.642  59.837 -59.119  1.00  0.00    -0.140 NA
HETATM    7  C   UNL     1     -41.537  61.172 -59.041  1.00  0.00     0.166 A 
HETATM    8  N   UNL     1     -41.693  61.707 -57.780  1.00  0.00    -0.046 NA
HETATM    9  C   UNL     1     -42.336  59.297 -55.093  1.00  0.00     0.037 C 
HETATM   10  C   UNL     1     -42.548  59.373 -53.601  1.00  0.00     0.070 C 
HETATM   11  H   UNL     1     -42.144  61.359 -55.147  1.00  0.00     0.184 HD
ENDROOT
BRANCH   1  12
HETATM   12  C   UNL     1     -42.445  56.776 -55.254  1.00  0.00     0.256 C 
HETATM   13  N   UNL     1     -41.225  56.197 -54.992  1.00  0.00    -0.323 N 
HETATM   14  H   UNL     1     -40.432  56.597 -55.477  1.00  0.00     0.169 HD
HETATM   15  O   UNL     1     -43.529  56.211 -55.192  1.00  0.00    -0.267 OA
BRANCH  13  16
HETATM   16  C   UNL     1     -40.956  55.015 -54.261  1.00  0.00     0.041 A 
HETATM   17  C   UNL     1     -41.061  54.857 -52.867  1.00  0.00    -0.035 A 
HETATM   18  C   UNL     1     -41.427  55.945 -51.895  1.00  0.00     0.050 C 
HETATM   19  C   UNL     1     -40.763  53.597 -52.303  1.00  0.00     0.009 A 
HETATM   20  C   UNL     1     -40.314  52.536 -53.085  1.00  0.00     0.001 A 
HETATM   21  C   UNL     1     -40.154  52.712 -54.451  1.00  0.00     0.002 A 
HETATM   22  C   UNL     1     -40.468  53.942 -55.031  1.00  0.00     0.030 A 
ENDBRANCH  13  16
ENDBRANCH   1  12
BRANCH   2  23
HETATM   23  C   UNL     1     -43.659  57.834 -58.014  1.00  0.00    -0.027 A 
HETATM   24  C   UNL     1     -43.746  56.833 -59.000  1.00  0.00     0.028 A 
HETATM   25  C   UNL     1     -44.979  56.512 -59.569  1.00  0.00     0.011 A 
HETATM   26 BR   UNL     1     -45.074  55.166 -60.892  1.00  0.00    -0.051 Br
HETATM   27  C   UNL     1     -46.138  57.175 -59.173  1.00  0.00     0.019 A 
HETATM   28  C   UNL     1     -46.065  58.165 -58.196  1.00  0.00     0.002 A 
HETATM   29  C   UNL     1     -44.836  58.493 -57.619  1.00  0.00     0.010 A 
ENDBRANCH   2  23
BRANCH   7  30
HETATM   30  C   UNL     1     -41.404  62.043 -60.235  1.00  0.00     0.085 C 
BRANCH  30  31
HETATM   31  C   UNL     1     -40.078  62.810 -60.262  1.00  0.00     0.034 C 
BRANCH  31  32
HETATM   32  C   UNL     1     -39.571  63.164 -61.659  1.00  0.00     0.164 C 
BRANCH  32  33
HETATM   33  O   UNL     1     -40.079  62.269 -62.637  1.00  0.00    -0.401 OA
HETATM   34  H   UNL     1     -39.885  62.674 -63.508  1.00  0.00     0.209 HD
ENDBRANCH  32  33
ENDBRANCH  31  32
ENDBRANCH  30  31
ENDBRANCH   7  30
TORSDOF 7
ENDMDL
MODEL 4
REMARK VINA RESULT:      -7.6      3.155      4.912
REMARK  7 active torsions:
REMARK  status: ('A' for Active; 'I' for Inactive)
REMARK    1  A    between atoms: C_3  and  N_4 
REMARK       I    between atoms: N_4  and  C_5 
REMARK    2  A    between atoms: C_5  and  C_6 
REMARK    3  A    between atoms: C_7  and  C_8 
REMARK    4  A    between atoms: C_19  and  C_20 
REMARK    5  A    between atoms: C_20  and  C_21 
REMARK    6  A    between atoms: C_21  and  C_22 
REMARK    7  A    between atoms: C_22  and  O_23 
ROOT
HETATM    1  C   UNL     1     -42.892  57.331 -54.978  1.00  0.00     0.062 C 
HETATM    2  C   UNL     1     -42.312  57.752 -56.334  1.00  0.00     0.202 C 
HETATM    3  N   UNL     1     -42.259  59.215 -56.448  1.00  0.00    -0.083 N 
HETATM    4  C   UNL     1     -42.933  60.067 -55.616  1.00  0.00     0.726 A 
HETATM    5  N   UNL     1     -43.581  59.568 -54.548  1.00  0.00    -0.192 N 
HETATM    6  N   UNL     1     -41.644  59.884 -57.446  1.00  0.00    -0.140 NA
HETATM    7  C   UNL     1     -42.047  61.137 -57.192  1.00  0.00     0.166 A 
HETATM    8  N   UNL     1     -42.835  61.290 -56.069  1.00  0.00    -0.046 NA
HETATM    9  C   UNL     1     -43.543  58.225 -54.188  1.00  0.00     0.037 C 
HETATM   10  C   UNL     1     -44.304  57.878 -52.931  1.00  0.00     0.070 C 
HETATM   11  H   UNL     1     -44.076  60.211 -53.936  1.00  0.00     0.184 HD
ENDROOT
BRANCH   1  12
HETATM   12  C   UNL     1     -42.700  55.885 -54.646  1.00  0.00     0.256 C 
HETATM   13  N   UNL     1     -41.403  55.547 -54.337  1.00  0.00    -0.323 N 
HETATM   14  H   UNL     1     -40.689  56.190 -54.655  1.00  0.00     0.169 HD
HETATM   15  O   UNL     1     -43.623  55.097 -54.803  1.00  0.00    -0.267 OA
BRANCH  13  16
HETATM   16  C   UNL     1     -40.923  54.338 -53.777  1.00  0.00     0.041 A 
HETATM   17  C   UNL     1     -40.816  54.040 -52.406  1.00  0.00    -0.035 A 
HETATM   18  C   UNL     1     -41.143  54.988 -51.285  1.00  0.00     0.050 C 
HETATM   19  C   UNL     1     -40.324  52.773 -52.023  1.00  0.00     0.009 A 
HETATM   20  C   UNL     1     -39.891  51.844 -52.965  1.00  0.00     0.001 A 
HETATM   21  C   UNL     1     -39.943  52.163 -54.314  1.00  0.00     0.002 A 
HETATM   22  C   UNL     1     -40.450  53.400 -54.714  1.00  0.00     0.030 A 
ENDBRANCH  13  16
ENDBRANCH   1  12
BRANCH   2  23
HETATM   23  C   UNL     1     -43.092  57.202 -57.531  1.00  0.00    -0.027 A 
HETATM   24  C   UNL     1     -44.399  57.638 -57.822  1.00  0.00     0.028 A 
HETATM   25  C   UNL     1     -45.082  57.127 -58.926  1.00  0.00     0.011 A 
HETATM   26 BR   UNL     1     -46.835  57.726 -59.298  1.00  0.00    -0.051 Br
HETATM   27  C   UNL     1     -44.484  56.182 -59.755  1.00  0.00     0.019 A 
HETATM   28  C   UNL     1     -43.189  55.746 -59.480  1.00  0.00     0.002 A 
HETATM   29  C   UNL     1     -42.497  56.251 -58.378  1.00  0.00     0.010 A 
ENDBRANCH   2  23
BRANCH   7  30
HETATM   30  C   UNL     1     -41.794  62.272 -58.113  1.00  0.00     0.085 C 
BRANCH  30  31
HETATM   31  C   UNL     1     -40.796  61.923 -59.221  1.00  0.00     0.034 C 
BRANCH  31  32
HETATM   32  C   UNL     1     -41.430  61.552 -60.561  1.00  0.00     0.164 C 
BRANCH  32  33
HETATM   33  O   UNL     1     -41.753  60.171 -60.618  1.00  0.00    -0.401 OA
HETATM   34  H   UNL     1     -41.105  59.712 -60.043  1.00  0.00     0.209 HD
ENDBRANCH  32  33
ENDBRANCH  31  32
ENDBRANCH  30  31
ENDBRANCH   7  30
TORSDOF 7
ENDMDL
MODEL 5
REMARK VINA RESULT:      -7.4      3.464      5.971
REMARK  7 active torsions:
REMARK  status: ('A' for Active; 'I' for Inactive)
REMARK    1  A    between atoms: C_3  and  N_4 
REMARK       I    between atoms: N_4  and  C_5 
REMARK    2  A    between atoms: C_5  and  C_6 
REMARK    3  A    between atoms: C_7  and  C_8 
REMARK    4  A    between atoms: C_19  and  C_20 
REMARK    5  A    between atoms: C_20  and  C_21 
REMARK    6  A    between atoms: C_21  and  C_22 
REMARK    7  A    between atoms: C_22  and  O_23 
ROOT
HETATM    1  C   UNL     1     -43.056  56.407 -52.339  1.00  0.00     0.062 C 
HETATM    2  C   UNL     1     -42.661  57.666 -53.121  1.00  0.00     0.202 C 
HETATM    3  N   UNL     1     -42.897  58.874 -52.321  1.00  0.00    -0.083 N 
HETATM    4  C   UNL     1     -43.663  58.896 -51.187  1.00  0.00     0.726 A 
HETATM    5  N   UNL     1     -44.129  57.739 -50.684  1.00  0.00    -0.192 N 
HETATM    6  N   UNL     1     -42.492  60.114 -52.667  1.00  0.00    -0.140 NA
HETATM    7  C   UNL     1     -43.109  60.848 -51.730  1.00  0.00     0.166 A 
HETATM    8  N   UNL     1     -43.832  60.134 -50.797  1.00  0.00    -0.046 NA
HETATM    9  C   UNL     1     -43.811  56.492 -51.212  1.00  0.00     0.037 C 
HETATM   10  C   UNL     1     -44.403  55.316 -50.474  1.00  0.00     0.070 C 
HETATM   11  H   UNL     1     -44.695  57.768 -49.841  1.00  0.00     0.184 HD
ENDROOT
BRANCH   1  12
HETATM   12  C   UNL     1     -42.568  55.127 -52.941  1.00  0.00     0.256 C 
HETATM   13  N   UNL     1     -41.322  54.740 -52.506  1.00  0.00    -0.323 N 
HETATM   14  H   UNL     1     -40.750  55.467 -52.096  1.00  0.00     0.169 HD
HETATM   15  O   UNL     1     -43.201  54.602 -53.847  1.00  0.00    -0.267 OA
BRANCH  13  16
HETATM   16  C   UNL     1     -40.673  53.498 -52.705  1.00  0.00     0.041 A 
HETATM   17  C   UNL     1     -40.109  52.684 -51.704  1.00  0.00    -0.035 A 
HETATM   18  C   UNL     1     -40.048  53.026 -50.241  1.00  0.00     0.050 C 
HETATM   19  C   UNL     1     -39.506  51.464 -52.082  1.00  0.00     0.009 A 
HETATM   20  C   UNL     1     -39.407  51.082 -53.417  1.00  0.00     0.001 A 
HETATM   21  C   UNL     1     -39.911  51.914 -54.406  1.00  0.00     0.002 A 
HETATM   22  C   UNL     1     -40.534  53.112 -54.051  1.00  0.00     0.030 A 
ENDBRANCH  13  16
ENDBRANCH   1  12
BRANCH   2  23
HETATM   23  C   UNL     1     -43.402  57.816 -54.453  1.00  0.00    -0.027 A 
HETATM   24  C   UNL     1     -42.717  57.813 -55.682  1.00  0.00     0.028 A 
HETATM   25  C   UNL     1     -43.421  57.941 -56.880  1.00  0.00     0.011 A 
HETATM   26 BR   UNL     1     -42.480  57.936 -58.520  1.00  0.00    -0.051 Br
HETATM   27  C   UNL     1     -44.807  58.072 -56.879  1.00  0.00     0.019 A 
HETATM   28  C   UNL     1     -45.497  58.072 -55.668  1.00  0.00     0.002 A 
HETATM   29  C   UNL     1     -44.802  57.944 -54.464  1.00  0.00     0.010 A 
ENDBRANCH   2  23
BRANCH   7  30
HETATM   30  C   UNL     1     -43.141  62.331 -51.755  1.00  0.00     0.085 C 
BRANCH  30  31
HETATM   31  C   UNL     1     -42.796  62.954 -50.399  1.00  0.00     0.034 C 
BRANCH  31  32
HETATM   32  C   UNL     1     -43.997  63.468 -49.607  1.00  0.00     0.164 C 
BRANCH  32  33
HETATM   33  O   UNL     1     -44.616  62.426 -48.867  1.00  0.00    -0.401 OA
HETATM   34  H   UNL     1     -44.476  61.603 -49.380  1.00  0.00     0.209 HD
ENDBRANCH  32  33
ENDBRANCH  31  32
ENDBRANCH  30  31
ENDBRANCH   7  30
TORSDOF 7
ENDMDL
MODEL 6
REMARK VINA RESULT:      -7.3      3.377      5.397
REMARK  7 active torsions:
REMARK  status: ('A' for Active; 'I' for Inactive)
REMARK    1  A    between atoms: C_3  and  N_4 
REMARK       I    between atoms: N_4  and  C_5 
REMARK    2  A    between atoms: C_5  and  C_6 
REMARK    3  A    between atoms: C_7  and  C_8 
REMARK    4  A    between atoms: C_19  and  C_20 
REMARK    5  A    between atoms: C_20  and  C_21 
REMARK    6  A    between atoms: C_21  and  C_22 
REMARK    7  A    between atoms: C_22  and  O_23 
ROOT
HETATM    1  C   UNL     1     -43.053  56.635 -52.398  1.00  0.00     0.062 C 
HETATM    2  C   UNL     1     -42.655  57.839 -53.260  1.00  0.00     0.202 C 
HETATM    3  N   UNL     1     -42.878  59.097 -52.535  1.00  0.00    -0.083 N 
HETATM    4  C   UNL     1     -43.636  59.196 -51.400  1.00  0.00     0.726 A 
HETATM    5  N   UNL     1     -44.106  58.076 -50.823  1.00  0.00    -0.192 N 
HETATM    6  N   UNL     1     -42.466  60.310 -52.962  1.00  0.00    -0.140 NA
HETATM    7  C   UNL     1     -43.072  61.106 -52.069  1.00  0.00     0.166 A 
HETATM    8  N   UNL     1     -43.794  60.457 -51.089  1.00  0.00    -0.046 NA
HETATM    9  C   UNL     1     -43.800  56.796 -51.273  1.00  0.00     0.037 C 
HETATM   10  C   UNL     1     -44.395  55.673 -50.459  1.00  0.00     0.070 C 
HETATM   11  H   UNL     1     -44.666  58.162 -49.980  1.00  0.00     0.184 HD
ENDROOT
BRANCH   1  12
HETATM   12  C   UNL     1     -42.578  55.316 -52.921  1.00  0.00     0.256 C 
HETATM   13  N   UNL     1     -41.298  54.988 -52.539  1.00  0.00    -0.323 N 
HETATM   14  H   UNL     1     -40.716  55.757 -52.230  1.00  0.00     0.169 HD
HETATM   15  O   UNL     1     -43.257  54.705 -53.735  1.00  0.00    -0.267 OA
BRANCH  13  16
HETATM   16  C   UNL     1     -40.636  53.744 -52.675  1.00  0.00     0.041 A 
HETATM   17  C   UNL     1     -40.180  53.171 -53.877  1.00  0.00    -0.035 A 
HETATM   18  C   UNL     1     -40.370  53.763 -55.246  1.00  0.00     0.050 C 
HETATM   19  C   UNL     1     -39.526  51.921 -53.827  1.00  0.00     0.009 A 
HETATM   20  C   UNL     1     -39.378  51.222 -52.631  1.00  0.00     0.001 A 
HETATM   21  C   UNL     1     -39.882  51.762 -51.457  1.00  0.00     0.002 A 
HETATM   22  C   UNL     1     -40.508  53.009 -51.481  1.00  0.00     0.030 A 
ENDBRANCH  13  16
ENDBRANCH   1  12
BRANCH   2  23
HETATM   23  C   UNL     1     -43.404  57.911 -54.593  1.00  0.00    -0.027 A 
HETATM   24  C   UNL     1     -42.727  57.823 -55.824  1.00  0.00     0.028 A 
HETATM   25  C   UNL     1     -43.438  57.881 -57.024  1.00  0.00     0.011 A 
HETATM   26 BR   UNL     1     -42.509  57.763 -58.666  1.00  0.00    -0.051 Br
HETATM   27  C   UNL     1     -44.823  58.023 -57.022  1.00  0.00     0.019 A 
HETATM   28  C   UNL     1     -45.505  58.107 -55.810  1.00  0.00     0.002 A 
HETATM   29  C   UNL     1     -44.803  58.050 -54.604  1.00  0.00     0.010 A 
ENDBRANCH   2  23
BRANCH   7  30
HETATM   30  C   UNL     1     -43.094  62.585 -52.188  1.00  0.00     0.085 C 
BRANCH  30  31
HETATM   31  C   UNL     1     -44.115  63.081 -53.217  1.00  0.00     0.034 C 
BRANCH  31  32
HETATM   32  C   UNL     1     -43.512  63.568 -54.534  1.00  0.00     0.164 C 
BRANCH  32  33
HETATM   33  O   UNL     1     -42.708  62.566 -55.138  1.00  0.00    -0.401 OA
HETATM   34  H   UNL     1     -42.526  62.872 -56.051  1.00  0.00     0.209 HD
ENDBRANCH  32  33
ENDBRANCH  31  32
ENDBRANCH  30  31
ENDBRANCH   7  30
TORSDOF 7
ENDMDL
MODEL 7
REMARK VINA RESULT:      -7.1      1.210      1.818
REMARK  7 active torsions:
REMARK  status: ('A' for Active; 'I' for Inactive)
REMARK    1  A    between atoms: C_3  and  N_4 
REMARK       I    between atoms: N_4  and  C_5 
REMARK    2  A    between atoms: C_5  and  C_6 
REMARK    3  A    between atoms: C_7  and  C_8 
REMARK    4  A    between atoms: C_19  and  C_20 
REMARK    5  A    between atoms: C_20  and  C_21 
REMARK    6  A    between atoms: C_21  and  C_22 
REMARK    7  A    between atoms: C_22  and  O_23 
ROOT
HETATM    1  C   UNL     1     -42.616  55.467 -54.396  1.00  0.00     0.062 C 
HETATM    2  C   UNL     1     -43.664  56.586 -54.454  1.00  0.00     0.202 C 
HETATM    3  N   UNL     1     -43.900  57.011 -55.840  1.00  0.00    -0.083 N 
HETATM    4  C   UNL     1     -43.073  56.693 -56.883  1.00  0.00     0.726 A 
HETATM    5  N   UNL     1     -42.053  55.841 -56.679  1.00  0.00    -0.192 N 
HETATM    6  N   UNL     1     -44.882  57.852 -56.227  1.00  0.00    -0.140 NA
HETATM    7  C   UNL     1     -44.546  58.054 -57.509  1.00  0.00     0.166 A 
HETATM    8  N   UNL     1     -43.443  57.353 -57.951  1.00  0.00    -0.046 NA
HETATM    9  C   UNL     1     -41.829  55.190 -55.470  1.00  0.00     0.037 C 
HETATM   10  C   UNL     1     -40.655  54.242 -55.462  1.00  0.00     0.070 C 
HETATM   11  H   UNL     1     -41.447  55.612 -57.461  1.00  0.00     0.184 HD
ENDROOT
BRANCH   1  12
HETATM   12  C   UNL     1     -42.537  54.763 -53.079  1.00  0.00     0.256 C 
HETATM   13  N   UNL     1     -41.335  54.919 -52.429  1.00  0.00    -0.323 N 
HETATM   14  H   UNL     1     -40.553  55.206 -53.005  1.00  0.00     0.169 HD
HETATM   15  O   UNL     1     -43.436  54.006 -52.740  1.00  0.00    -0.267 OA
BRANCH  13  16
HETATM   16  C   UNL     1     -41.010  54.575 -51.095  1.00  0.00     0.041 A 
HETATM   17  C   UNL     1     -40.391  53.385 -50.670  1.00  0.00    -0.035 A 
HETATM   18  C   UNL     1     -40.015  52.235 -51.565  1.00  0.00     0.050 C 
HETATM   19  C   UNL     1     -40.129  53.210 -49.294  1.00  0.00     0.009 A 
HETATM   20  C   UNL     1     -40.522  54.157 -48.351  1.00  0.00     0.001 A 
HETATM   21  C   UNL     1     -41.185  55.302 -48.766  1.00  0.00     0.002 A 
HETATM   22  C   UNL     1     -41.430  55.505 -50.125  1.00  0.00     0.030 A 
ENDBRANCH  13  16
ENDBRANCH   1  12
BRANCH   2  23
HETATM   23  C   UNL     1     -43.286  57.820 -53.629  1.00  0.00    -0.027 A 
HETATM   24  C   UNL     1     -44.162  58.363 -52.671  1.00  0.00     0.028 A 
HETATM   25  C   UNL     1     -43.786  59.482 -51.927  1.00  0.00     0.011 A 
HETATM   26 BR   UNL     1     -44.979  60.196 -50.647  1.00  0.00    -0.051 Br
HETATM   27  C   UNL     1     -42.541  60.076 -52.118  1.00  0.00     0.019 A 
HETATM   28  C   UNL     1     -41.663  59.545 -53.061  1.00  0.00     0.002 A 
HETATM   29  C   UNL     1     -42.030  58.425 -53.810  1.00  0.00     0.010 A 
ENDBRANCH   2  23
BRANCH   7  30
HETATM   30  C   UNL     1     -45.211  59.062 -58.370  1.00  0.00     0.085 C 
BRANCH  30  31
HETATM   31  C   UNL     1     -45.909  60.162 -57.564  1.00  0.00     0.034 C 
BRANCH  31  32
HETATM   32  C   UNL     1     -47.307  60.529 -58.059  1.00  0.00     0.164 C 
BRANCH  32  33
HETATM   33  O   UNL     1     -48.295  59.672 -57.507  1.00  0.00    -0.401 OA
HETATM   34  H   UNL     1     -47.999  59.459 -56.598  1.00  0.00     0.209 HD
ENDBRANCH  32  33
ENDBRANCH  31  32
ENDBRANCH  30  31
ENDBRANCH   7  30
TORSDOF 7
ENDMDL
MODEL 8
REMARK VINA RESULT:      -7.1      3.136      7.635
REMARK  7 active torsions:
REMARK  status: ('A' for Active; 'I' for Inactive)
REMARK    1  A    between atoms: C_3  and  N_4 
REMARK       I    between atoms: N_4  and  C_5 
REMARK    2  A    between atoms: C_5  and  C_6 
REMARK    3  A    between atoms: C_7  and  C_8 
REMARK    4  A    between atoms: C_19  and  C_20 
REMARK    5  A    between atoms: C_20  and  C_21 
REMARK    6  A    between atoms: C_21  and  C_22 
REMARK    7  A    between atoms: C_22  and  O_23 
ROOT
HETATM    1  C   UNL     1     -42.787  57.896 -56.766  1.00  0.00     0.062 C 
HETATM    2  C   UNL     1     -41.801  57.597 -55.629  1.00  0.00     0.202 C 
HETATM    3  N   UNL     1     -41.688  56.150 -55.403  1.00  0.00    -0.083 N 
HETATM    4  C   UNL     1     -42.573  55.232 -55.898  1.00  0.00     0.726 A 
HETATM    5  N   UNL     1     -43.533  55.636 -56.749  1.00  0.00    -0.192 N 
HETATM    6  N   UNL     1     -40.778  55.571 -54.592  1.00  0.00    -0.140 NA
HETATM    7  C   UNL     1     -41.217  54.304 -54.590  1.00  0.00     0.166 A 
HETATM    8  N   UNL     1     -42.314  54.056 -55.388  1.00  0.00    -0.046 NA
HETATM    9  C   UNL     1     -43.636  56.939 -57.225  1.00  0.00     0.037 C 
HETATM   10  C   UNL     1     -44.760  57.175 -58.204  1.00  0.00     0.070 C 
HETATM   11  H   UNL     1     -44.184  54.945 -57.111  1.00  0.00     0.184 HD
ENDROOT
BRANCH   1  12
HETATM   12  C   UNL     1     -42.736  59.302 -57.274  1.00  0.00     0.256 C 
HETATM   13  N   UNL     1     -41.635  59.581 -58.050  1.00  0.00    -0.323 N 
HETATM   14  H   UNL     1     -40.849  58.950 -57.947  1.00  0.00     0.169 HD
HETATM   15  O   UNL     1     -43.550  60.122 -56.873  1.00  0.00    -0.267 OA
BRANCH  13  16
HETATM   16  C   UNL     1     -41.394  60.724 -58.849  1.00  0.00     0.041 A 
HETATM   17  C   UNL     1     -41.746  60.882 -60.202  1.00  0.00    -0.035 A 
HETATM   18  C   UNL     1     -42.396  59.830 -61.058  1.00  0.00     0.050 C 
HETATM   19  C   UNL     1     -41.437  62.101 -60.845  1.00  0.00     0.009 A 
HETATM   20  C   UNL     1     -40.744  63.116 -60.190  1.00  0.00     0.001 A 
HETATM   21  C   UNL     1     -40.346  62.934 -58.874  1.00  0.00     0.002 A 
HETATM   22  C   UNL     1     -40.664  61.746 -58.213  1.00  0.00     0.030 A 
ENDBRANCH  13  16
ENDBRANCH   1  12
BRANCH   2  23
HETATM   23  C   UNL     1     -42.176  58.265 -54.304  1.00  0.00    -0.027 A 
HETATM   24  C   UNL     1     -43.269  57.819 -53.537  1.00  0.00     0.028 A 
HETATM   25  C   UNL     1     -43.580  58.441 -52.327  1.00  0.00     0.011 A 
HETATM   26 BR   UNL     1     -45.053  57.827 -51.314  1.00  0.00    -0.051 Br
HETATM   27  C   UNL     1     -42.816  59.507 -51.860  1.00  0.00     0.019 A 
HETATM   28  C   UNL     1     -41.730  59.955 -52.608  1.00  0.00     0.002 A 
HETATM   29  C   UNL     1     -41.410  59.340 -53.819  1.00  0.00     0.010 A 
ENDBRANCH   2  23
BRANCH   7  30
HETATM   30  C   UNL     1     -40.665  53.258 -53.694  1.00  0.00     0.085 C 
BRANCH  30  31
HETATM   31  C   UNL     1     -40.545  51.894 -54.381  1.00  0.00     0.034 C 
BRANCH  31  32
HETATM   32  C   UNL     1     -39.626  50.899 -53.674  1.00  0.00     0.164 C 
BRANCH  32  33
HETATM   33  O   UNL     1     -39.782  49.588 -54.195  1.00  0.00    -0.401 OA
HETATM   34  H   UNL     1     -39.762  48.981 -53.425  1.00  0.00     0.209 HD
ENDBRANCH  32  33
ENDBRANCH  31  32
ENDBRANCH  30  31
ENDBRANCH   7  30
TORSDOF 7
ENDMDL
MODEL 9
REMARK VINA RESULT:      -7.0      3.414      6.801
REMARK  7 active torsions:
REMARK  status: ('A' for Active; 'I' for Inactive)
REMARK    1  A    between atoms: C_3  and  N_4 
REMARK       I    between atoms: N_4  and  C_5 
REMARK    2  A    between atoms: C_5  and  C_6 
REMARK    3  A    between atoms: C_7  and  C_8 
REMARK    4  A    between atoms: C_19  and  C_20 
REMARK    5  A    between atoms: C_20  and  C_21 
REMARK    6  A    between atoms: C_21  and  C_22 
REMARK    7  A    between atoms: C_22  and  O_23 
ROOT
HETATM    1  C   UNL     1     -43.042  56.935 -51.698  1.00  0.00     0.062 C 
HETATM    2  C   UNL     1     -43.383  55.996 -52.862  1.00  0.00     0.202 C 
HETATM    3  N   UNL     1     -42.425  54.884 -52.934  1.00  0.00    -0.083 N 
HETATM    4  C   UNL     1     -41.224  54.872 -52.278  1.00  0.00     0.726 A 
HETATM    5  N   UNL     1     -40.938  55.859 -51.411  1.00  0.00    -0.192 N 
HETATM    6  N   UNL     1     -42.558  53.809 -53.739  1.00  0.00    -0.140 NA
HETATM    7  C   UNL     1     -41.365  53.221 -53.569  1.00  0.00     0.166 A 
HETATM    8  N   UNL     1     -40.521  53.842 -52.672  1.00  0.00    -0.046 NA
HETATM    9  C   UNL     1     -41.835  56.869 -51.077  1.00  0.00     0.037 C 
HETATM   10  C   UNL     1     -41.333  57.856 -50.051  1.00  0.00     0.070 C 
HETATM   11  H   UNL     1     -40.044  55.839 -50.928  1.00  0.00     0.184 HD
ENDROOT
BRANCH   1  12
HETATM   12  C   UNL     1     -44.123  57.909 -51.354  1.00  0.00     0.256 C 
HETATM   13  N   UNL     1     -43.866  59.200 -51.753  1.00  0.00    -0.323 N 
HETATM   14  H   UNL     1     -42.896  59.421 -51.941  1.00  0.00     0.169 HD
HETATM   15  O   UNL     1     -45.056  57.556 -50.645  1.00  0.00    -0.267 OA
BRANCH  13  16
HETATM   16  C   UNL     1     -44.754  60.302 -51.778  1.00  0.00     0.041 A 
HETATM   17  C   UNL     1     -44.855  61.312 -50.803  1.00  0.00    -0.035 A 
HETATM   18  C   UNL     1     -44.066  61.363 -49.523  1.00  0.00     0.050 C 
HETATM   19  C   UNL     1     -45.794  62.349 -50.994  1.00  0.00     0.009 A 
HETATM   20  C   UNL     1     -46.655  62.360 -52.089  1.00  0.00     0.001 A 
HETATM   21  C   UNL     1     -46.594  61.331 -53.018  1.00  0.00     0.002 A 
HETATM   22  C   UNL     1     -45.655  60.311 -52.860  1.00  0.00     0.030 A 
ENDBRANCH  13  16
ENDBRANCH   1  12
BRANCH   2  23
HETATM   23  C   UNL     1     -43.413  56.696 -54.223  1.00  0.00    -0.027 A 
HETATM   24  C   UNL     1     -44.625  57.088 -54.823  1.00  0.00     0.028 A 
HETATM   25  C   UNL     1     -44.621  57.734 -56.060  1.00  0.00     0.011 A 
HETATM   26 BR   UNL     1     -46.259  58.251 -56.848  1.00  0.00    -0.051 Br
HETATM   27  C   UNL     1     -43.423  58.001 -56.717  1.00  0.00     0.019 A 
HETATM   28  C   UNL     1     -42.217  57.622 -56.132  1.00  0.00     0.002 A 
HETATM   29  C   UNL     1     -42.210  56.975 -54.894  1.00  0.00     0.010 A 
ENDBRANCH   2  23
BRANCH   7  30
HETATM   30  C   UNL     1     -40.910  52.066 -54.380  1.00  0.00     0.085 C 
BRANCH  30  31
HETATM   31  C   UNL     1     -39.711  51.342 -53.758  1.00  0.00     0.034 C 
BRANCH  31  32
HETATM   32  C   UNL     1     -39.593  49.864 -54.129  1.00  0.00     0.164 C 
BRANCH  32  33
HETATM   33  O   UNL     1     -39.431  49.051 -52.976  1.00  0.00    -0.401 OA
HETATM   34  H   UNL     1     -40.325  48.936 -52.592  1.00  0.00     0.209 HD
ENDBRANCH  32  33
ENDBRANCH  31  32
ENDBRANCH  30  31
ENDBRANCH   7  30
TORSDOF 7
ENDMDL
MODEL 10
REMARK VINA RESULT:      -6.8     16.801     20.287
REMARK  7 active torsions:
REMARK  status: ('A' for Active; 'I' for Inactive)
REMARK    1  A    between atoms: C_3  and  N_4 
REMARK       I    between atoms: N_4  and  C_5 
REMARK    2  A    between atoms: C_5  and  C_6 
REMARK    3  A    between atoms: C_7  and  C_8 
REMARK    4  A    between atoms: C_19  and  C_20 
REMARK    5  A    between atoms: C_20  and  C_21 
REMARK    6  A    between atoms: C_21  and  C_22 
REMARK    7  A    between atoms: C_22  and  O_23 
ROOT
HETATM    1  C   UNL     1     -33.216  39.372 -54.780  1.00  0.00     0.062 C 
HETATM    2  C   UNL     1     -33.358  40.325 -53.587  1.00  0.00     0.202 C 
HETATM    3  N   UNL     1     -32.635  39.810 -52.417  1.00  0.00    -0.083 N 
HETATM    4  C   UNL     1     -32.188  38.521 -52.307  1.00  0.00     0.726 A 
HETATM    5  N   UNL     1     -32.288  37.698 -53.366  1.00  0.00    -0.192 N 
HETATM    6  N   UNL     1     -32.432  40.501 -51.275  1.00  0.00    -0.140 NA
HETATM    7  C   UNL     1     -31.916  39.543 -50.492  1.00  0.00     0.166 A 
HETATM    8  N   UNL     1     -31.743  38.314 -51.094  1.00  0.00    -0.046 NA
HETATM    9  C   UNL     1     -32.755  38.104 -54.611  1.00  0.00     0.037 C 
HETATM   10  C   UNL     1     -32.748  37.036 -55.677  1.00  0.00     0.070 C 
HETATM   11  H   UNL     1     -31.951  36.743 -53.273  1.00  0.00     0.184 HD
ENDROOT
BRANCH   1  12
HETATM   12  C   UNL     1     -33.649  39.952 -56.089  1.00  0.00     0.256 C 
HETATM   13  N   UNL     1     -34.939  39.636 -56.446  1.00  0.00    -0.323 N 
HETATM   14  H   UNL     1     -35.342  38.831 -55.983  1.00  0.00     0.169 HD
HETATM   15  O   UNL     1     -32.831  40.519 -56.801  1.00  0.00    -0.267 OA
BRANCH  13  16
HETATM   16  C   UNL     1     -35.717  40.187 -57.492  1.00  0.00     0.041 A 
HETATM   17  C   UNL     1     -36.023  39.567 -58.717  1.00  0.00    -0.035 A 
HETATM   18  C   UNL     1     -35.521  38.218 -59.156  1.00  0.00     0.050 C 
HETATM   19  C   UNL     1     -36.827  40.261 -59.647  1.00  0.00     0.009 A 
HETATM   20  C   UNL     1     -37.271  41.558 -59.403  1.00  0.00     0.001 A 
HETATM   21  C   UNL     1     -36.919  42.190 -58.219  1.00  0.00     0.002 A 
HETATM   22  C   UNL     1     -36.146  41.511 -57.276  1.00  0.00     0.030 A 
ENDBRANCH  13  16
ENDBRANCH   1  12
BRANCH   2  23
HETATM   23  C   UNL     1     -34.811  40.584 -53.180  1.00  0.00    -0.027 A 
HETATM   24  C   UNL     1     -35.529  39.669 -52.386  1.00  0.00     0.028 A 
HETATM   25  C   UNL     1     -36.849  39.937 -52.022  1.00  0.00     0.011 A 
HETATM   26 BR   UNL     1     -37.794  38.694 -50.957  1.00  0.00    -0.051 Br
HETATM   27  C   UNL     1     -37.475  41.110 -52.436  1.00  0.00     0.019 A 
HETATM   28  C   UNL     1     -36.774  42.025 -53.219  1.00  0.00     0.002 A 
HETATM   29  C   UNL     1     -35.453  41.767 -53.587  1.00  0.00     0.010 A 
ENDBRANCH   2  23
BRANCH   7  30
HETATM   30  C   UNL     1     -31.670  39.729 -49.041  1.00  0.00     0.085 C 
BRANCH  30  31
HETATM   31  C   UNL     1     -32.611  38.892 -48.169  1.00  0.00     0.034 C 
BRANCH  31  32
HETATM   32  C   UNL     1     -31.959  37.683 -47.500  1.00  0.00     0.164 C 
BRANCH  32  33
HETATM   33  O   UNL     1     -31.580  36.703 -48.455  1.00  0.00    -0.401 OA
HETATM   34  H   UNL     1     -31.677  37.123 -49.335  1.00  0.00     0.209 HD
ENDBRANCH  32  33
ENDBRANCH  31  32
ENDBRANCH  30  31
ENDBRANCH   7  30
TORSDOF 7
ENDMDL
