MODEL 1
REMARK VINA RESULT:      -8.1      0.000      0.000
REMARK  10 active torsions:
REMARK  status: ('A' for Active; 'I' for Inactive)
REMARK    1  A    between atoms: C_4  and  C_5 
REMARK    2  A    between atoms: C_7  and  C_8 
REMARK    3  A    between atoms: C_8  and  C_9 
REMARK       I    between atoms: C_9  and  N_10 
REMARK    4  A    between atoms: N_10  and  C_11 
REMARK    5  A    between atoms: C_11  and  C_12 
REMARK    6  A    between atoms: C_12  and  N_13 
REMARK    7  A    between atoms: C_24  and  C_25 
REMARK    8  A    between atoms: C_25  and  O_26 
REMARK    9  A    between atoms: O_26  and  C_27 
REMARK   10  A    between atoms: C_27  and  C_28 
ROOT
HETATM    1  C   UNL     1     -42.556  57.636 -53.507  1.00  0.00     0.166 C 
HETATM    2  N   UNL     1     -43.808  58.472 -53.537  1.00  0.00    -0.318 N 
HETATM    3  C   UNL     1     -44.600  59.069 -52.692  1.00  0.00     0.011 C 
HETATM    4  C   UNL     1     -44.202  58.856 -54.997  1.00  0.00     0.170 C 
HETATM    5  S   UNL     1     -45.357  60.139 -55.074  1.00  0.00    -0.086 SA
HETATM    6  C   UNL     1     -45.540  60.108 -53.291  1.00  0.00     0.135 C 
HETATM    7  N   UNL     1     -43.780  58.288 -56.063  1.00  0.00    -0.229 NA
HETATM    8  C   UNL     1     -42.901  57.241 -55.962  1.00  0.00     0.048 C 
HETATM    9  C   UNL     1     -42.571  56.630 -57.307  1.00  0.00     0.071 C 
HETATM   10  C   UNL     1     -42.326  56.879 -54.793  1.00  0.00     0.069 C 
ENDROOT
BRANCH   3  11
HETATM   11  C   UNL     1     -44.586  58.886 -51.194  1.00  0.00     0.156 C 
BRANCH  11  12
HETATM   12  C   UNL     1     -44.048  60.109 -50.461  1.00  0.00     0.223 C 
HETATM   13  N   UNL     1     -44.715  60.454 -49.315  1.00  0.00    -0.359 N 
HETATM   14  H   UNL     1     -45.631  60.035 -49.163  1.00  0.00     0.162 HD
HETATM   15  O   UNL     1     -43.059  60.724 -50.855  1.00  0.00    -0.273 OA
BRANCH  13  16
HETATM   16  C   UNL     1     -44.474  61.695 -48.569  1.00  0.00     0.150 C 
BRANCH  16  17
HETATM   17  C   UNL     1     -45.178  61.819 -47.195  1.00  0.00     0.253 C 
BRANCH  17  18
HETATM   18  N   UNL     1     -45.012  60.583 -46.333  1.00  0.00    -0.077 N 
HETATM   19  H   UNL     1     -44.339  59.963 -46.827  1.00  0.00     0.279 HD
HETATM   20  C   UNL     1     -44.415  60.864 -44.980  1.00  0.00     0.269 C 
HETATM   21  C   UNL     1     -46.295  59.811 -46.197  1.00  0.00     0.269 C 
ENDBRANCH  17  18
ENDBRANCH  16  17
ENDBRANCH  13  16
ENDBRANCH  11  12
ENDBRANCH   3  11
BRANCH   1  22
HETATM   22  C   UNL     1     -42.383  56.860 -52.207  1.00  0.00    -0.024 A 
HETATM   23  C   UNL     1     -43.283  55.783 -51.989  1.00  0.00     0.017 A 
HETATM   24  C   UNL     1     -43.186  54.948 -50.871  1.00  0.00    -0.061 A 
HETATM   25  C   UNL     1     -44.164  53.825 -50.669  1.00  0.00     0.048 C 
HETATM   26  C   UNL     1     -42.215  55.225 -49.914  1.00  0.00     0.007 A 
HETATM   27  C   UNL     1     -41.336  56.297 -50.091  1.00  0.00     0.008 A 
HETATM   28  C   UNL     1     -41.386  57.111 -51.239  1.00  0.00    -0.053 A 
HETATM   29  C   UNL     1     -40.406  58.252 -51.309  1.00  0.00     0.049 C 
ENDBRANCH   1  22
BRANCH  10  30
HETATM   30  C   UNL     1     -41.281  55.829 -54.772  1.00  0.00     0.294 C 
HETATM   31  O   UNL     1     -40.094  56.096 -54.825  1.00  0.00    -0.259 OA
BRANCH  30  32
HETATM   32  O   UNL     1     -41.845  54.611 -54.640  1.00  0.00    -0.313 OA
BRANCH  32  33
HETATM   33  C   UNL     1     -41.054  53.512 -55.121  1.00  0.00     0.217 C 
BRANCH  33  34
HETATM   34  C   UNL     1     -40.548  52.740 -53.926  1.00  0.00    -0.034 A 
HETATM   35  C   UNL     1     -40.092  51.420 -54.072  1.00  0.00     0.009 A 
HETATM   36  C   UNL     1     -39.622  50.700 -52.972  1.00  0.00     0.001 A 
HETATM   37  C   UNL     1     -39.586  51.295 -51.715  1.00  0.00     0.000 A 
HETATM   38  C   UNL     1     -40.021  52.610 -51.556  1.00  0.00     0.001 A 
HETATM   39  C   UNL     1     -40.502  53.328 -52.655  1.00  0.00     0.009 A 
ENDBRANCH  33  34
ENDBRANCH  32  33
ENDBRANCH  30  32
ENDBRANCH  10  30
TORSDOF 10
ENDMDL
MODEL 2
REMARK VINA RESULT:      -7.9      2.314      3.706
REMARK  10 active torsions:
REMARK  status: ('A' for Active; 'I' for Inactive)
REMARK    1  A    between atoms: C_4  and  C_5 
REMARK    2  A    between atoms: C_7  and  C_8 
REMARK    3  A    between atoms: C_8  and  C_9 
REMARK       I    between atoms: C_9  and  N_10 
REMARK    4  A    between atoms: N_10  and  C_11 
REMARK    5  A    between atoms: C_11  and  C_12 
REMARK    6  A    between atoms: C_12  and  N_13 
REMARK    7  A    between atoms: C_24  and  C_25 
REMARK    8  A    between atoms: C_25  and  O_26 
REMARK    9  A    between atoms: O_26  and  C_27 
REMARK   10  A    between atoms: C_27  and  C_28 
ROOT
HETATM    1  C   UNL     1     -41.710  57.227 -54.309  1.00  0.00     0.166 C 
HETATM    2  N   UNL     1     -42.239  58.040 -55.460  1.00  0.00    -0.318 N 
HETATM    3  C   UNL     1     -42.352  59.294 -55.796  1.00  0.00     0.011 C 
HETATM    4  C   UNL     1     -42.645  57.130 -56.662  1.00  0.00     0.170 C 
HETATM    5  S   UNL     1     -42.852  58.005 -58.137  1.00  0.00    -0.086 SA
HETATM    6  C   UNL     1     -42.638  59.559 -57.269  1.00  0.00     0.135 C 
HETATM    7  N   UNL     1     -42.856  55.870 -56.611  1.00  0.00    -0.229 NA
HETATM    8  C   UNL     1     -42.728  55.215 -55.412  1.00  0.00     0.048 C 
HETATM    9  C   UNL     1     -43.097  53.751 -55.510  1.00  0.00     0.071 C 
HETATM   10  C   UNL     1     -42.228  55.809 -54.306  1.00  0.00     0.069 C 
ENDROOT
BRANCH   3  11
HETATM   11  C   UNL     1     -42.127  60.472 -54.880  1.00  0.00     0.156 C 
BRANCH  11  12
HETATM   12  C   UNL     1     -43.431  61.093 -54.395  1.00  0.00     0.223 C 
HETATM   13  N   UNL     1     -43.314  61.991 -53.367  1.00  0.00    -0.359 N 
HETATM   14  H   UNL     1     -42.432  62.007 -52.857  1.00  0.00     0.162 HD
HETATM   15  O   UNL     1     -44.513  60.828 -54.915  1.00  0.00    -0.273 OA
BRANCH  13  16
HETATM   16  C   UNL     1     -44.456  62.556 -52.638  1.00  0.00     0.150 C 
BRANCH  16  17
HETATM   17  C   UNL     1     -44.463  62.348 -51.103  1.00  0.00     0.253 C 
BRANCH  17  18
HETATM   18  N   UNL     1     -45.718  61.656 -50.607  1.00  0.00    -0.077 N 
HETATM   19  H   UNL     1     -46.397  62.406 -50.367  1.00  0.00     0.279 HD
HETATM   20  C   UNL     1     -46.385  60.794 -51.646  1.00  0.00     0.269 C 
HETATM   21  C   UNL     1     -45.472  60.873 -49.346  1.00  0.00     0.269 C 
ENDBRANCH  17  18
ENDBRANCH  16  17
ENDBRANCH  13  16
ENDBRANCH  11  12
ENDBRANCH   3  11
BRANCH   1  22
HETATM   22  C   UNL     1     -41.736  57.977 -52.983  1.00  0.00    -0.024 A 
HETATM   23  C   UNL     1     -40.477  58.361 -52.449  1.00  0.00     0.017 A 
HETATM   24  C   UNL     1     -40.365  59.115 -51.276  1.00  0.00    -0.061 A 
HETATM   25  C   UNL     1     -39.014  59.492 -50.736  1.00  0.00     0.048 C 
HETATM   26  C   UNL     1     -41.526  59.443 -50.581  1.00  0.00     0.007 A 
HETATM   27  C   UNL     1     -42.775  59.053 -51.071  1.00  0.00     0.008 A 
HETATM   28  C   UNL     1     -42.905  58.342 -52.279  1.00  0.00    -0.053 A 
HETATM   29  C   UNL     1     -44.299  57.952 -52.694  1.00  0.00     0.049 C 
ENDBRANCH   1  22
BRANCH  10  30
HETATM   30  C   UNL     1     -41.987  55.013 -53.079  1.00  0.00     0.294 C 
HETATM   31  O   UNL     1     -42.868  54.787 -52.270  1.00  0.00    -0.259 OA
BRANCH  30  32
HETATM   32  O   UNL     1     -40.713  54.572 -53.052  1.00  0.00    -0.313 OA
BRANCH  32  33
HETATM   33  C   UNL     1     -40.379  53.727 -51.939  1.00  0.00     0.217 C 
BRANCH  33  34
HETATM   34  C   UNL     1     -40.122  52.335 -52.467  1.00  0.00    -0.034 A 
HETATM   35  C   UNL     1     -39.753  51.299 -51.595  1.00  0.00     0.009 A 
HETATM   36  C   UNL     1     -39.515  50.010 -52.076  1.00  0.00     0.001 A 
HETATM   37  C   UNL     1     -39.659  49.736 -53.433  1.00  0.00     0.000 A 
HETATM   38  C   UNL     1     -40.039  50.751 -54.309  1.00  0.00     0.001 A 
HETATM   39  C   UNL     1     -40.267  52.044 -53.831  1.00  0.00     0.009 A 
ENDBRANCH  33  34
ENDBRANCH  32  33
ENDBRANCH  30  32
ENDBRANCH  10  30
TORSDOF 10
ENDMDL
MODEL 3
REMARK VINA RESULT:      -7.5      1.872      3.120
REMARK  10 active torsions:
REMARK  status: ('A' for Active; 'I' for Inactive)
REMARK    1  A    between atoms: C_4  and  C_5 
REMARK    2  A    between atoms: C_7  and  C_8 
REMARK    3  A    between atoms: C_8  and  C_9 
REMARK       I    between atoms: C_9  and  N_10 
REMARK    4  A    between atoms: N_10  and  C_11 
REMARK    5  A    between atoms: C_11  and  C_12 
REMARK    6  A    between atoms: C_12  and  N_13 
REMARK    7  A    between atoms: C_24  and  C_25 
REMARK    8  A    between atoms: C_25  and  O_26 
REMARK    9  A    between atoms: O_26  and  C_27 
REMARK   10  A    between atoms: C_27  and  C_28 
ROOT
HETATM    1  C   UNL     1     -41.848  58.295 -54.895  1.00  0.00     0.166 C 
HETATM    2  N   UNL     1     -42.708  59.435 -55.373  1.00  0.00    -0.318 N 
HETATM    3  C   UNL     1     -43.035  60.636 -54.987  1.00  0.00     0.011 C 
HETATM    4  C   UNL     1     -43.261  59.168 -56.808  1.00  0.00     0.170 C 
HETATM    5  S   UNL     1     -43.888  60.587 -57.568  1.00  0.00    -0.086 SA
HETATM    6  C   UNL     1     -43.668  61.521 -56.054  1.00  0.00     0.135 C 
HETATM    7  N   UNL     1     -43.310  58.032 -57.395  1.00  0.00    -0.229 NA
HETATM    8  C   UNL     1     -42.846  56.919 -56.742  1.00  0.00     0.048 C 
HETATM    9  C   UNL     1     -43.057  55.651 -57.540  1.00  0.00     0.071 C 
HETATM   10  C   UNL     1     -42.187  56.985 -55.565  1.00  0.00     0.069 C 
ENDROOT
BRANCH   3  11
HETATM   11  C   UNL     1     -42.751  61.231 -53.630  1.00  0.00     0.156 C 
BRANCH  11  12
HETATM   12  C   UNL     1     -43.940  61.124 -52.684  1.00  0.00     0.223 C 
HETATM   13  N   UNL     1     -43.676  61.389 -51.366  1.00  0.00    -0.359 N 
HETATM   14  H   UNL     1     -42.698  61.405 -51.079  1.00  0.00     0.162 HD
HETATM   15  O   UNL     1     -45.070  60.851 -53.084  1.00  0.00    -0.273 OA
BRANCH  13  16
HETATM   16  C   UNL     1     -44.633  61.163 -50.277  1.00  0.00     0.150 C 
BRANCH  16  17
HETATM   17  C   UNL     1     -44.293  61.819 -48.916  1.00  0.00     0.253 C 
BRANCH  17  18
HETATM   18  N   UNL     1     -45.510  62.007 -48.030  1.00  0.00    -0.077 N 
HETATM   19  H   UNL     1     -45.269  62.751 -47.345  1.00  0.00     0.279 HD
HETATM   20  C   UNL     1     -46.729  62.490 -48.771  1.00  0.00     0.269 C 
HETATM   21  C   UNL     1     -45.827  60.770 -47.235  1.00  0.00     0.269 C 
ENDBRANCH  17  18
ENDBRANCH  16  17
ENDBRANCH  13  16
ENDBRANCH  11  12
ENDBRANCH   3  11
BRANCH   1  22
HETATM   22  C   UNL     1     -41.667  58.273 -53.382  1.00  0.00    -0.024 A 
HETATM   23  C   UNL     1     -40.392  58.663 -52.892  1.00  0.00     0.017 A 
HETATM   24  C   UNL     1     -40.117  58.755 -51.524  1.00  0.00    -0.061 A 
HETATM   25  C   UNL     1     -38.751  59.160 -51.045  1.00  0.00     0.048 C 
HETATM   26  C   UNL     1     -41.109  58.392 -50.619  1.00  0.00     0.007 A 
HETATM   27  C   UNL     1     -42.363  57.979 -51.076  1.00  0.00     0.008 A 
HETATM   28  C   UNL     1     -42.671  57.935 -52.449  1.00  0.00    -0.053 A 
HETATM   29  C   UNL     1     -44.045  57.448 -52.824  1.00  0.00     0.049 C 
ENDBRANCH   1  22
BRANCH  10  30
HETATM   30  C   UNL     1     -41.590  55.762 -54.977  1.00  0.00     0.294 C 
HETATM   31  O   UNL     1     -40.389  55.564 -54.974  1.00  0.00    -0.259 OA
BRANCH  30  32
HETATM   32  O   UNL     1     -42.552  54.986 -54.436  1.00  0.00    -0.313 OA
BRANCH  32  33
HETATM   33  C   UNL     1     -42.084  53.812 -53.752  1.00  0.00     0.217 C 
BRANCH  33  34
HETATM   34  C   UNL     1     -41.973  54.140 -52.282  1.00  0.00    -0.034 A 
HETATM   35  C   UNL     1     -43.121  54.189 -51.475  1.00  0.00     0.009 A 
HETATM   36  C   UNL     1     -43.027  54.490 -50.115  1.00  0.00     0.001 A 
HETATM   37  C   UNL     1     -41.783  54.731 -49.540  1.00  0.00     0.000 A 
HETATM   38  C   UNL     1     -40.633  54.671 -50.325  1.00  0.00     0.001 A 
HETATM   39  C   UNL     1     -40.726  54.380 -51.689  1.00  0.00     0.009 A 
ENDBRANCH  33  34
ENDBRANCH  32  33
ENDBRANCH  30  32
ENDBRANCH  10  30
TORSDOF 10
ENDMDL
MODEL 4
REMARK VINA RESULT:      -7.5      3.177      5.257
REMARK  10 active torsions:
REMARK  status: ('A' for Active; 'I' for Inactive)
REMARK    1  A    between atoms: C_4  and  C_5 
REMARK    2  A    between atoms: C_7  and  C_8 
REMARK    3  A    between atoms: C_8  and  C_9 
REMARK       I    between atoms: C_9  and  N_10 
REMARK    4  A    between atoms: N_10  and  C_11 
REMARK    5  A    between atoms: C_11  and  C_12 
REMARK    6  A    between atoms: C_12  and  N_13 
REMARK    7  A    between atoms: C_24  and  C_25 
REMARK    8  A    between atoms: C_25  and  O_26 
REMARK    9  A    between atoms: O_26  and  C_27 
REMARK   10  A    between atoms: C_27  and  C_28 
ROOT
HETATM    1  C   UNL     1     -41.751  57.175 -54.338  1.00  0.00     0.166 C 
HETATM    2  N   UNL     1     -42.236  57.944 -55.538  1.00  0.00    -0.318 N 
HETATM    3  C   UNL     1     -42.347  59.185 -55.919  1.00  0.00     0.011 C 
HETATM    4  C   UNL     1     -42.577  56.991 -56.725  1.00  0.00     0.170 C 
HETATM    5  S   UNL     1     -42.727  57.815 -58.236  1.00  0.00    -0.086 SA
HETATM    6  C   UNL     1     -42.569  59.399 -57.411  1.00  0.00     0.135 C 
HETATM    7  N   UNL     1     -42.777  55.730 -56.643  1.00  0.00    -0.229 NA
HETATM    8  C   UNL     1     -42.696  55.116 -55.419  1.00  0.00     0.048 C 
HETATM    9  C   UNL     1     -43.044  53.645 -55.486  1.00  0.00     0.071 C 
HETATM   10  C   UNL     1     -42.253  55.751 -54.312  1.00  0.00     0.069 C 
ENDROOT
BRANCH   3  11
HETATM   11  C   UNL     1     -42.176  60.395 -55.033  1.00  0.00     0.156 C 
BRANCH  11  12
HETATM   12  C   UNL     1     -43.354  61.356 -55.123  1.00  0.00     0.223 C 
HETATM   13  N   UNL     1     -44.595  60.774 -55.141  1.00  0.00    -0.359 N 
HETATM   14  H   UNL     1     -44.639  59.773 -55.326  1.00  0.00     0.162 HD
HETATM   15  O   UNL     1     -43.202  62.576 -55.144  1.00  0.00    -0.273 OA
BRANCH  13  16
HETATM   16  C   UNL     1     -45.839  61.505 -55.407  1.00  0.00     0.150 C 
BRANCH  16  17
HETATM   17  C   UNL     1     -46.656  61.046 -56.640  1.00  0.00     0.253 C 
BRANCH  17  18
HETATM   18  N   UNL     1     -45.909  60.048 -57.505  1.00  0.00    -0.077 N 
HETATM   19  H   UNL     1     -44.939  60.000 -57.134  1.00  0.00     0.279 HD
HETATM   20  C   UNL     1     -46.462  58.650 -57.433  1.00  0.00     0.269 C 
HETATM   21  C   UNL     1     -45.805  60.505 -58.934  1.00  0.00     0.269 C 
ENDBRANCH  17  18
ENDBRANCH  16  17
ENDBRANCH  13  16
ENDBRANCH  11  12
ENDBRANCH   3  11
BRANCH   1  22
HETATM   22  C   UNL     1     -41.845  57.967 -53.039  1.00  0.00    -0.024 A 
HETATM   23  C   UNL     1     -40.614  58.351 -52.443  1.00  0.00     0.017 A 
HETATM   24  C   UNL     1     -40.561  59.140 -51.289  1.00  0.00    -0.061 A 
HETATM   25  C   UNL     1     -39.239  59.516 -50.681  1.00  0.00     0.048 C 
HETATM   26  C   UNL     1     -41.756  59.505 -50.676  1.00  0.00     0.007 A 
HETATM   27  C   UNL     1     -42.979  59.116 -51.227  1.00  0.00     0.008 A 
HETATM   28  C   UNL     1     -43.047  58.369 -52.419  1.00  0.00    -0.053 A 
HETATM   29  C   UNL     1     -44.420  57.985 -52.904  1.00  0.00     0.049 C 
ENDBRANCH   1  22
BRANCH  10  30
HETATM   30  C   UNL     1     -42.059  54.998 -53.050  1.00  0.00     0.294 C 
HETATM   31  O   UNL     1     -42.970  54.802 -52.266  1.00  0.00    -0.259 OA
BRANCH  30  32
HETATM   32  O   UNL     1     -40.788  54.556 -52.961  1.00  0.00    -0.313 OA
BRANCH  32  33
HETATM   33  C   UNL     1     -40.511  53.704 -51.837  1.00  0.00     0.217 C 
BRANCH  33  34
HETATM   34  C   UNL     1     -40.182  52.327 -52.363  1.00  0.00    -0.034 A 
HETATM   35  C   UNL     1     -39.806  51.300 -51.484  1.00  0.00     0.009 A 
HETATM   36  C   UNL     1     -39.502  50.024 -51.962  1.00  0.00     0.001 A 
HETATM   37  C   UNL     1     -39.585  49.754 -53.325  1.00  0.00     0.000 A 
HETATM   38  C   UNL     1     -39.972  50.759 -54.209  1.00  0.00     0.001 A 
HETATM   39  C   UNL     1     -40.266  52.040 -53.733  1.00  0.00     0.009 A 
ENDBRANCH  33  34
ENDBRANCH  32  33
ENDBRANCH  30  32
ENDBRANCH  10  30
TORSDOF 10
ENDMDL
MODEL 5
REMARK VINA RESULT:      -7.5      2.982      4.423
REMARK  10 active torsions:
REMARK  status: ('A' for Active; 'I' for Inactive)
REMARK    1  A    between atoms: C_4  and  C_5 
REMARK    2  A    between atoms: C_7  and  C_8 
REMARK    3  A    between atoms: C_8  and  C_9 
REMARK       I    between atoms: C_9  and  N_10 
REMARK    4  A    between atoms: N_10  and  C_11 
REMARK    5  A    between atoms: C_11  and  C_12 
REMARK    6  A    between atoms: C_12  and  N_13 
REMARK    7  A    between atoms: C_24  and  C_25 
REMARK    8  A    between atoms: C_25  and  O_26 
REMARK    9  A    between atoms: O_26  and  C_27 
REMARK   10  A    between atoms: C_27  and  C_28 
ROOT
HETATM    1  C   UNL     1     -41.724  57.271 -54.277  1.00  0.00     0.166 C 
HETATM    2  N   UNL     1     -42.247  58.082 -55.433  1.00  0.00    -0.318 N 
HETATM    3  C   UNL     1     -42.352  59.334 -55.775  1.00  0.00     0.011 C 
HETATM    4  C   UNL     1     -42.657  57.168 -56.630  1.00  0.00     0.170 C 
HETATM    5  S   UNL     1     -42.858  58.036 -58.110  1.00  0.00    -0.086 SA
HETATM    6  C   UNL     1     -42.636  59.593 -57.250  1.00  0.00     0.135 C 
HETATM    7  N   UNL     1     -42.876  55.908 -56.573  1.00  0.00    -0.229 NA
HETATM    8  C   UNL     1     -42.753  55.259 -55.371  1.00  0.00     0.048 C 
HETATM    9  C   UNL     1     -43.130  53.797 -55.462  1.00  0.00     0.071 C 
HETATM   10  C   UNL     1     -42.251  55.856 -54.267  1.00  0.00     0.069 C 
ENDROOT
BRANCH   3  11
HETATM   11  C   UNL     1     -42.121  60.516 -54.866  1.00  0.00     0.156 C 
BRANCH  11  12
HETATM   12  C   UNL     1     -43.422  61.122 -54.353  1.00  0.00     0.223 C 
HETATM   13  N   UNL     1     -43.301  61.963 -53.278  1.00  0.00    -0.359 N 
HETATM   14  H   UNL     1     -42.421  61.943 -52.765  1.00  0.00     0.162 HD
HETATM   15  O   UNL     1     -44.504  60.895 -54.890  1.00  0.00    -0.273 OA
BRANCH  13  16
HETATM   16  C   UNL     1     -44.441  62.498 -52.524  1.00  0.00     0.150 C 
BRANCH  16  17
HETATM   17  C   UNL     1     -45.067  63.808 -53.063  1.00  0.00     0.253 C 
BRANCH  17  18
HETATM   18  N   UNL     1     -46.054  63.570 -54.190  1.00  0.00    -0.077 N 
HETATM   19  H   UNL     1     -46.049  62.547 -54.380  1.00  0.00     0.279 HD
HETATM   20  C   UNL     1     -47.473  63.930 -53.839  1.00  0.00     0.269 C 
HETATM   21  C   UNL     1     -45.633  64.250 -55.464  1.00  0.00     0.269 C 
ENDBRANCH  17  18
ENDBRANCH  16  17
ENDBRANCH  13  16
ENDBRANCH  11  12
ENDBRANCH   3  11
BRANCH   1  22
HETATM   22  C   UNL     1     -41.747  58.028 -52.955  1.00  0.00    -0.024 A 
HETATM   23  C   UNL     1     -40.486  58.400 -52.417  1.00  0.00     0.017 A 
HETATM   24  C   UNL     1     -40.370  59.159 -51.248  1.00  0.00    -0.061 A 
HETATM   25  C   UNL     1     -39.018  59.524 -50.704  1.00  0.00     0.048 C 
HETATM   26  C   UNL     1     -41.530  59.504 -50.560  1.00  0.00     0.007 A 
HETATM   27  C   UNL     1     -42.782  59.126 -51.053  1.00  0.00     0.008 A 
HETATM   28  C   UNL     1     -42.914  58.410 -52.258  1.00  0.00    -0.053 A 
HETATM   29  C   UNL     1     -44.311  58.034 -52.677  1.00  0.00     0.049 C 
ENDBRANCH   1  22
BRANCH  10  30
HETATM   30  C   UNL     1     -42.015  55.065 -53.036  1.00  0.00     0.294 C 
HETATM   31  O   UNL     1     -42.898  54.850 -52.225  1.00  0.00    -0.259 OA
BRANCH  30  32
HETATM   32  O   UNL     1     -40.744  54.615 -53.006  1.00  0.00    -0.313 OA
BRANCH  32  33
HETATM   33  C   UNL     1     -40.422  53.755 -51.900  1.00  0.00     0.217 C 
BRANCH  33  34
HETATM   34  C   UNL     1     -40.151  52.373 -52.445  1.00  0.00    -0.034 A 
HETATM   35  C   UNL     1     -39.750  51.336 -51.588  1.00  0.00     0.009 A 
HETATM   36  C   UNL     1     -39.498  50.055 -52.083  1.00  0.00     0.001 A 
HETATM   37  C   UNL     1     -39.659  49.790 -53.440  1.00  0.00     0.000 A 
HETATM   38  C   UNL     1     -40.071  50.805 -54.301  1.00  0.00     0.001 A 
HETATM   39  C   UNL     1     -40.313  52.090 -53.808  1.00  0.00     0.009 A 
ENDBRANCH  33  34
ENDBRANCH  32  33
ENDBRANCH  30  32
ENDBRANCH  10  30
TORSDOF 10
ENDMDL
MODEL 6
REMARK VINA RESULT:      -7.4      2.335      3.696
REMARK  10 active torsions:
REMARK  status: ('A' for Active; 'I' for Inactive)
REMARK    1  A    between atoms: C_4  and  C_5 
REMARK    2  A    between atoms: C_7  and  C_8 
REMARK    3  A    between atoms: C_8  and  C_9 
REMARK       I    between atoms: C_9  and  N_10 
REMARK    4  A    between atoms: N_10  and  C_11 
REMARK    5  A    between atoms: C_11  and  C_12 
REMARK    6  A    between atoms: C_12  and  N_13 
REMARK    7  A    between atoms: C_24  and  C_25 
REMARK    8  A    between atoms: C_25  and  O_26 
REMARK    9  A    between atoms: O_26  and  C_27 
REMARK   10  A    between atoms: C_27  and  C_28 
ROOT
HETATM    1  C   UNL     1     -42.167  57.355 -55.457  1.00  0.00     0.166 C 
HETATM    2  N   UNL     1     -42.311  58.664 -56.186  1.00  0.00    -0.318 N 
HETATM    3  C   UNL     1     -42.285  59.938 -55.913  1.00  0.00     0.011 C 
HETATM    4  C   UNL     1     -42.370  58.452 -57.731  1.00  0.00     0.170 C 
HETATM    5  S   UNL     1     -42.109  59.907 -58.627  1.00  0.00    -0.086 SA
HETATM    6  C   UNL     1     -42.117  60.865 -57.111  1.00  0.00     0.135 C 
HETATM    7  N   UNL     1     -42.622  57.349 -58.328  1.00  0.00    -0.229 NA
HETATM    8  C   UNL     1     -42.870  56.224 -57.585  1.00  0.00     0.048 C 
HETATM    9  C   UNL     1     -43.234  55.033 -58.443  1.00  0.00     0.071 C 
HETATM   10  C   UNL     1     -42.702  56.183 -56.245  1.00  0.00     0.069 C 
ENDROOT
BRANCH   3  11
HETATM   11  C   UNL     1     -42.307  60.541 -54.531  1.00  0.00     0.156 C 
BRANCH  11  12
HETATM   12  C   UNL     1     -43.629  61.228 -54.214  1.00  0.00     0.223 C 
HETATM   13  N   UNL     1     -43.543  62.344 -53.423  1.00  0.00    -0.359 N 
HETATM   14  H   UNL     1     -42.668  62.498 -52.924  1.00  0.00     0.162 HD
HETATM   15  O   UNL     1     -44.699  60.825 -54.665  1.00  0.00    -0.273 OA
BRANCH  13  16
HETATM   16  C   UNL     1     -44.705  63.037 -52.855  1.00  0.00     0.150 C 
BRANCH  16  17
HETATM   17  C   UNL     1     -44.808  63.056 -51.310  1.00  0.00     0.253 C 
BRANCH  17  18
HETATM   18  N   UNL     1     -45.593  61.882 -50.756  1.00  0.00    -0.077 N 
HETATM   19  H   UNL     1     -44.910  61.113 -50.601  1.00  0.00     0.279 HD
HETATM   20  C   UNL     1     -46.234  62.157 -49.422  1.00  0.00     0.269 C 
HETATM   21  C   UNL     1     -46.610  61.368 -51.738  1.00  0.00     0.269 C 
ENDBRANCH  17  18
ENDBRANCH  16  17
ENDBRANCH  13  16
ENDBRANCH  11  12
ENDBRANCH   3  11
BRANCH   1  22
HETATM   22  C   UNL     1     -42.562  57.440 -53.987  1.00  0.00    -0.024 A 
HETATM   23  C   UNL     1     -41.497  57.480 -53.048  1.00  0.00     0.017 A 
HETATM   24  C   UNL     1     -41.721  57.629 -51.675  1.00  0.00    -0.061 A 
HETATM   25  C   UNL     1     -40.568  57.656 -50.712  1.00  0.00     0.048 C 
HETATM   26  C   UNL     1     -43.033  57.677 -51.216  1.00  0.00     0.007 A 
HETATM   27  C   UNL     1     -44.099  57.611 -52.117  1.00  0.00     0.008 A 
HETATM   28  C   UNL     1     -43.887  57.517 -53.506  1.00  0.00    -0.053 A 
HETATM   29  C   UNL     1     -45.111  57.426 -54.377  1.00  0.00     0.049 C 
ENDBRANCH   1  22
BRANCH  10  30
HETATM   30  C   UNL     1     -42.855  54.902 -55.515  1.00  0.00     0.294 C 
HETATM   31  O   UNL     1     -43.930  54.339 -55.413  1.00  0.00    -0.259 OA
BRANCH  30  32
HETATM   32  O   UNL     1     -41.658  54.479 -55.060  1.00  0.00    -0.313 OA
BRANCH  32  33
HETATM   33  C   UNL     1     -41.686  53.255 -54.306  1.00  0.00     0.217 C 
BRANCH  33  34
HETATM   34  C   UNL     1     -41.674  53.609 -52.838  1.00  0.00    -0.034 A 
HETATM   35  C   UNL     1     -42.871  53.908 -52.168  1.00  0.00     0.009 A 
HETATM   36  C   UNL     1     -42.869  54.234 -50.811  1.00  0.00     0.001 A 
HETATM   37  C   UNL     1     -41.671  54.252 -50.101  1.00  0.00     0.000 A 
HETATM   38  C   UNL     1     -40.476  53.943 -50.749  1.00  0.00     0.001 A 
HETATM   39  C   UNL     1     -40.476  53.626 -52.110  1.00  0.00     0.009 A 
ENDBRANCH  33  34
ENDBRANCH  32  33
ENDBRANCH  30  32
ENDBRANCH  10  30
TORSDOF 10
ENDMDL
MODEL 7
REMARK VINA RESULT:      -7.3      1.655      2.172
REMARK  10 active torsions:
REMARK  status: ('A' for Active; 'I' for Inactive)
REMARK    1  A    between atoms: C_4  and  C_5 
REMARK    2  A    between atoms: C_7  and  C_8 
REMARK    3  A    between atoms: C_8  and  C_9 
REMARK       I    between atoms: C_9  and  N_10 
REMARK    4  A    between atoms: N_10  and  C_11 
REMARK    5  A    between atoms: C_11  and  C_12 
REMARK    6  A    between atoms: C_12  and  N_13 
REMARK    7  A    between atoms: C_24  and  C_25 
REMARK    8  A    between atoms: C_25  and  O_26 
REMARK    9  A    between atoms: O_26  and  C_27 
REMARK   10  A    between atoms: C_27  and  C_28 
ROOT
HETATM    1  C   UNL     1     -43.418  58.972 -53.842  1.00  0.00     0.166 C 
HETATM    2  N   UNL     1     -44.457  59.943 -53.348  1.00  0.00    -0.318 N 
HETATM    3  C   UNL     1     -44.739  60.594 -52.255  1.00  0.00     0.011 C 
HETATM    4  C   UNL     1     -45.388  60.420 -54.506  1.00  0.00     0.170 C 
HETATM    5  S   UNL     1     -46.308  61.826 -54.103  1.00  0.00    -0.086 SA
HETATM    6  C   UNL     1     -45.718  61.752 -52.412  1.00  0.00     0.135 C 
HETATM    7  N   UNL     1     -45.528  59.847 -55.641  1.00  0.00    -0.229 NA
HETATM    8  C   UNL     1     -44.817  58.706 -55.910  1.00  0.00     0.048 C 
HETATM    9  C   UNL     1     -45.164  58.111 -57.257  1.00  0.00     0.071 C 
HETATM   10  C   UNL     1     -43.846  58.241 -55.092  1.00  0.00     0.069 C 
ENDROOT
BRANCH   3  11
HETATM   11  C   UNL     1     -44.111  60.357 -50.904  1.00  0.00     0.156 C 
BRANCH  11  12
HETATM   12  C   UNL     1     -45.143  60.072 -49.821  1.00  0.00     0.223 C 
HETATM   13  N   UNL     1     -45.002  60.790 -48.662  1.00  0.00    -0.359 N 
HETATM   14  H   UNL     1     -44.116  61.272 -48.516  1.00  0.00     0.162 HD
HETATM   15  O   UNL     1     -46.062  59.273 -49.989  1.00  0.00    -0.273 OA
BRANCH  13  16
HETATM   16  C   UNL     1     -45.773  60.534 -47.440  1.00  0.00     0.150 C 
BRANCH  16  17
HETATM   17  C   UNL     1     -45.183  61.098 -46.124  1.00  0.00     0.253 C 
BRANCH  17  18
HETATM   18  N   UNL     1     -45.505  62.566 -45.914  1.00  0.00    -0.077 N 
HETATM   19  H   UNL     1     -45.047  63.085 -46.689  1.00  0.00     0.279 HD
HETATM   20  C   UNL     1     -46.975  62.881 -46.000  1.00  0.00     0.269 C 
HETATM   21  C   UNL     1     -44.923  63.095 -44.632  1.00  0.00     0.269 C 
ENDBRANCH  17  18
ENDBRANCH  16  17
ENDBRANCH  13  16
ENDBRANCH  11  12
ENDBRANCH   3  11
BRANCH   1  22
HETATM   22  C   UNL     1     -42.799  58.137 -52.728  1.00  0.00    -0.024 A 
HETATM   23  C   UNL     1     -43.666  57.228 -52.064  1.00  0.00     0.017 A 
HETATM   24  C   UNL     1     -43.208  56.353 -51.073  1.00  0.00    -0.061 A 
HETATM   25  C   UNL     1     -44.158  55.414 -50.385  1.00  0.00     0.048 C 
HETATM   26  C   UNL     1     -41.873  56.424 -50.687  1.00  0.00     0.007 A 
HETATM   27  C   UNL     1     -41.006  57.329 -51.305  1.00  0.00     0.008 A 
HETATM   28  C   UNL     1     -41.441  58.176 -52.342  1.00  0.00    -0.053 A 
HETATM   29  C   UNL     1     -40.426  59.128 -52.916  1.00  0.00     0.049 C 
ENDBRANCH   1  22
BRANCH  10  30
HETATM   30  C   UNL     1     -43.020  57.081 -55.502  1.00  0.00     0.294 C 
HETATM   31  O   UNL     1     -41.921  57.216 -56.010  1.00  0.00    -0.259 OA
BRANCH  30  32
HETATM   32  O   UNL     1     -43.643  55.928 -55.186  1.00  0.00    -0.313 OA
BRANCH  32  33
HETATM   33  C   UNL     1     -43.094  54.746 -55.791  1.00  0.00     0.217 C 
BRANCH  33  34
HETATM   34  C   UNL     1     -42.137  54.118 -54.806  1.00  0.00    -0.034 A 
HETATM   35  C   UNL     1     -40.862  53.698 -55.220  1.00  0.00     0.009 A 
HETATM   36  C   UNL     1     -39.971  53.118 -54.316  1.00  0.00     0.001 A 
HETATM   37  C   UNL     1     -40.336  52.963 -52.982  1.00  0.00     0.000 A 
HETATM   38  C   UNL     1     -41.592  53.388 -52.552  1.00  0.00     0.001 A 
HETATM   39  C   UNL     1     -42.489  53.960 -53.459  1.00  0.00     0.009 A 
ENDBRANCH  33  34
ENDBRANCH  32  33
ENDBRANCH  30  32
ENDBRANCH  10  30
TORSDOF 10
ENDMDL
MODEL 8
REMARK VINA RESULT:      -7.3      2.223      8.083
REMARK  10 active torsions:
REMARK  status: ('A' for Active; 'I' for Inactive)
REMARK    1  A    between atoms: C_4  and  C_5 
REMARK    2  A    between atoms: C_7  and  C_8 
REMARK    3  A    between atoms: C_8  and  C_9 
REMARK       I    between atoms: C_9  and  N_10 
REMARK    4  A    between atoms: N_10  and  C_11 
REMARK    5  A    between atoms: C_11  and  C_12 
REMARK    6  A    between atoms: C_12  and  N_13 
REMARK    7  A    between atoms: C_24  and  C_25 
REMARK    8  A    between atoms: C_25  and  O_26 
REMARK    9  A    between atoms: O_26  and  C_27 
REMARK   10  A    between atoms: C_27  and  C_28 
ROOT
HETATM    1  C   UNL     1     -44.322  58.204 -52.837  1.00  0.00     0.166 C 
HETATM    2  N   UNL     1     -43.820  58.453 -54.235  1.00  0.00    -0.318 N 
HETATM    3  C   UNL     1     -42.908  57.984 -55.039  1.00  0.00     0.011 C 
HETATM    4  C   UNL     1     -44.733  59.463 -54.997  1.00  0.00     0.170 C 
HETATM    5  S   UNL     1     -44.466  59.466 -56.704  1.00  0.00    -0.086 SA
HETATM    6  C   UNL     1     -43.071  58.357 -56.508  1.00  0.00     0.135 C 
HETATM    7  N   UNL     1     -45.579  60.261 -54.463  1.00  0.00    -0.229 NA
HETATM    8  C   UNL     1     -45.731  60.266 -53.100  1.00  0.00     0.048 C 
HETATM    9  C   UNL     1     -46.703  61.324 -52.630  1.00  0.00     0.071 C 
HETATM   10  C   UNL     1     -45.145  59.350 -52.298  1.00  0.00     0.069 C 
ENDROOT
BRANCH   3  11
HETATM   11  C   UNL     1     -41.793  57.045 -54.652  1.00  0.00     0.156 C 
BRANCH  11  12
HETATM   12  C   UNL     1     -42.223  55.584 -54.681  1.00  0.00     0.223 C 
HETATM   13  N   UNL     1     -41.398  54.709 -54.024  1.00  0.00    -0.359 N 
HETATM   14  H   UNL     1     -40.468  55.042 -53.773  1.00  0.00     0.162 HD
HETATM   15  O   UNL     1     -43.260  55.219 -55.231  1.00  0.00    -0.273 OA
BRANCH  13  16
HETATM   16  C   UNL     1     -41.532  53.249 -54.089  1.00  0.00     0.150 C 
BRANCH  16  17
HETATM   17  C   UNL     1     -40.231  52.450 -54.348  1.00  0.00     0.253 C 
BRANCH  17  18
HETATM   18  N   UNL     1     -40.163  51.160 -53.552  1.00  0.00    -0.077 N 
HETATM   19  H   UNL     1     -41.143  50.894 -53.331  1.00  0.00     0.279 HD
HETATM   20  C   UNL     1     -39.571  50.007 -54.318  1.00  0.00     0.269 C 
HETATM   21  C   UNL     1     -39.454  51.343 -52.238  1.00  0.00     0.269 C 
ENDBRANCH  17  18
ENDBRANCH  16  17
ENDBRANCH  13  16
ENDBRANCH  11  12
ENDBRANCH   3  11
BRANCH   1  22
HETATM   22  C   UNL     1     -43.261  57.618 -51.914  1.00  0.00    -0.024 A 
HETATM   23  C   UNL     1     -43.493  56.298 -51.443  1.00  0.00     0.017 A 
HETATM   24  C   UNL     1     -42.564  55.618 -50.648  1.00  0.00    -0.061 A 
HETATM   25  C   UNL     1     -42.850  54.226 -50.160  1.00  0.00     0.048 C 
HETATM   26  C   UNL     1     -41.407  56.285 -50.257  1.00  0.00     0.007 A 
HETATM   27  C   UNL     1     -41.169  57.594 -50.684  1.00  0.00     0.008 A 
HETATM   28  C   UNL     1     -42.069  58.270 -51.530  1.00  0.00    -0.053 A 
HETATM   29  C   UNL     1     -41.721  59.686 -51.903  1.00  0.00     0.049 C 
ENDBRANCH   1  22
BRANCH  10  30
HETATM   30  C   UNL     1     -45.456  59.323 -50.849  1.00  0.00     0.294 C 
HETATM   31  O   UNL     1     -46.346  58.629 -50.390  1.00  0.00    -0.259 OA
BRANCH  30  32
HETATM   32  O   UNL     1     -44.599  60.113 -50.172  1.00  0.00    -0.313 OA
BRANCH  32  33
HETATM   33  C   UNL     1     -45.195  60.946 -49.164  1.00  0.00     0.217 C 
BRANCH  33  34
HETATM   34  C   UNL     1     -44.445  62.256 -49.134  1.00  0.00    -0.034 A 
HETATM   35  C   UNL     1     -43.441  62.523 -50.079  1.00  0.00     0.009 A 
HETATM   36  C   UNL     1     -42.744  63.733 -50.059  1.00  0.00     0.001 A 
HETATM   37  C   UNL     1     -43.052  64.697 -49.104  1.00  0.00     0.000 A 
HETATM   38  C   UNL     1     -44.057  64.453 -48.169  1.00  0.00     0.001 A 
HETATM   39  C   UNL     1     -44.748  63.239 -48.182  1.00  0.00     0.009 A 
ENDBRANCH  33  34
ENDBRANCH  32  33
ENDBRANCH  30  32
ENDBRANCH  10  30
TORSDOF 10
ENDMDL
MODEL 9
REMARK VINA RESULT:      -7.1      3.119      4.357
REMARK  10 active torsions:
REMARK  status: ('A' for Active; 'I' for Inactive)
REMARK    1  A    between atoms: C_4  and  C_5 
REMARK    2  A    between atoms: C_7  and  C_8 
REMARK    3  A    between atoms: C_8  and  C_9 
REMARK       I    between atoms: C_9  and  N_10 
REMARK    4  A    between atoms: N_10  and  C_11 
REMARK    5  A    between atoms: C_11  and  C_12 
REMARK    6  A    between atoms: C_12  and  N_13 
REMARK    7  A    between atoms: C_24  and  C_25 
REMARK    8  A    between atoms: C_25  and  O_26 
REMARK    9  A    between atoms: O_26  and  C_27 
REMARK   10  A    between atoms: C_27  and  C_28 
ROOT
HETATM    1  C   UNL     1     -42.176  58.248 -55.262  1.00  0.00     0.166 C 
HETATM    2  N   UNL     1     -43.032  59.347 -55.834  1.00  0.00    -0.318 N 
HETATM    3  C   UNL     1     -43.430  60.543 -55.504  1.00  0.00     0.011 C 
HETATM    4  C   UNL     1     -43.459  59.031 -57.302  1.00  0.00     0.170 C 
HETATM    5  S   UNL     1     -44.070  60.411 -58.143  1.00  0.00    -0.086 SA
HETATM    6  C   UNL     1     -44.004  61.383 -56.638  1.00  0.00     0.135 C 
HETATM    7  N   UNL     1     -43.422  57.883 -57.864  1.00  0.00    -0.229 NA
HETATM    8  C   UNL     1     -42.975  56.800 -57.151  1.00  0.00     0.048 C 
HETATM    9  C   UNL     1     -43.078  55.509 -57.933  1.00  0.00     0.071 C 
HETATM   10  C   UNL     1     -42.415  56.913 -55.926  1.00  0.00     0.069 C 
ENDROOT
BRANCH   3  11
HETATM   11  C   UNL     1     -43.276  61.176 -54.143  1.00  0.00     0.156 C 
BRANCH  11  12
HETATM   12  C   UNL     1     -44.396  62.158 -53.825  1.00  0.00     0.223 C 
HETATM   13  N   UNL     1     -45.665  61.643 -53.864  1.00  0.00    -0.359 N 
HETATM   14  H   UNL     1     -45.790  60.739 -54.315  1.00  0.00     0.162 HD
HETATM   15  O   UNL     1     -44.172  63.328 -53.521  1.00  0.00    -0.273 OA
BRANCH  13  16
HETATM   16  C   UNL     1     -46.883  62.457 -53.771  1.00  0.00     0.150 C 
BRANCH  16  17
HETATM   17  C   UNL     1     -47.954  61.980 -52.758  1.00  0.00     0.253 C 
BRANCH  17  18
HETATM   18  N   UNL     1     -49.357  61.993 -53.334  1.00  0.00    -0.077 N 
HETATM   19  H   UNL     1     -49.661  61.001 -53.399  1.00  0.00     0.279 HD
HETATM   20  C   UNL     1     -50.364  62.690 -52.459  1.00  0.00     0.269 C 
HETATM   21  C   UNL     1     -49.391  62.550 -54.730  1.00  0.00     0.269 C 
ENDBRANCH  17  18
ENDBRANCH  16  17
ENDBRANCH  13  16
ENDBRANCH  11  12
ENDBRANCH   3  11
BRANCH   1  22
HETATM   22  C   UNL     1     -42.117  58.264 -53.740  1.00  0.00    -0.024 A 
HETATM   23  C   UNL     1     -40.869  58.618 -53.159  1.00  0.00     0.017 A 
HETATM   24  C   UNL     1     -40.700  58.740 -51.776  1.00  0.00    -0.061 A 
HETATM   25  C   UNL     1     -39.362  59.104 -51.199  1.00  0.00     0.048 C 
HETATM   26  C   UNL     1     -41.776  58.443 -50.945  1.00  0.00     0.007 A 
HETATM   27  C   UNL     1     -43.006  58.066 -51.490  1.00  0.00     0.008 A 
HETATM   28  C   UNL     1     -43.205  57.993 -52.882  1.00  0.00    -0.053 A 
HETATM   29  C   UNL     1     -44.565  57.550 -53.354  1.00  0.00     0.049 C 
ENDBRANCH   1  22
BRANCH  10  30
HETATM   30  C   UNL     1     -41.828  55.724 -55.264  1.00  0.00     0.294 C 
HETATM   31  O   UNL     1     -40.627  55.519 -55.249  1.00  0.00    -0.259 OA
BRANCH  30  32
HETATM   32  O   UNL     1     -42.795  54.991 -54.677  1.00  0.00    -0.313 OA
BRANCH  32  33
HETATM   33  C   UNL     1     -42.337  53.836 -53.954  1.00  0.00     0.217 C 
BRANCH  33  34
HETATM   34  C   UNL     1     -42.209  54.216 -52.498  1.00  0.00    -0.034 A 
HETATM   35  C   UNL     1     -43.345  54.279 -51.676  1.00  0.00     0.009 A 
HETATM   36  C   UNL     1     -43.235  54.627 -50.328  1.00  0.00     0.001 A 
HETATM   37  C   UNL     1     -41.985  54.904 -49.782  1.00  0.00     0.000 A 
HETATM   38  C   UNL     1     -40.846  54.831 -50.581  1.00  0.00     0.001 A 
HETATM   39  C   UNL     1     -40.957  54.492 -51.933  1.00  0.00     0.009 A 
ENDBRANCH  33  34
ENDBRANCH  32  33
ENDBRANCH  30  32
ENDBRANCH  10  30
TORSDOF 10
ENDMDL
MODEL 10
REMARK VINA RESULT:      -7.0      3.095      7.148
REMARK  10 active torsions:
REMARK  status: ('A' for Active; 'I' for Inactive)
REMARK    1  A    between atoms: C_4  and  C_5 
REMARK    2  A    between atoms: C_7  and  C_8 
REMARK    3  A    between atoms: C_8  and  C_9 
REMARK       I    between atoms: C_9  and  N_10 
REMARK    4  A    between atoms: N_10  and  C_11 
REMARK    5  A    between atoms: C_11  and  C_12 
REMARK    6  A    between atoms: C_12  and  N_13 
REMARK    7  A    between atoms: C_24  and  C_25 
REMARK    8  A    between atoms: C_25  and  O_26 
REMARK    9  A    between atoms: O_26  and  C_27 
REMARK   10  A    between atoms: C_27  and  C_28 
ROOT
HETATM    1  C   UNL     1     -43.301  59.574 -54.415  1.00  0.00     0.166 C 
HETATM    2  N   UNL     1     -44.367  60.619 -54.218  1.00  0.00    -0.318 N 
HETATM    3  C   UNL     1     -45.266  61.238 -54.929  1.00  0.00     0.011 C 
HETATM    4  C   UNL     1     -44.553  60.965 -52.708  1.00  0.00     0.170 C 
HETATM    5  S   UNL     1     -46.019  61.820 -52.382  1.00  0.00    -0.086 SA
HETATM    6  C   UNL     1     -46.355  61.952 -54.138  1.00  0.00     0.135 C 
HETATM    7  N   UNL     1     -43.722  60.706 -51.770  1.00  0.00    -0.229 NA
HETATM    8  C   UNL     1     -42.546  60.068 -52.072  1.00  0.00     0.048 C 
HETATM    9  C   UNL     1     -41.643  59.918 -50.868  1.00  0.00     0.071 C 
HETATM   10  C   UNL     1     -42.290  59.550 -53.294  1.00  0.00     0.069 C 
ENDROOT
BRANCH   3  11
HETATM   11  C   UNL     1     -45.362  61.219 -56.435  1.00  0.00     0.156 C 
BRANCH  11  12
HETATM   12  C   UNL     1     -46.510  60.352 -56.936  1.00  0.00     0.223 C 
HETATM   13  N   UNL     1     -46.288  59.000 -56.909  1.00  0.00    -0.359 N 
HETATM   14  H   UNL     1     -45.327  58.686 -56.785  1.00  0.00     0.162 HD
HETATM   15  O   UNL     1     -47.577  60.834 -57.311  1.00  0.00    -0.273 OA
BRANCH  13  16
HETATM   16  C   UNL     1     -47.185  58.010 -57.515  1.00  0.00     0.150 C 
BRANCH  16  17
HETATM   17  C   UNL     1     -47.124  57.878 -59.057  1.00  0.00     0.253 C 
BRANCH  17  18
HETATM   18  N   UNL     1     -46.665  56.506 -59.514  1.00  0.00    -0.077 N 
HETATM   19  H   UNL     1     -47.046  55.821 -58.830  1.00  0.00     0.279 HD
HETATM   20  C   UNL     1     -47.204  56.106 -60.862  1.00  0.00     0.269 C 
HETATM   21  C   UNL     1     -45.168  56.369 -59.479  1.00  0.00     0.269 C 
ENDBRANCH  17  18
ENDBRANCH  16  17
ENDBRANCH  13  16
ENDBRANCH  11  12
ENDBRANCH   3  11
BRANCH   1  22
HETATM   22  C   UNL     1     -42.758  59.532 -55.839  1.00  0.00    -0.024 A 
HETATM   23  C   UNL     1     -42.149  60.723 -56.318  1.00  0.00     0.017 A 
HETATM   24  C   UNL     1     -41.548  60.795 -57.579  1.00  0.00    -0.061 A 
HETATM   25  C   UNL     1     -40.924  62.076 -58.056  1.00  0.00     0.048 C 
HETATM   26  C   UNL     1     -41.608  59.680 -58.410  1.00  0.00     0.007 A 
HETATM   27  C   UNL     1     -42.226  58.506 -57.973  1.00  0.00     0.008 A 
HETATM   28  C   UNL     1     -42.785  58.403 -56.685  1.00  0.00    -0.053 A 
HETATM   29  C   UNL     1     -43.448  57.097 -56.333  1.00  0.00     0.049 C 
ENDBRANCH   1  22
BRANCH  10  30
HETATM   30  C   UNL     1     -41.061  58.754 -53.521  1.00  0.00     0.294 C 
HETATM   31  O   UNL     1     -39.947  59.225 -53.376  1.00  0.00    -0.259 OA
BRANCH  30  32
HETATM   32  O   UNL     1     -41.380  57.484 -53.845  1.00  0.00    -0.313 OA
BRANCH  32  33
HETATM   33  C   UNL     1     -41.369  56.550 -52.752  1.00  0.00     0.217 C 
BRANCH  33  34
HETATM   34  C   UNL     1     -40.960  55.201 -53.294  1.00  0.00    -0.034 A 
HETATM   35  C   UNL     1     -40.630  55.048 -54.650  1.00  0.00     0.009 A 
HETATM   36  C   UNL     1     -40.249  53.805 -55.159  1.00  0.00     0.001 A 
HETATM   37  C   UNL     1     -40.178  52.701 -54.314  1.00  0.00     0.000 A 
HETATM   38  C   UNL     1     -40.487  52.839 -52.963  1.00  0.00     0.001 A 
HETATM   39  C   UNL     1     -40.879  54.081 -52.455  1.00  0.00     0.009 A 
ENDBRANCH  33  34
ENDBRANCH  32  33
ENDBRANCH  30  32
ENDBRANCH  10  30
TORSDOF 10
ENDMDL
