MODEL 1
REMARK VINA RESULT:      -8.9      0.000      0.000
REMARK  5 active torsions:
REMARK  status: ('A' for Active; 'I' for Inactive)
REMARK    1  A    between atoms: O_2  and  C_3 
REMARK    2  A    between atoms: C_5  and  C_6 
REMARK    3  A    between atoms: C_6  and  C_7 
REMARK       I    between atoms: C_7  and  N_8 
REMARK    4  A    between atoms: N_11  and  C_12 
REMARK    5  A    between atoms: C_16  and  C_17 
ROOT
HETATM    1  C   UNL     1     -44.462  61.849 -50.871  1.00  0.00     0.224 C 
HETATM    2  N   UNL     1     -43.538  60.860 -51.161  1.00  0.00    -0.349 N 
HETATM    3  C   UNL     1     -42.248  60.658 -50.497  1.00  0.00     0.145 C 
HETATM    4  C   UNL     1     -41.961  59.164 -50.241  1.00  0.00     0.144 C 
HETATM    5  N   UNL     1     -42.143  58.340 -51.463  1.00  0.00    -0.363 N 
HETATM    6  C   UNL     1     -43.446  58.581 -52.141  1.00  0.00     0.144 C 
HETATM    7  C   UNL     1     -43.693  60.076 -52.387  1.00  0.00     0.145 C 
HETATM    8  O   UNL     1     -45.453  62.040 -51.583  1.00  0.00    -0.273 OA
ENDROOT
BRANCH   5   9
HETATM    9  C   UNL     1     -41.693  57.043 -51.441  1.00  0.00     0.122 A 
HETATM   10  N   UNL     1     -41.354  56.386 -50.288  1.00  0.00    -0.262 N 
HETATM   11  H   UNL     1     -41.362  56.753 -49.346  1.00  0.00     0.191 HD
HETATM   12  N   UNL     1     -40.954  55.117 -50.465  1.00  0.00    -0.173 NA
HETATM   13  C   UNL     1     -40.979  54.940 -51.796  1.00  0.00     0.090 A 
HETATM   14  C   UNL     1     -41.418  56.131 -52.439  1.00  0.00     0.084 A 
BRANCH  13  15
HETATM   15  C   UNL     1     -40.590  53.663 -52.411  1.00  0.00    -0.005 A 
HETATM   16  C   UNL     1     -39.859  52.702 -51.695  1.00  0.00     0.015 A 
HETATM   17  C   UNL     1     -39.496  51.489 -52.291  1.00  0.00     0.024 A 
HETATM   18  C   UNL     1     -39.859  51.226 -53.610  1.00  0.00     0.034 A 
HETATM   19 CL   UNL     1     -39.412  49.735 -54.340  1.00  0.00    -0.084 Cl
HETATM   20  C   UNL     1     -40.583  52.166 -54.337  1.00  0.00     0.024 A 
HETATM   21  C   UNL     1     -40.945  53.378 -53.740  1.00  0.00     0.015 A 
ENDBRANCH  13  15
ENDBRANCH   5   9
BRANCH   1  22
HETATM   22  C   UNL     1     -44.254  62.712 -49.634  1.00  0.00     0.141 C 
BRANCH  22  23
HETATM   23  C   UNL     1     -44.956  62.200 -48.397  1.00  0.00    -0.047 A 
HETATM   24  C   UNL     1     -45.455  60.886 -48.339  1.00  0.00     0.044 A 
HETATM   25  C   UNL     1     -46.075  60.407 -47.184  1.00  0.00     0.068 A 
HETATM   26  C   UNL     1     -46.178  61.240 -46.070  1.00  0.00     0.037 A 
HETATM   27  C   UNL     1     -45.666  62.536 -46.102  1.00  0.00     0.003 A 
HETATM   28  C   UNL     1     -45.053  63.013 -47.260  1.00  0.00     0.007 A 
BRANCH  25  29
HETATM   29  O   UNL     1     -46.609  59.157 -47.018  1.00  0.00    -0.356 OA
HETATM   30  C   UNL     1     -46.993  58.795 -45.697  1.00  0.00     0.210 C 
ENDBRANCH  25  29
ENDBRANCH  22  23
ENDBRANCH   1  22
TORSDOF 5
ENDMDL
MODEL 2
REMARK VINA RESULT:      -8.6      1.408      2.134
REMARK  5 active torsions:
REMARK  status: ('A' for Active; 'I' for Inactive)
REMARK    1  A    between atoms: O_2  and  C_3 
REMARK    2  A    between atoms: C_5  and  C_6 
REMARK    3  A    between atoms: C_6  and  C_7 
REMARK       I    between atoms: C_7  and  N_8 
REMARK    4  A    between atoms: N_11  and  C_12 
REMARK    5  A    between atoms: C_16  and  C_17 
ROOT
HETATM    1  C   UNL     1     -45.143  61.472 -50.466  1.00  0.00     0.224 C 
HETATM    2  N   UNL     1     -44.293  60.528 -51.015  1.00  0.00    -0.349 N 
HETATM    3  C   UNL     1     -42.832  60.615 -51.088  1.00  0.00     0.145 C 
HETATM    4  C   UNL     1     -42.158  59.267 -50.763  1.00  0.00     0.144 C 
HETATM    5  N   UNL     1     -42.733  58.146 -51.551  1.00  0.00    -0.363 N 
HETATM    6  C   UNL     1     -44.219  58.092 -51.489  1.00  0.00     0.144 C 
HETATM    7  C   UNL     1     -44.855  59.448 -51.827  1.00  0.00     0.145 C 
HETATM    8  O   UNL     1     -46.369  61.388 -50.585  1.00  0.00    -0.273 OA
ENDROOT
BRANCH   5   9
HETATM    9  C   UNL     1     -42.073  56.942 -51.540  1.00  0.00     0.122 A 
HETATM   10  N   UNL     1     -41.363  56.486 -50.461  1.00  0.00    -0.262 N 
HETATM   11  H   UNL     1     -41.212  56.958 -49.580  1.00  0.00     0.191 HD
HETATM   12  N   UNL     1     -40.803  55.279 -50.631  1.00  0.00    -0.173 NA
HETATM   13  C   UNL     1     -41.111  54.941 -51.895  1.00  0.00     0.090 A 
HETATM   14  C   UNL     1     -41.889  55.968 -52.499  1.00  0.00     0.084 A 
BRANCH  13  15
HETATM   15  C   UNL     1     -40.664  53.671 -52.484  1.00  0.00    -0.005 A 
HETATM   16  C   UNL     1     -40.890  53.376 -53.838  1.00  0.00     0.015 A 
HETATM   17  C   UNL     1     -40.458  52.165 -54.389  1.00  0.00     0.024 A 
HETATM   18  C   UNL     1     -39.797  51.235 -53.589  1.00  0.00     0.034 A 
HETATM   19 CL   UNL     1     -39.267  49.746 -54.268  1.00  0.00    -0.084 Cl
HETATM   20  C   UNL     1     -39.564  51.506 -52.245  1.00  0.00     0.024 A 
HETATM   21  C   UNL     1     -39.997  52.718 -51.696  1.00  0.00     0.015 A 
ENDBRANCH  13  15
ENDBRANCH   5   9
BRANCH   1  22
HETATM   22  C   UNL     1     -44.546  62.635 -49.685  1.00  0.00     0.141 C 
BRANCH  22  23
HETATM   23  C   UNL     1     -44.756  62.550 -48.191  1.00  0.00    -0.047 A 
HETATM   24  C   UNL     1     -45.029  63.702 -47.431  1.00  0.00     0.044 A 
HETATM   25  C   UNL     1     -45.253  63.615 -46.056  1.00  0.00     0.068 A 
HETATM   26  C   UNL     1     -45.226  62.364 -45.438  1.00  0.00     0.037 A 
HETATM   27  C   UNL     1     -44.982  61.210 -46.181  1.00  0.00     0.003 A 
HETATM   28  C   UNL     1     -44.752  61.302 -47.553  1.00  0.00     0.007 A 
BRANCH  25  29
HETATM   29  O   UNL     1     -45.513  64.664 -45.216  1.00  0.00    -0.356 OA
HETATM   30  C   UNL     1     -46.755  64.639 -44.524  1.00  0.00     0.210 C 
ENDBRANCH  25  29
ENDBRANCH  22  23
ENDBRANCH   1  22
TORSDOF 5
ENDMDL
MODEL 3
REMARK VINA RESULT:      -8.4      4.508      9.920
REMARK  5 active torsions:
REMARK  status: ('A' for Active; 'I' for Inactive)
REMARK    1  A    between atoms: O_2  and  C_3 
REMARK    2  A    between atoms: C_5  and  C_6 
REMARK    3  A    between atoms: C_6  and  C_7 
REMARK       I    between atoms: C_7  and  N_8 
REMARK    4  A    between atoms: N_11  and  C_12 
REMARK    5  A    between atoms: C_16  and  C_17 
ROOT
HETATM    1  C   UNL     1     -41.193  55.548 -54.580  1.00  0.00     0.224 C 
HETATM    2  N   UNL     1     -42.152  56.415 -54.085  1.00  0.00    -0.349 N 
HETATM    3  C   UNL     1     -43.561  56.099 -53.837  1.00  0.00     0.145 C 
HETATM    4  C   UNL     1     -44.064  56.711 -52.514  1.00  0.00     0.144 C 
HETATM    5  N   UNL     1     -43.745  58.159 -52.408  1.00  0.00    -0.363 N 
HETATM    6  C   UNL     1     -42.317  58.464 -52.693  1.00  0.00     0.144 C 
HETATM    7  C   UNL     1     -41.854  57.846 -54.020  1.00  0.00     0.145 C 
HETATM    8  O   UNL     1     -40.068  55.941 -54.902  1.00  0.00    -0.273 OA
ENDROOT
BRANCH   5   9
HETATM    9  C   UNL     1     -44.339  58.879 -51.401  1.00  0.00     0.122 A 
HETATM   10  N   UNL     1     -45.587  58.598 -50.913  1.00  0.00    -0.262 N 
HETATM   11  H   UNL     1     -46.223  57.878 -51.228  1.00  0.00     0.191 HD
HETATM   12  N   UNL     1     -45.991  59.401 -49.916  1.00  0.00    -0.173 NA
HETATM   13  C   UNL     1     -44.989  60.283 -49.769  1.00  0.00     0.090 A 
HETATM   14  C   UNL     1     -43.947  59.998 -50.696  1.00  0.00     0.084 A 
BRANCH  13  15
HETATM   15  C   UNL     1     -45.048  61.358 -48.768  1.00  0.00    -0.005 A 
HETATM   16  C   UNL     1     -45.195  61.074 -47.401  1.00  0.00     0.015 A 
HETATM   17  C   UNL     1     -45.248  62.105 -46.457  1.00  0.00     0.024 A 
HETATM   18  C   UNL     1     -45.158  63.432 -46.872  1.00  0.00     0.034 A 
HETATM   19 CL   UNL     1     -45.225  64.698 -45.710  1.00  0.00    -0.084 Cl
HETATM   20  C   UNL     1     -45.014  63.735 -48.222  1.00  0.00     0.024 A 
HETATM   21  C   UNL     1     -44.961  62.703 -49.164  1.00  0.00     0.015 A 
ENDBRANCH  13  15
ENDBRANCH   5   9
BRANCH   1  22
HETATM   22  C   UNL     1     -41.536  54.071 -54.715  1.00  0.00     0.141 C 
BRANCH  22  23
HETATM   23  C   UNL     1     -40.820  53.176 -53.729  1.00  0.00    -0.047 A 
HETATM   24  C   UNL     1     -40.803  53.481 -52.356  1.00  0.00     0.044 A 
HETATM   25  C   UNL     1     -40.167  52.637 -51.444  1.00  0.00     0.068 A 
HETATM   26  C   UNL     1     -39.563  51.466 -51.905  1.00  0.00     0.037 A 
HETATM   27  C   UNL     1     -39.594  51.137 -53.259  1.00  0.00     0.003 A 
HETATM   28  C   UNL     1     -40.224  51.986 -54.168  1.00  0.00     0.007 A 
BRANCH  25  29
HETATM   29  O   UNL     1     -40.074  52.836 -50.093  1.00  0.00    -0.356 OA
HETATM   30  C   UNL     1     -39.704  54.140 -49.661  1.00  0.00     0.210 C 
ENDBRANCH  25  29
ENDBRANCH  22  23
ENDBRANCH   1  22
TORSDOF 5
ENDMDL
MODEL 4
REMARK VINA RESULT:      -8.2      6.214      9.969
REMARK  5 active torsions:
REMARK  status: ('A' for Active; 'I' for Inactive)
REMARK    1  A    between atoms: O_2  and  C_3 
REMARK    2  A    between atoms: C_5  and  C_6 
REMARK    3  A    between atoms: C_6  and  C_7 
REMARK       I    between atoms: C_7  and  N_8 
REMARK    4  A    between atoms: N_11  and  C_12 
REMARK    5  A    between atoms: C_16  and  C_17 
ROOT
HETATM    1  C   UNL     1     -42.409  54.489 -51.528  1.00  0.00     0.224 C 
HETATM    2  N   UNL     1     -42.412  55.490 -52.484  1.00  0.00    -0.349 N 
HETATM    3  C   UNL     1     -41.314  56.417 -52.772  1.00  0.00     0.145 C 
HETATM    4  C   UNL     1     -41.130  56.638 -54.287  1.00  0.00     0.144 C 
HETATM    5  N   UNL     1     -42.405  56.988 -54.963  1.00  0.00    -0.363 N 
HETATM    6  C   UNL     1     -43.515  56.053 -54.635  1.00  0.00     0.144 C 
HETATM    7  C   UNL     1     -43.676  55.865 -53.120  1.00  0.00     0.145 C 
HETATM    8  O   UNL     1     -43.431  53.856 -51.249  1.00  0.00    -0.273 OA
ENDROOT
BRANCH   5   9
HETATM    9  C   UNL     1     -42.347  57.443 -56.258  1.00  0.00     0.122 A 
HETATM   10  N   UNL     1     -42.508  56.629 -57.347  1.00  0.00    -0.262 N 
HETATM   11  H   UNL     1     -42.658  55.628 -57.350  1.00  0.00     0.191 HD
HETATM   12  N   UNL     1     -42.437  57.257 -58.530  1.00  0.00    -0.173 NA
HETATM   13  C   UNL     1     -42.166  58.535 -58.215  1.00  0.00     0.090 A 
HETATM   14  C   UNL     1     -42.084  58.682 -56.802  1.00  0.00     0.084 A 
BRANCH  13  15
HETATM   15  C   UNL     1     -41.995  59.564 -59.250  1.00  0.00    -0.005 A 
HETATM   16  C   UNL     1     -42.176  59.268 -60.611  1.00  0.00     0.015 A 
HETATM   17  C   UNL     1     -42.012  60.257 -61.587  1.00  0.00     0.024 A 
HETATM   18  C   UNL     1     -41.663  61.552 -61.212  1.00  0.00     0.034 A 
HETATM   19 CL   UNL     1     -41.462  62.766 -62.413  1.00  0.00    -0.084 Cl
HETATM   20  C   UNL     1     -41.478  61.867 -59.869  1.00  0.00     0.024 A 
HETATM   21  C   UNL     1     -41.642  60.877 -58.894  1.00  0.00     0.015 A 
ENDBRANCH  13  15
ENDBRANCH   5   9
BRANCH   1  22
HETATM   22  C   UNL     1     -41.105  54.155 -50.816  1.00  0.00     0.141 C 
BRANCH  22  23
HETATM   23  C   UNL     1     -40.575  52.771 -51.113  1.00  0.00    -0.047 A 
HETATM   24  C   UNL     1     -40.082  52.441 -52.388  1.00  0.00     0.044 A 
HETATM   25  C   UNL     1     -39.566  51.171 -52.649  1.00  0.00     0.068 A 
HETATM   26  C   UNL     1     -39.520  50.229 -51.621  1.00  0.00     0.037 A 
HETATM   27  C   UNL     1     -39.981  50.548 -50.344  1.00  0.00     0.003 A 
HETATM   28  C   UNL     1     -40.502  51.815 -50.089  1.00  0.00     0.007 A 
BRANCH  25  29
HETATM   29  O   UNL     1     -39.073  50.735 -53.849  1.00  0.00    -0.356 OA
HETATM   30  C   UNL     1     -39.906  49.863 -54.605  1.00  0.00     0.210 C 
ENDBRANCH  25  29
ENDBRANCH  22  23
ENDBRANCH   1  22
TORSDOF 5
ENDMDL
MODEL 5
REMARK VINA RESULT:      -8.0      4.757     10.230
REMARK  5 active torsions:
REMARK  status: ('A' for Active; 'I' for Inactive)
REMARK    1  A    between atoms: O_2  and  C_3 
REMARK    2  A    between atoms: C_5  and  C_6 
REMARK    3  A    between atoms: C_6  and  C_7 
REMARK       I    between atoms: C_7  and  N_8 
REMARK    4  A    between atoms: N_11  and  C_12 
REMARK    5  A    between atoms: C_16  and  C_17 
ROOT
HETATM    1  C   UNL     1     -42.384  55.822 -54.801  1.00  0.00     0.224 C 
HETATM    2  N   UNL     1     -43.082  56.814 -54.135  1.00  0.00    -0.349 N 
HETATM    3  C   UNL     1     -44.303  56.634 -53.346  1.00  0.00     0.145 C 
HETATM    4  C   UNL     1     -44.275  57.463 -52.046  1.00  0.00     0.144 C 
HETATM    5  N   UNL     1     -43.924  58.885 -52.293  1.00  0.00    -0.363 N 
HETATM    6  C   UNL     1     -42.699  59.047 -53.122  1.00  0.00     0.144 C 
HETATM    7  C   UNL     1     -42.766  58.216 -54.411  1.00  0.00     0.145 C 
HETATM    8  O   UNL     1     -41.453  56.087 -55.568  1.00  0.00    -0.273 OA
ENDROOT
BRANCH   5   9
HETATM    9  C   UNL     1     -44.095  59.781 -51.267  1.00  0.00     0.122 A 
HETATM   10  N   UNL     1     -43.123  60.658 -50.867  1.00  0.00    -0.262 N 
HETATM   11  H   UNL     1     -42.185  60.746 -51.234  1.00  0.00     0.191 HD
HETATM   12  N   UNL     1     -43.482  61.469 -49.859  1.00  0.00    -0.173 NA
HETATM   13  C   UNL     1     -44.728  61.079 -49.543  1.00  0.00     0.090 A 
HETATM   14  C   UNL     1     -45.135  60.011 -50.391  1.00  0.00     0.084 A 
BRANCH  13  15
HETATM   15  C   UNL     1     -45.485  61.721 -48.459  1.00  0.00    -0.005 A 
HETATM   16  C   UNL     1     -46.623  62.500 -48.726  1.00  0.00     0.015 A 
HETATM   17  C   UNL     1     -47.336  63.105 -47.686  1.00  0.00     0.024 A 
HETATM   18  C   UNL     1     -46.917  62.940 -46.368  1.00  0.00     0.034 A 
HETATM   19 CL   UNL     1     -47.796  63.685 -45.091  1.00  0.00    -0.084 Cl
HETATM   20  C   UNL     1     -45.792  62.174 -46.081  1.00  0.00     0.024 A 
HETATM   21  C   UNL     1     -45.079  61.569 -47.123  1.00  0.00     0.015 A 
ENDBRANCH  13  15
ENDBRANCH   5   9
BRANCH   1  22
HETATM   22  C   UNL     1     -42.768  54.367 -54.567  1.00  0.00     0.141 C 
BRANCH  22  23
HETATM   23  C   UNL     1     -41.798  53.603 -53.695  1.00  0.00    -0.047 A 
HETATM   24  C   UNL     1     -40.934  52.640 -54.245  1.00  0.00     0.044 A 
HETATM   25  C   UNL     1     -40.018  51.958 -53.441  1.00  0.00     0.068 A 
HETATM   26  C   UNL     1     -39.951  52.259 -52.080  1.00  0.00     0.037 A 
HETATM   27  C   UNL     1     -40.783  53.229 -51.524  1.00  0.00     0.003 A 
HETATM   28  C   UNL     1     -41.700  53.902 -52.329  1.00  0.00     0.007 A 
BRANCH  25  29
HETATM   29  O   UNL     1     -39.141  50.995 -53.860  1.00  0.00    -0.356 OA
HETATM   30  C   UNL     1     -39.702  49.836 -54.465  1.00  0.00     0.210 C 
ENDBRANCH  25  29
ENDBRANCH  22  23
ENDBRANCH   1  22
TORSDOF 5
ENDMDL
MODEL 6
REMARK VINA RESULT:      -7.9      1.956      2.557
REMARK  5 active torsions:
REMARK  status: ('A' for Active; 'I' for Inactive)
REMARK    1  A    between atoms: O_2  and  C_3 
REMARK    2  A    between atoms: C_5  and  C_6 
REMARK    3  A    between atoms: C_6  and  C_7 
REMARK       I    between atoms: C_7  and  N_8 
REMARK    4  A    between atoms: N_11  and  C_12 
REMARK    5  A    between atoms: C_16  and  C_17 
ROOT
HETATM    1  C   UNL     1     -44.562  61.645 -51.877  1.00  0.00     0.224 C 
HETATM    2  N   UNL     1     -44.038  60.476 -51.351  1.00  0.00    -0.349 N 
HETATM    3  C   UNL     1     -44.798  59.292 -50.944  1.00  0.00     0.145 C 
HETATM    4  C   UNL     1     -44.100  57.985 -51.371  1.00  0.00     0.144 C 
HETATM    5  N   UNL     1     -42.672  57.951 -50.963  1.00  0.00    -0.363 N 
HETATM    6  C   UNL     1     -41.924  59.175 -51.359  1.00  0.00     0.144 C 
HETATM    7  C   UNL     1     -42.643  60.455 -50.910  1.00  0.00     0.145 C 
HETATM    8  O   UNL     1     -43.863  62.648 -52.049  1.00  0.00    -0.273 OA
ENDROOT
BRANCH   5   9
HETATM    9  C   UNL     1     -41.999  56.759 -51.066  1.00  0.00     0.122 A 
HETATM   10  N   UNL     1     -41.217  56.250 -50.063  1.00  0.00    -0.262 N 
HETATM   11  H   UNL     1     -41.016  56.672 -49.166  1.00  0.00     0.191 HD
HETATM   12  N   UNL     1     -40.654  55.064 -50.340  1.00  0.00    -0.173 NA
HETATM   13  C   UNL     1     -41.037  54.797 -51.600  1.00  0.00     0.090 A 
HETATM   14  C   UNL     1     -41.864  55.847 -52.091  1.00  0.00     0.084 A 
BRANCH  13  15
HETATM   15  C   UNL     1     -40.613  53.572 -52.291  1.00  0.00    -0.005 A 
HETATM   16  C   UNL     1     -39.897  52.567 -51.622  1.00  0.00     0.015 A 
HETATM   17  C   UNL     1     -39.500  51.404 -52.291  1.00  0.00     0.024 A 
HETATM   18  C   UNL     1     -39.814  51.235 -53.637  1.00  0.00     0.034 A 
HETATM   19 CL   UNL     1     -39.325  49.805 -54.457  1.00  0.00    -0.084 Cl
HETATM   20  C   UNL     1     -40.522  52.219 -54.320  1.00  0.00     0.024 A 
HETATM   21  C   UNL     1     -40.918  53.382 -53.650  1.00  0.00     0.015 A 
ENDBRANCH  13  15
ENDBRANCH   5   9
BRANCH   1  22
HETATM   22  C   UNL     1     -46.034  61.683 -52.264  1.00  0.00     0.141 C 
BRANCH  22  23
HETATM   23  C   UNL     1     -46.910  62.441 -51.293  1.00  0.00    -0.047 A 
HETATM   24  C   UNL     1     -46.623  62.453 -49.916  1.00  0.00     0.044 A 
HETATM   25  C   UNL     1     -47.416  63.179 -49.026  1.00  0.00     0.068 A 
HETATM   26  C   UNL     1     -48.493  63.918 -49.520  1.00  0.00     0.037 A 
HETATM   27  C   UNL     1     -48.775  63.936 -50.885  1.00  0.00     0.003 A 
HETATM   28  C   UNL     1     -47.984  63.205 -51.769  1.00  0.00     0.007 A 
BRANCH  25  29
HETATM   29  O   UNL     1     -47.242  63.253 -47.671  1.00  0.00    -0.356 OA
HETATM   30  C   UNL     1     -46.748  62.088 -47.023  1.00  0.00     0.210 C 
ENDBRANCH  25  29
ENDBRANCH  22  23
ENDBRANCH   1  22
TORSDOF 5
ENDMDL
MODEL 7
REMARK VINA RESULT:      -7.8      6.733      9.696
REMARK  5 active torsions:
REMARK  status: ('A' for Active; 'I' for Inactive)
REMARK    1  A    between atoms: O_2  and  C_3 
REMARK    2  A    between atoms: C_5  and  C_6 
REMARK    3  A    between atoms: C_6  and  C_7 
REMARK       I    between atoms: C_7  and  N_8 
REMARK    4  A    between atoms: N_11  and  C_12 
REMARK    5  A    between atoms: C_16  and  C_17 
ROOT
HETATM    1  C   UNL     1     -42.806  56.802 -51.819  1.00  0.00     0.224 C 
HETATM    2  N   UNL     1     -43.180  57.284 -53.062  1.00  0.00    -0.349 N 
HETATM    3  C   UNL     1     -42.277  57.740 -54.121  1.00  0.00     0.145 C 
HETATM    4  C   UNL     1     -42.734  57.258 -55.513  1.00  0.00     0.144 C 
HETATM    5  N   UNL     1     -44.165  57.563 -55.771  1.00  0.00    -0.363 N 
HETATM    6  C   UNL     1     -45.063  57.120 -54.670  1.00  0.00     0.144 C 
HETATM    7  C   UNL     1     -44.582  57.625 -53.302  1.00  0.00     0.145 C 
HETATM    8  O   UNL     1     -43.637  56.585 -50.931  1.00  0.00    -0.273 OA
ENDROOT
BRANCH   5   9
HETATM    9  C   UNL     1     -44.638  57.407 -57.051  1.00  0.00     0.122 A 
HETATM   10  N   UNL     1     -43.981  56.686 -58.011  1.00  0.00    -0.262 N 
HETATM   11  H   UNL     1     -43.091  56.215 -57.925  1.00  0.00     0.191 HD
HETATM   12  N   UNL     1     -44.608  56.632 -59.196  1.00  0.00    -0.173 NA
HETATM   13  C   UNL     1     -45.704  57.391 -59.031  1.00  0.00     0.090 A 
HETATM   14  C   UNL     1     -45.744  57.908 -57.706  1.00  0.00     0.084 A 
BRANCH  13  15
HETATM   15  C   UNL     1     -46.667  57.603 -60.120  1.00  0.00    -0.005 A 
HETATM   16  C   UNL     1     -47.231  56.521 -60.816  1.00  0.00     0.015 A 
HETATM   17  C   UNL     1     -48.148  56.735 -61.851  1.00  0.00     0.024 A 
HETATM   18  C   UNL     1     -48.510  58.033 -62.201  1.00  0.00     0.034 A 
HETATM   19 CL   UNL     1     -49.638  58.293 -63.473  1.00  0.00    -0.084 Cl
HETATM   20  C   UNL     1     -47.963  59.119 -61.526  1.00  0.00     0.024 A 
HETATM   21  C   UNL     1     -47.045  58.904 -60.492  1.00  0.00     0.015 A 
ENDBRANCH  13  15
ENDBRANCH   5   9
BRANCH   1  22
HETATM   22  C   UNL     1     -41.334  56.521 -51.550  1.00  0.00     0.141 C 
BRANCH  22  23
HETATM   23  C   UNL     1     -40.952  55.063 -51.661  1.00  0.00    -0.047 A 
HETATM   24  C   UNL     1     -40.915  54.417 -52.910  1.00  0.00     0.044 A 
HETATM   25  C   UNL     1     -40.532  53.078 -53.012  1.00  0.00     0.068 A 
HETATM   26  C   UNL     1     -40.162  52.386 -51.858  1.00  0.00     0.037 A 
HETATM   27  C   UNL     1     -40.169  53.018 -50.616  1.00  0.00     0.003 A 
HETATM   28  C   UNL     1     -40.559  54.353 -50.518  1.00  0.00     0.007 A 
BRANCH  25  29
HETATM   29  O   UNL     1     -40.471  52.345 -54.166  1.00  0.00    -0.356 OA
HETATM   30  C   UNL     1     -39.897  51.047 -54.072  1.00  0.00     0.210 C 
ENDBRANCH  25  29
ENDBRANCH  22  23
ENDBRANCH   1  22
TORSDOF 5
ENDMDL
MODEL 8
REMARK VINA RESULT:      -7.8      6.707      9.414
REMARK  5 active torsions:
REMARK  status: ('A' for Active; 'I' for Inactive)
REMARK    1  A    between atoms: O_2  and  C_3 
REMARK    2  A    between atoms: C_5  and  C_6 
REMARK    3  A    between atoms: C_6  and  C_7 
REMARK       I    between atoms: C_7  and  N_8 
REMARK    4  A    between atoms: N_11  and  C_12 
REMARK    5  A    between atoms: C_16  and  C_17 
ROOT
HETATM    1  C   UNL     1     -43.579  60.236 -59.471  1.00  0.00     0.224 C 
HETATM    2  N   UNL     1     -43.691  59.021 -58.817  1.00  0.00    -0.349 N 
HETATM    3  C   UNL     1     -43.082  57.754 -59.231  1.00  0.00     0.145 C 
HETATM    4  C   UNL     1     -42.508  56.974 -58.031  1.00  0.00     0.144 C 
HETATM    5  N   UNL     1     -43.493  56.834 -56.928  1.00  0.00    -0.363 N 
HETATM    6  C   UNL     1     -44.123  58.126 -56.542  1.00  0.00     0.144 C 
HETATM    7  C   UNL     1     -44.691  58.871 -57.759  1.00  0.00     0.145 C 
HETATM    8  O   UNL     1     -44.250  61.217 -59.137  1.00  0.00    -0.273 OA
ENDROOT
BRANCH   5   9
HETATM    9  C   UNL     1     -43.201  55.964 -55.906  1.00  0.00     0.122 A 
HETATM   10  N   UNL     1     -44.062  55.703 -54.874  1.00  0.00    -0.262 N 
HETATM   11  H   UNL     1     -44.972  56.112 -54.714  1.00  0.00     0.191 HD
HETATM   12  N   UNL     1     -43.608  54.810 -53.981  1.00  0.00    -0.173 NA
HETATM   13  C   UNL     1     -42.373  54.503 -54.410  1.00  0.00     0.090 A 
HETATM   14  C   UNL     1     -42.078  55.222 -55.603  1.00  0.00     0.084 A 
BRANCH  13  15
HETATM   15  C   UNL     1     -41.520  53.550 -53.687  1.00  0.00    -0.005 A 
HETATM   16  C   UNL     1     -40.907  52.473 -54.347  1.00  0.00     0.015 A 
HETATM   17  C   UNL     1     -40.095  51.573 -53.648  1.00  0.00     0.024 A 
HETATM   18  C   UNL     1     -39.889  51.741 -52.281  1.00  0.00     0.034 A 
HETATM   19 CL   UNL     1     -38.891  50.633 -51.424  1.00  0.00    -0.084 Cl
HETATM   20  C   UNL     1     -40.489  52.800 -51.607  1.00  0.00     0.024 A 
HETATM   21  C   UNL     1     -41.300  53.699 -52.307  1.00  0.00     0.015 A 
ENDBRANCH  13  15
ENDBRANCH   5   9
BRANCH   1  22
HETATM   22  C   UNL     1     -42.589  60.364 -60.621  1.00  0.00     0.141 C 
BRANCH  22  23
HETATM   23  C   UNL     1     -41.469  61.346 -60.367  1.00  0.00    -0.047 A 
HETATM   24  C   UNL     1     -40.907  62.092 -61.419  1.00  0.00     0.044 A 
HETATM   25  C   UNL     1     -39.893  63.020 -61.176  1.00  0.00     0.068 A 
HETATM   26  C   UNL     1     -39.452  63.221 -59.867  1.00  0.00     0.037 A 
HETATM   27  C   UNL     1     -40.016  62.508 -58.810  1.00  0.00     0.003 A 
HETATM   28  C   UNL     1     -41.024  61.577 -59.058  1.00  0.00     0.007 A 
BRANCH  25  29
HETATM   29  O   UNL     1     -39.264  63.789 -62.117  1.00  0.00    -0.356 OA
HETATM   30  C   UNL     1     -39.258  63.293 -63.451  1.00  0.00     0.210 C 
ENDBRANCH  25  29
ENDBRANCH  22  23
ENDBRANCH   1  22
TORSDOF 5
ENDMDL
MODEL 9
REMARK VINA RESULT:      -7.7      6.400     10.073
REMARK  5 active torsions:
REMARK  status: ('A' for Active; 'I' for Inactive)
REMARK    1  A    between atoms: O_2  and  C_3 
REMARK    2  A    between atoms: C_5  and  C_6 
REMARK    3  A    between atoms: C_6  and  C_7 
REMARK       I    between atoms: C_7  and  N_8 
REMARK    4  A    between atoms: N_11  and  C_12 
REMARK    5  A    between atoms: C_16  and  C_17 
ROOT
HETATM    1  C   UNL     1     -42.740  55.775 -52.984  1.00  0.00     0.224 C 
HETATM    2  N   UNL     1     -42.810  57.040 -53.542  1.00  0.00    -0.349 N 
HETATM    3  C   UNL     1     -42.096  58.232 -53.078  1.00  0.00     0.145 C 
HETATM    4  C   UNL     1     -41.542  59.064 -54.253  1.00  0.00     0.144 C 
HETATM    5  N   UNL     1     -42.579  59.346 -55.279  1.00  0.00    -0.363 N 
HETATM    6  C   UNL     1     -43.314  58.128 -55.715  1.00  0.00     0.144 C 
HETATM    7  C   UNL     1     -43.858  57.331 -54.521  1.00  0.00     0.145 C 
HETATM    8  O   UNL     1     -43.494  54.865 -53.344  1.00  0.00    -0.273 OA
ENDROOT
BRANCH   5   9
HETATM    9  C   UNL     1     -42.290  60.271 -56.252  1.00  0.00     0.122 A 
HETATM   10  N   UNL     1     -42.668  61.585 -56.173  1.00  0.00    -0.262 N 
HETATM   11  H   UNL     1     -43.206  62.028 -55.441  1.00  0.00     0.191 HD
HETATM   12  N   UNL     1     -42.279  62.341 -57.211  1.00  0.00    -0.173 NA
HETATM   13  C   UNL     1     -41.660  61.483 -58.039  1.00  0.00     0.090 A 
HETATM   14  C   UNL     1     -41.666  60.175 -57.478  1.00  0.00     0.084 A 
BRANCH  13  15
HETATM   15  C   UNL     1     -41.090  61.922 -59.320  1.00  0.00    -0.005 A 
HETATM   16  C   UNL     1     -41.662  61.536 -60.543  1.00  0.00     0.015 A 
HETATM   17  C   UNL     1     -41.110  61.962 -61.757  1.00  0.00     0.024 A 
HETATM   18  C   UNL     1     -39.980  62.776 -61.759  1.00  0.00     0.034 A 
HETATM   19 CL   UNL     1     -39.305  63.298 -63.252  1.00  0.00    -0.084 Cl
HETATM   20  C   UNL     1     -39.397  63.168 -60.559  1.00  0.00     0.024 A 
HETATM   21  C   UNL     1     -39.949  62.742 -59.346  1.00  0.00     0.015 A 
ENDBRANCH  13  15
ENDBRANCH   5   9
BRANCH   1  22
HETATM   22  C   UNL     1     -41.696  55.500 -51.911  1.00  0.00     0.141 C 
BRANCH  22  23
HETATM   23  C   UNL     1     -41.069  54.127 -51.995  1.00  0.00    -0.047 A 
HETATM   24  C   UNL     1     -40.782  53.537 -53.239  1.00  0.00     0.044 A 
HETATM   25  C   UNL     1     -40.175  52.282 -53.312  1.00  0.00     0.068 A 
HETATM   26  C   UNL     1     -39.830  51.622 -52.132  1.00  0.00     0.037 A 
HETATM   27  C   UNL     1     -40.084  52.205 -50.891  1.00  0.00     0.003 A 
HETATM   28  C   UNL     1     -40.697  53.455 -50.822  1.00  0.00     0.007 A 
BRANCH  25  29
HETATM   29  O   UNL     1     -39.862  51.606 -54.460  1.00  0.00    -0.356 OA
HETATM   30  C   UNL     1     -39.916  50.186 -54.403  1.00  0.00     0.210 C 
ENDBRANCH  25  29
ENDBRANCH  22  23
ENDBRANCH   1  22
TORSDOF 5
ENDMDL
MODEL 10
REMARK VINA RESULT:      -7.6      1.760      2.286
REMARK  5 active torsions:
REMARK  status: ('A' for Active; 'I' for Inactive)
REMARK    1  A    between atoms: O_2  and  C_3 
REMARK    2  A    between atoms: C_5  and  C_6 
REMARK    3  A    between atoms: C_6  and  C_7 
REMARK       I    between atoms: C_7  and  N_8 
REMARK    4  A    between atoms: N_11  and  C_12 
REMARK    5  A    between atoms: C_16  and  C_17 
ROOT
HETATM    1  C   UNL     1     -44.728  61.814 -51.565  1.00  0.00     0.224 C 
HETATM    2  N   UNL     1     -43.975  60.655 -51.478  1.00  0.00    -0.349 N 
HETATM    3  C   UNL     1     -44.416  59.375 -50.919  1.00  0.00     0.145 C 
HETATM    4  C   UNL     1     -43.938  58.181 -51.770  1.00  0.00     0.144 C 
HETATM    5  N   UNL     1     -42.481  58.242 -52.056  1.00  0.00    -0.363 N 
HETATM    6  C   UNL     1     -42.047  59.560 -52.593  1.00  0.00     0.144 C 
HETATM    7  C   UNL     1     -42.533  60.723 -51.717  1.00  0.00     0.145 C 
HETATM    8  O   UNL     1     -44.227  62.888 -51.909  1.00  0.00    -0.273 OA
ENDROOT
BRANCH   5   9
HETATM    9  C   UNL     1     -41.881  57.130 -52.594  1.00  0.00     0.122 A 
HETATM   10  N   UNL     1     -41.273  57.126 -53.821  1.00  0.00    -0.262 N 
HETATM   11  H   UNL     1     -41.208  57.892 -54.478  1.00  0.00     0.191 HD
HETATM   12  N   UNL     1     -40.726  55.952 -54.170  1.00  0.00    -0.173 NA
HETATM   13  C   UNL     1     -41.027  55.126 -53.153  1.00  0.00     0.090 A 
HETATM   14  C   UNL     1     -41.767  55.827 -52.159  1.00  0.00     0.084 A 
BRANCH  13  15
HETATM   15  C   UNL     1     -40.611  53.717 -53.155  1.00  0.00    -0.005 A 
HETATM   16  C   UNL     1     -40.649  52.947 -54.329  1.00  0.00     0.015 A 
HETATM   17  C   UNL     1     -40.249  51.606 -54.319  1.00  0.00     0.024 A 
HETATM   18  C   UNL     1     -39.809  51.022 -53.134  1.00  0.00     0.034 A 
HETATM   19 CL   UNL     1     -39.318  49.374 -53.124  1.00  0.00    -0.084 Cl
HETATM   20  C   UNL     1     -39.765  51.766 -51.959  1.00  0.00     0.024 A 
HETATM   21  C   UNL     1     -40.165  53.107 -51.971  1.00  0.00     0.015 A 
ENDBRANCH  13  15
ENDBRANCH   5   9
BRANCH   1  22
HETATM   22  C   UNL     1     -46.215  61.751 -51.241  1.00  0.00     0.141 C 
BRANCH  22  23
HETATM   23  C   UNL     1     -46.587  62.379 -49.918  1.00  0.00    -0.047 A 
HETATM   24  C   UNL     1     -46.063  61.885 -48.709  1.00  0.00     0.044 A 
HETATM   25  C   UNL     1     -46.385  62.487 -47.492  1.00  0.00     0.068 A 
HETATM   26  C   UNL     1     -47.219  63.606 -47.483  1.00  0.00     0.037 A 
HETATM   27  C   UNL     1     -47.726  64.122 -48.674  1.00  0.00     0.003 A 
HETATM   28  C   UNL     1     -47.408  63.515 -49.888  1.00  0.00     0.007 A 
BRANCH  25  29
HETATM   29  O   UNL     1     -45.948  62.088 -46.258  1.00  0.00    -0.356 OA
HETATM   30  C   UNL     1     -44.912  61.113 -46.228  1.00  0.00     0.210 C 
ENDBRANCH  25  29
ENDBRANCH  22  23
ENDBRANCH   1  22
TORSDOF 5
ENDMDL
