MODEL 1
REMARK VINA RESULT:      -7.7      0.000      0.000
REMARK  6 active torsions:
REMARK  status: ('A' for Active; 'I' for Inactive)
REMARK    1  A    between atoms: C_2  and  N_3 
REMARK    2  A    between atoms: C_2  and  C_21 
REMARK       I    between atoms: N_3  and  C_4 
REMARK       I    between atoms: C_4  and  N_5 
REMARK    3  A    between atoms: N_5  and  C_6 
REMARK    4  A    between atoms: C_9  and  O_10 
REMARK    5  A    between atoms: O_10  and  C_11 
REMARK    6  A    between atoms: C_11  and  C_12 
ROOT
HETATM    1  C   UNL     1     -43.007  55.854 -55.174  1.00  0.00     0.036 A 
HETATM    2  C   UNL     1     -41.837  56.461 -54.717  1.00  0.00     0.032 A 
HETATM    3  C   UNL     1     -41.196  56.000 -53.558  1.00  0.00     0.039 A 
HETATM    4  C   UNL     1     -41.713  54.917 -52.853  1.00  0.00     0.068 A 
HETATM    5  C   UNL     1     -42.904  54.332 -53.282  1.00  0.00     0.039 A 
HETATM    6  C   UNL     1     -43.546  54.794 -54.435  1.00  0.00     0.032 A 
ENDROOT
BRANCH   1   7
HETATM    7  N   UNL     1     -43.677  56.219 -56.360  1.00  0.00    -0.309 N 
HETATM    8  C   UNL     1     -44.401  57.355 -56.596  1.00  0.00     0.321 C 
HETATM    9  N   UNL     1     -44.813  57.542 -57.878  1.00  0.00    -0.332 N 
HETATM   10  O   UNL     1     -44.693  58.217 -55.774  1.00  0.00    -0.247 OA
HETATM   11  H   UNL     1     -45.329  58.406 -58.012  1.00  0.00     0.165 HD
HETATM   12  H   UNL     1     -43.613  55.557 -57.113  1.00  0.00     0.170 HD
BRANCH   9  13
HETATM   13  C   UNL     1     -44.603  56.744 -59.083  1.00  0.00     0.155 C 
HETATM   14  C   UNL     1     -45.759  56.937 -60.059  1.00  0.00     0.041 C 
BRANCH  13  15
HETATM   15  C   UNL     1     -43.291  57.145 -59.699  1.00  0.00     0.169 A 
HETATM   16  N   UNL     1     -42.303  56.273 -59.948  1.00  0.00    -0.156 NA
HETATM   17  N   UNL     1     -41.350  57.082 -60.443  1.00  0.00    -0.270 N 
HETATM   18  H   UNL     1     -40.457  56.689 -60.720  1.00  0.00     0.190 HD
HETATM   19  C   UNL     1     -41.772  58.372 -60.488  1.00  0.00     0.227 A 
HETATM   20  N   UNL     1     -42.998  58.450 -60.029  1.00  0.00    -0.223 NA
ENDBRANCH  13  15
ENDBRANCH   9  13
ENDBRANCH   1   7
BRANCH   4  21
HETATM   21  O   UNL     1     -41.157  54.353 -51.739  1.00  0.00    -0.351 OA
BRANCH  21  22
HETATM   22  C   UNL     1     -41.003  52.931 -51.761  1.00  0.00     0.180 C 
BRANCH  22  23
HETATM   23  C   UNL     1     -39.665  52.585 -52.440  1.00  0.00     0.010 C 
HETATM   24  C   UNL     1     -38.995  51.345 -51.818  1.00  0.00     0.007 C 
HETATM   25  C   UNL     1     -39.719  50.044 -52.164  1.00  0.00     0.000 C 
HETATM   26  C   UNL     1     -39.891  49.879 -53.671  1.00  0.00     0.000 C 
HETATM   27  C   UNL     1     -40.561  51.092 -54.309  1.00  0.00     0.000 C 
HETATM   28  C   UNL     1     -39.838  52.392 -53.953  1.00  0.00     0.007 C 
ENDBRANCH  22  23
ENDBRANCH  21  22
ENDBRANCH   4  21
TORSDOF 6
ENDMDL
MODEL 2
REMARK VINA RESULT:      -7.4      5.255      7.185
REMARK  6 active torsions:
REMARK  status: ('A' for Active; 'I' for Inactive)
REMARK    1  A    between atoms: C_2  and  N_3 
REMARK    2  A    between atoms: C_2  and  C_21 
REMARK       I    between atoms: N_3  and  C_4 
REMARK       I    between atoms: C_4  and  N_5 
REMARK    3  A    between atoms: N_5  and  C_6 
REMARK    4  A    between atoms: C_9  and  O_10 
REMARK    5  A    between atoms: O_10  and  C_11 
REMARK    6  A    between atoms: C_11  and  C_12 
ROOT
HETATM    1  C   UNL     1     -43.457  57.418 -53.089  1.00  0.00     0.036 A 
HETATM    2  C   UNL     1     -44.061  56.577 -54.024  1.00  0.00     0.032 A 
HETATM    3  C   UNL     1     -43.286  55.740 -54.840  1.00  0.00     0.039 A 
HETATM    4  C   UNL     1     -41.899  55.728 -54.719  1.00  0.00     0.068 A 
HETATM    5  C   UNL     1     -41.288  56.596 -53.815  1.00  0.00     0.039 A 
HETATM    6  C   UNL     1     -42.060  57.434 -53.004  1.00  0.00     0.032 A 
ENDROOT
BRANCH   1   7
HETATM    7  N   UNL     1     -44.167  58.244 -52.192  1.00  0.00    -0.309 N 
HETATM    8  C   UNL     1     -44.796  57.877 -51.035  1.00  0.00     0.321 C 
HETATM    9  N   UNL     1     -45.273  58.893 -50.269  1.00  0.00    -0.332 N 
HETATM   10  O   UNL     1     -44.951  56.732 -50.623  1.00  0.00    -0.247 OA
HETATM   11  H   UNL     1     -45.714  58.576 -49.411  1.00  0.00     0.165 HD
HETATM   12  H   UNL     1     -44.214  59.215 -52.446  1.00  0.00     0.170 HD
BRANCH   9  13
HETATM   13  C   UNL     1     -45.217  60.341 -50.448  1.00  0.00     0.155 C 
HETATM   14  C   UNL     1     -46.322  60.805 -51.392  1.00  0.00     0.041 C 
BRANCH  13  15
HETATM   15  C   UNL     1     -45.338  60.994 -49.099  1.00  0.00     0.169 A 
HETATM   16  N   UNL     1     -44.863  62.220 -48.834  1.00  0.00    -0.156 NA
HETATM   17  N   UNL     1     -45.160  62.347 -47.529  1.00  0.00    -0.270 N 
HETATM   18  H   UNL     1     -44.904  63.198 -47.040  1.00  0.00     0.190 HD
HETATM   19  C   UNL     1     -45.790  61.241 -47.057  1.00  0.00     0.227 A 
HETATM   20  N   UNL     1     -45.924  60.364 -48.023  1.00  0.00    -0.223 NA
ENDBRANCH  13  15
ENDBRANCH   9  13
ENDBRANCH   1   7
BRANCH   4  21
HETATM   21  O   UNL     1     -41.045  54.929 -55.426  1.00  0.00    -0.351 OA
BRANCH  21  22
HETATM   22  C   UNL     1     -40.201  54.069 -54.655  1.00  0.00     0.180 C 
BRANCH  22  23
HETATM   23  C   UNL     1     -41.069  52.991 -53.982  1.00  0.00     0.010 C 
HETATM   24  C   UNL     1     -40.553  51.567 -54.258  1.00  0.00     0.007 C 
HETATM   25  C   UNL     1     -39.257  51.250 -53.512  1.00  0.00     0.000 C 
HETATM   26  C   UNL     1     -39.392  51.506 -52.014  1.00  0.00     0.000 C 
HETATM   27  C   UNL     1     -39.894  52.916 -51.715  1.00  0.00     0.000 C 
HETATM   28  C   UNL     1     -41.186  53.230 -52.469  1.00  0.00     0.007 C 
ENDBRANCH  22  23
ENDBRANCH  21  22
ENDBRANCH   4  21
TORSDOF 6
ENDMDL
MODEL 3
REMARK VINA RESULT:      -7.3      2.039      2.862
REMARK  6 active torsions:
REMARK  status: ('A' for Active; 'I' for Inactive)
REMARK    1  A    between atoms: C_2  and  N_3 
REMARK    2  A    between atoms: C_2  and  C_21 
REMARK       I    between atoms: N_3  and  C_4 
REMARK       I    between atoms: C_4  and  N_5 
REMARK    3  A    between atoms: N_5  and  C_6 
REMARK    4  A    between atoms: C_9  and  O_10 
REMARK    5  A    between atoms: O_10  and  C_11 
REMARK    6  A    between atoms: C_11  and  C_12 
ROOT
HETATM    1  C   UNL     1     -43.717  57.261 -55.100  1.00  0.00     0.036 A 
HETATM    2  C   UNL     1     -42.400  57.627 -54.821  1.00  0.00     0.032 A 
HETATM    3  C   UNL     1     -41.957  57.750 -53.496  1.00  0.00     0.039 A 
HETATM    4  C   UNL     1     -42.825  57.496 -52.438  1.00  0.00     0.068 A 
HETATM    5  C   UNL     1     -44.153  57.170 -52.711  1.00  0.00     0.039 A 
HETATM    6  C   UNL     1     -44.596  57.051 -54.032  1.00  0.00     0.032 A 
ENDROOT
BRANCH   1   7
HETATM    7  N   UNL     1     -44.223  57.058 -56.401  1.00  0.00    -0.309 N 
HETATM    8  C   UNL     1     -45.095  57.852 -57.094  1.00  0.00     0.321 C 
HETATM    9  N   UNL     1     -45.300  57.516 -58.394  1.00  0.00    -0.332 N 
HETATM   10  O   UNL     1     -45.686  58.835 -56.659  1.00  0.00    -0.247 OA
HETATM   11  H   UNL     1     -45.938  58.143 -58.875  1.00  0.00     0.165 HD
HETATM   12  H   UNL     1     -43.901  56.226 -56.864  1.00  0.00     0.170 HD
BRANCH   9  13
HETATM   13  C   UNL     1     -44.732  56.451 -59.215  1.00  0.00     0.155 C 
HETATM   14  C   UNL     1     -45.682  56.089 -60.352  1.00  0.00     0.041 C 
BRANCH  13  15
HETATM   15  C   UNL     1     -43.399  56.909 -59.737  1.00  0.00     0.169 A 
HETATM   16  N   UNL     1     -42.358  56.081 -59.915  1.00  0.00    -0.156 NA
HETATM   17  N   UNL     1     -41.409  56.931 -60.343  1.00  0.00    -0.270 N 
HETATM   18  H   UNL     1     -40.482  56.578 -60.556  1.00  0.00     0.190 HD
HETATM   19  C   UNL     1     -41.882  58.202 -60.418  1.00  0.00     0.227 A 
HETATM   20  N   UNL     1     -43.139  58.226 -60.046  1.00  0.00    -0.223 NA
ENDBRANCH  13  15
ENDBRANCH   9  13
ENDBRANCH   1   7
BRANCH   4  21
HETATM   21  O   UNL     1     -42.499  57.542 -51.111  1.00  0.00    -0.351 OA
BRANCH  21  22
HETATM   22  C   UNL     1     -41.400  56.724 -50.702  1.00  0.00     0.180 C 
BRANCH  22  23
HETATM   23  C   UNL     1     -41.947  55.405 -50.126  1.00  0.00     0.010 C 
HETATM   24  C   UNL     1     -42.177  54.341 -51.215  1.00  0.00     0.007 C 
HETATM   25  C   UNL     1     -40.874  53.770 -51.772  1.00  0.00     0.000 C 
HETATM   26  C   UNL     1     -39.972  53.236 -50.663  1.00  0.00     0.000 C 
HETATM   27  C   UNL     1     -39.722  54.277 -49.575  1.00  0.00     0.000 C 
HETATM   28  C   UNL     1     -41.029  54.850 -49.027  1.00  0.00     0.007 C 
ENDBRANCH  22  23
ENDBRANCH  21  22
ENDBRANCH   4  21
TORSDOF 6
ENDMDL
MODEL 4
REMARK VINA RESULT:      -7.3      1.252      2.205
REMARK  6 active torsions:
REMARK  status: ('A' for Active; 'I' for Inactive)
REMARK    1  A    between atoms: C_2  and  N_3 
REMARK    2  A    between atoms: C_2  and  C_21 
REMARK       I    between atoms: N_3  and  C_4 
REMARK       I    between atoms: C_4  and  N_5 
REMARK    3  A    between atoms: N_5  and  C_6 
REMARK    4  A    between atoms: C_9  and  O_10 
REMARK    5  A    between atoms: O_10  and  C_11 
REMARK    6  A    between atoms: C_11  and  C_12 
ROOT
HETATM    1  C   UNL     1     -42.746  55.998 -56.003  1.00  0.00     0.036 A 
HETATM    2  C   UNL     1     -43.444  54.913 -55.472  1.00  0.00     0.032 A 
HETATM    3  C   UNL     1     -43.032  54.314 -54.273  1.00  0.00     0.039 A 
HETATM    4  C   UNL     1     -41.924  54.803 -53.587  1.00  0.00     0.068 A 
HETATM    5  C   UNL     1     -41.198  55.861 -54.134  1.00  0.00     0.039 A 
HETATM    6  C   UNL     1     -41.607  56.457 -55.331  1.00  0.00     0.032 A 
ENDROOT
BRANCH   1   7
HETATM    7  N   UNL     1     -43.130  56.692 -57.169  1.00  0.00    -0.309 N 
HETATM    8  C   UNL     1     -43.583  57.979 -57.267  1.00  0.00     0.321 C 
HETATM    9  N   UNL     1     -43.734  58.462 -58.528  1.00  0.00    -0.332 N 
HETATM   10  O   UNL     1     -43.845  58.731 -56.334  1.00  0.00    -0.247 OA
HETATM   11  H   UNL     1     -44.053  59.425 -58.554  1.00  0.00     0.165 HD
HETATM   12  H   UNL     1     -43.063  56.169 -58.024  1.00  0.00     0.170 HD
BRANCH   9  13
HETATM   13  C   UNL     1     -43.476  57.853 -59.830  1.00  0.00     0.155 C 
HETATM   14  C   UNL     1     -41.977  57.663 -60.043  1.00  0.00     0.041 C 
BRANCH  13  15
HETATM   15  C   UNL     1     -44.211  56.543 -59.900  1.00  0.00     0.169 A 
HETATM   16  N   UNL     1     -45.547  56.449 -59.827  1.00  0.00    -0.156 NA
HETATM   17  N   UNL     1     -45.726  55.118 -59.889  1.00  0.00    -0.270 N 
HETATM   18  H   UNL     1     -46.666  54.739 -59.846  1.00  0.00     0.190 HD
HETATM   19  C   UNL     1     -44.540  54.466 -60.003  1.00  0.00     0.227 A 
HETATM   20  N   UNL     1     -43.559  55.335 -60.017  1.00  0.00    -0.223 NA
ENDBRANCH  13  15
ENDBRANCH   9  13
ENDBRANCH   1   7
BRANCH   4  21
HETATM   21  O   UNL     1     -41.454  54.331 -52.393  1.00  0.00    -0.351 OA
BRANCH  21  22
HETATM   22  C   UNL     1     -41.265  52.916 -52.304  1.00  0.00     0.180 C 
BRANCH  22  23
HETATM   23  C   UNL     1     -39.860  52.567 -52.828  1.00  0.00     0.010 C 
HETATM   24  C   UNL     1     -39.102  51.615 -51.883  1.00  0.00     0.007 C 
HETATM   25  C   UNL     1     -39.663  50.193 -51.897  1.00  0.00     0.000 C 
HETATM   26  C   UNL     1     -39.727  49.627 -53.312  1.00  0.00     0.000 C 
HETATM   27  C   UNL     1     -40.482  50.548 -54.266  1.00  0.00     0.000 C 
HETATM   28  C   UNL     1     -39.922  51.971 -54.242  1.00  0.00     0.007 C 
ENDBRANCH  22  23
ENDBRANCH  21  22
ENDBRANCH   4  21
TORSDOF 6
ENDMDL
MODEL 5
REMARK VINA RESULT:      -7.3     14.975     16.599
REMARK  6 active torsions:
REMARK  status: ('A' for Active; 'I' for Inactive)
REMARK    1  A    between atoms: C_2  and  N_3 
REMARK    2  A    between atoms: C_2  and  C_21 
REMARK       I    between atoms: N_3  and  C_4 
REMARK       I    between atoms: C_4  and  N_5 
REMARK    3  A    between atoms: N_5  and  C_6 
REMARK    4  A    between atoms: C_9  and  O_10 
REMARK    5  A    between atoms: O_10  and  C_11 
REMARK    6  A    between atoms: C_11  and  C_12 
ROOT
HETATM    1  C   UNL     1     -36.939  41.125 -57.336  1.00  0.00     0.036 A 
HETATM    2  C   UNL     1     -35.798  41.853 -56.998  1.00  0.00     0.032 A 
HETATM    3  C   UNL     1     -35.602  42.308 -55.686  1.00  0.00     0.039 A 
HETATM    4  C   UNL     1     -36.540  42.026 -54.697  1.00  0.00     0.068 A 
HETATM    5  C   UNL     1     -37.701  41.333 -55.038  1.00  0.00     0.039 A 
HETATM    6  C   UNL     1     -37.899  40.884 -56.347  1.00  0.00     0.032 A 
ENDROOT
BRANCH   1   7
HETATM    7  N   UNL     1     -37.182  40.584 -58.616  1.00  0.00    -0.309 N 
HETATM    8  C   UNL     1     -37.222  41.246 -59.812  1.00  0.00     0.321 C 
HETATM    9  N   UNL     1     -37.316  40.466 -60.920  1.00  0.00    -0.332 N 
HETATM   10  O   UNL     1     -37.163  42.461 -59.973  1.00  0.00    -0.247 OA
HETATM   11  H   UNL     1     -37.322  40.998 -61.786  1.00  0.00     0.165 HD
HETATM   12  H   UNL     1     -37.349  39.593 -58.641  1.00  0.00     0.170 HD
BRANCH   9  13
HETATM   13  C   UNL     1     -37.363  39.015 -61.076  1.00  0.00     0.155 C 
HETATM   14  C   UNL     1     -37.944  38.643 -62.437  1.00  0.00     0.041 C 
BRANCH  13  15
HETATM   15  C   UNL     1     -35.972  38.471 -60.906  1.00  0.00     0.169 A 
HETATM   16  N   UNL     1     -35.116  38.316 -61.927  1.00  0.00    -0.156 NA
HETATM   17  N   UNL     1     -34.053  37.775 -61.307  1.00  0.00    -0.270 N 
HETATM   18  H   UNL     1     -33.229  37.535 -61.848  1.00  0.00     0.190 HD
HETATM   19  C   UNL     1     -34.280  37.630 -59.976  1.00  0.00     0.227 A 
HETATM   20  N   UNL     1     -35.483  38.063 -59.684  1.00  0.00    -0.223 NA
ENDBRANCH  13  15
ENDBRANCH   9  13
ENDBRANCH   1   7
BRANCH   4  21
HETATM   21  O   UNL     1     -36.438  42.377 -53.379  1.00  0.00    -0.351 OA
BRANCH  21  22
HETATM   22  C   UNL     1     -35.172  42.137 -52.758  1.00  0.00     0.180 C 
BRANCH  22  23
HETATM   23  C   UNL     1     -35.050  40.635 -52.442  1.00  0.00     0.010 C 
HETATM   24  C   UNL     1     -33.921  39.958 -53.243  1.00  0.00     0.007 C 
HETATM   25  C   UNL     1     -32.527  40.362 -52.762  1.00  0.00     0.000 C 
HETATM   26  C   UNL     1     -32.358  40.124 -51.264  1.00  0.00     0.000 C 
HETATM   27  C   UNL     1     -33.460  40.793 -50.448  1.00  0.00     0.000 C 
HETATM   28  C   UNL     1     -34.852  40.392 -50.938  1.00  0.00     0.007 C 
ENDBRANCH  22  23
ENDBRANCH  21  22
ENDBRANCH   4  21
TORSDOF 6
ENDMDL
MODEL 6
REMARK VINA RESULT:      -7.2      6.462      8.589
REMARK  6 active torsions:
REMARK  status: ('A' for Active; 'I' for Inactive)
REMARK    1  A    between atoms: C_2  and  N_3 
REMARK    2  A    between atoms: C_2  and  C_21 
REMARK       I    between atoms: N_3  and  C_4 
REMARK       I    between atoms: C_4  and  N_5 
REMARK    3  A    between atoms: N_5  and  C_6 
REMARK    4  A    between atoms: C_9  and  O_10 
REMARK    5  A    between atoms: O_10  and  C_11 
REMARK    6  A    between atoms: C_11  and  C_12 
ROOT
HETATM    1  C   UNL     1     -43.878  58.936 -51.267  1.00  0.00     0.036 A 
HETATM    2  C   UNL     1     -44.404  57.647 -51.366  1.00  0.00     0.032 A 
HETATM    3  C   UNL     1     -43.880  56.729 -52.287  1.00  0.00     0.039 A 
HETATM    4  C   UNL     1     -42.815  57.088 -53.109  1.00  0.00     0.068 A 
HETATM    5  C   UNL     1     -42.312  58.387 -53.043  1.00  0.00     0.039 A 
HETATM    6  C   UNL     1     -42.838  59.304 -52.127  1.00  0.00     0.032 A 
ENDROOT
BRANCH   1   7
HETATM    7  N   UNL     1     -44.310  59.896 -50.329  1.00  0.00    -0.309 N 
HETATM    8  C   UNL     1     -45.535  60.498 -50.249  1.00  0.00     0.321 C 
HETATM    9  N   UNL     1     -45.748  61.271 -49.152  1.00  0.00    -0.332 N 
HETATM   10  O   UNL     1     -46.453  60.390 -51.056  1.00  0.00    -0.247 OA
HETATM   11  H   UNL     1     -46.676  61.681 -49.124  1.00  0.00     0.165 HD
HETATM   12  H   UNL     1     -43.626  60.167 -49.644  1.00  0.00     0.170 HD
BRANCH   9  13
HETATM   13  C   UNL     1     -44.896  61.569 -48.004  1.00  0.00     0.155 C 
HETATM   14  C   UNL     1     -44.937  63.060 -47.682  1.00  0.00     0.041 C 
BRANCH  13  15
HETATM   15  C   UNL     1     -45.360  60.742 -46.838  1.00  0.00     0.169 A 
HETATM   16  N   UNL     1     -44.736  60.738 -45.650  1.00  0.00    -0.156 NA
HETATM   17  N   UNL     1     -45.469  59.843 -44.965  1.00  0.00    -0.270 N 
HETATM   18  H   UNL     1     -45.219  59.622 -44.007  1.00  0.00     0.190 HD
HETATM   19  C   UNL     1     -46.484  59.354 -45.723  1.00  0.00     0.227 A 
HETATM   20  N   UNL     1     -46.449  59.903 -46.913  1.00  0.00    -0.223 NA
ENDBRANCH  13  15
ENDBRANCH   9  13
ENDBRANCH   1   7
BRANCH   4  21
HETATM   21  O   UNL     1     -42.194  56.269 -54.011  1.00  0.00    -0.351 OA
BRANCH  21  22
HETATM   22  C   UNL     1     -41.210  55.376 -53.481  1.00  0.00     0.180 C 
BRANCH  22  23
HETATM   23  C   UNL     1     -41.880  54.025 -53.172  1.00  0.00     0.010 C 
HETATM   24  C   UNL     1     -41.500  52.935 -54.191  1.00  0.00     0.007 C 
HETATM   25  C   UNL     1     -40.054  52.462 -54.043  1.00  0.00     0.000 C 
HETATM   26  C   UNL     1     -39.753  52.010 -52.617  1.00  0.00     0.000 C 
HETATM   27  C   UNL     1     -40.114  53.077 -51.588  1.00  0.00     0.000 C 
HETATM   28  C   UNL     1     -41.558  53.553 -51.746  1.00  0.00     0.007 C 
ENDBRANCH  22  23
ENDBRANCH  21  22
ENDBRANCH   4  21
TORSDOF 6
ENDMDL
MODEL 7
REMARK VINA RESULT:      -7.2     16.652     20.267
REMARK  6 active torsions:
REMARK  status: ('A' for Active; 'I' for Inactive)
REMARK    1  A    between atoms: C_2  and  N_3 
REMARK    2  A    between atoms: C_2  and  C_21 
REMARK       I    between atoms: N_3  and  C_4 
REMARK       I    between atoms: C_4  and  N_5 
REMARK    3  A    between atoms: N_5  and  C_6 
REMARK    4  A    between atoms: C_9  and  O_10 
REMARK    5  A    between atoms: O_10  and  C_11 
REMARK    6  A    between atoms: C_11  and  C_12 
ROOT
HETATM    1  C   UNL     1     -32.665  40.072 -50.053  1.00  0.00     0.036 A 
HETATM    2  C   UNL     1     -34.004  40.388 -50.288  1.00  0.00     0.032 A 
HETATM    3  C   UNL     1     -34.461  40.642 -51.589  1.00  0.00     0.039 A 
HETATM    4  C   UNL     1     -33.586  40.569 -52.670  1.00  0.00     0.068 A 
HETATM    5  C   UNL     1     -32.239  40.292 -52.436  1.00  0.00     0.039 A 
HETATM    6  C   UNL     1     -31.781  40.043 -51.138  1.00  0.00     0.032 A 
ENDROOT
BRANCH   1   7
HETATM    7  N   UNL     1     -32.140  39.746 -48.785  1.00  0.00    -0.309 N 
HETATM    8  C   UNL     1     -31.890  38.502 -48.277  1.00  0.00     0.321 C 
HETATM    9  N   UNL     1     -31.232  38.466 -47.089  1.00  0.00    -0.332 N 
HETATM   10  O   UNL     1     -32.183  37.430 -48.797  1.00  0.00    -0.247 OA
HETATM   11  H   UNL     1     -31.050  37.523 -46.759  1.00  0.00     0.165 HD
HETATM   12  H   UNL     1     -31.934  40.529 -48.190  1.00  0.00     0.170 HD
BRANCH   9  13
HETATM   13  C   UNL     1     -30.713  39.537 -46.242  1.00  0.00     0.155 C 
HETATM   14  C   UNL     1     -30.832  39.158 -44.769  1.00  0.00     0.041 C 
BRANCH  13  15
HETATM   15  C   UNL     1     -29.285  39.801 -46.629  1.00  0.00     0.169 A 
HETATM   16  N   UNL     1     -28.770  41.036 -46.727  1.00  0.00    -0.156 NA
HETATM   17  N   UNL     1     -27.514  40.772 -47.129  1.00  0.00    -0.270 N 
HETATM   18  H   UNL     1     -26.873  41.540 -47.298  1.00  0.00     0.190 HD
HETATM   19  C   UNL     1     -27.306  39.436 -47.250  1.00  0.00     0.227 A 
HETATM   20  N   UNL     1     -28.403  38.789 -46.938  1.00  0.00    -0.223 NA
ENDBRANCH  13  15
ENDBRANCH   9  13
ENDBRANCH   1   7
BRANCH   4  21
HETATM   21  O   UNL     1     -33.922  40.753 -53.982  1.00  0.00    -0.351 OA
BRANCH  21  22
HETATM   22  C   UNL     1     -35.285  40.490 -54.327  1.00  0.00     0.180 C 
BRANCH  22  23
HETATM   23  C   UNL     1     -35.949  41.806 -54.773  1.00  0.00     0.010 C 
HETATM   24  C   UNL     1     -35.082  42.587 -55.778  1.00  0.00     0.007 C 
HETATM   25  C   UNL     1     -35.034  41.930 -57.157  1.00  0.00     0.000 C 
HETATM   26  C   UNL     1     -36.433  41.682 -57.712  1.00  0.00     0.000 C 
HETATM   27  C   UNL     1     -37.308  40.901 -56.737  1.00  0.00     0.000 C 
HETATM   28  C   UNL     1     -37.347  41.558 -55.357  1.00  0.00     0.007 C 
ENDBRANCH  22  23
ENDBRANCH  21  22
ENDBRANCH   4  21
TORSDOF 6
ENDMDL
MODEL 8
REMARK VINA RESULT:      -7.0      3.345      8.484
REMARK  6 active torsions:
REMARK  status: ('A' for Active; 'I' for Inactive)
REMARK    1  A    between atoms: C_2  and  N_3 
REMARK    2  A    between atoms: C_2  and  C_21 
REMARK       I    between atoms: N_3  and  C_4 
REMARK       I    between atoms: C_4  and  N_5 
REMARK    3  A    between atoms: N_5  and  C_6 
REMARK    4  A    between atoms: C_9  and  O_10 
REMARK    5  A    between atoms: O_10  and  C_11 
REMARK    6  A    between atoms: C_11  and  C_12 
ROOT
HETATM    1  C   UNL     1     -41.852  56.060 -54.527  1.00  0.00     0.036 A 
HETATM    2  C   UNL     1     -41.907  57.449 -54.402  1.00  0.00     0.032 A 
HETATM    3  C   UNL     1     -42.375  58.244 -55.459  1.00  0.00     0.039 A 
HETATM    4  C   UNL     1     -42.806  57.656 -56.644  1.00  0.00     0.068 A 
HETATM    5  C   UNL     1     -42.716  56.272 -56.789  1.00  0.00     0.039 A 
HETATM    6  C   UNL     1     -42.245  55.479 -55.738  1.00  0.00     0.032 A 
ENDROOT
BRANCH   1   7
HETATM    7  N   UNL     1     -41.451  55.189 -53.493  1.00  0.00    -0.309 N 
HETATM    8  C   UNL     1     -42.242  54.376 -52.728  1.00  0.00     0.321 C 
HETATM    9  N   UNL     1     -41.589  53.514 -51.906  1.00  0.00    -0.332 N 
HETATM   10  O   UNL     1     -43.468  54.342 -52.731  1.00  0.00    -0.247 OA
HETATM   11  H   UNL     1     -42.213  52.917 -51.373  1.00  0.00     0.165 HD
HETATM   12  H   UNL     1     -40.465  55.174 -53.300  1.00  0.00     0.170 HD
BRANCH   9  13
HETATM   13  C   UNL     1     -40.163  53.275 -51.697  1.00  0.00     0.155 C 
HETATM   14  C   UNL     1     -39.755  53.684 -50.285  1.00  0.00     0.041 C 
BRANCH  13  15
HETATM   15  C   UNL     1     -39.880  51.821 -51.951  1.00  0.00     0.169 A 
HETATM   16  N   UNL     1     -39.752  51.304 -53.182  1.00  0.00    -0.156 NA
HETATM   17  N   UNL     1     -39.555  50.003 -52.909  1.00  0.00    -0.270 N 
HETATM   18  H   UNL     1     -39.430  49.347 -53.672  1.00  0.00     0.190 HD
HETATM   19  C   UNL     1     -39.559  49.774 -51.570  1.00  0.00     0.227 A 
HETATM   20  N   UNL     1     -39.759  50.902 -50.932  1.00  0.00    -0.223 NA
ENDBRANCH  13  15
ENDBRANCH   9  13
ENDBRANCH   1   7
BRANCH   4  21
HETATM   21  O   UNL     1     -43.320  58.320 -57.723  1.00  0.00    -0.351 OA
BRANCH  21  22
HETATM   22  C   UNL     1     -44.621  57.912 -58.154  1.00  0.00     0.180 C 
BRANCH  22  23
HETATM   23  C   UNL     1     -44.674  57.962 -59.692  1.00  0.00     0.010 C 
HETATM   24  C   UNL     1     -43.632  57.035 -60.345  1.00  0.00     0.007 C 
HETATM   25  C   UNL     1     -43.979  55.554 -60.197  1.00  0.00     0.000 C 
HETATM   26  C   UNL     1     -45.384  55.251 -60.711  1.00  0.00     0.000 C 
HETATM   27  C   UNL     1     -46.436  56.152 -60.072  1.00  0.00     0.000 C 
HETATM   28  C   UNL     1     -46.080  57.632 -60.215  1.00  0.00     0.007 C 
ENDBRANCH  22  23
ENDBRANCH  21  22
ENDBRANCH   4  21
TORSDOF 6
ENDMDL
MODEL 9
REMARK VINA RESULT:      -7.0      1.694      2.137
REMARK  6 active torsions:
REMARK  status: ('A' for Active; 'I' for Inactive)
REMARK    1  A    between atoms: C_2  and  N_3 
REMARK    2  A    between atoms: C_2  and  C_21 
REMARK       I    between atoms: N_3  and  C_4 
REMARK       I    between atoms: C_4  and  N_5 
REMARK    3  A    between atoms: N_5  and  C_6 
REMARK    4  A    between atoms: C_9  and  O_10 
REMARK    5  A    between atoms: O_10  and  C_11 
REMARK    6  A    between atoms: C_11  and  C_12 
ROOT
HETATM    1  C   UNL     1     -43.661  56.232 -55.221  1.00  0.00     0.036 A 
HETATM    2  C   UNL     1     -43.908  56.399 -53.858  1.00  0.00     0.032 A 
HETATM    3  C   UNL     1     -43.122  55.739 -52.903  1.00  0.00     0.039 A 
HETATM    4  C   UNL     1     -42.072  54.917 -53.302  1.00  0.00     0.068 A 
HETATM    5  C   UNL     1     -41.846  54.715 -54.664  1.00  0.00     0.039 A 
HETATM    6  C   UNL     1     -42.633  55.369 -55.617  1.00  0.00     0.032 A 
ENDROOT
BRANCH   1   7
HETATM    7  N   UNL     1     -44.367  56.904 -56.241  1.00  0.00    -0.309 N 
HETATM    8  C   UNL     1     -43.937  57.953 -57.005  1.00  0.00     0.321 C 
HETATM    9  N   UNL     1     -44.752  58.316 -58.030  1.00  0.00    -0.332 N 
HETATM   10  O   UNL     1     -42.889  58.576 -56.864  1.00  0.00    -0.247 OA
HETATM   11  H   UNL     1     -44.385  59.084 -58.583  1.00  0.00     0.165 HD
HETATM   12  H   UNL     1     -45.298  56.567 -56.415  1.00  0.00     0.170 HD
BRANCH   9  13
HETATM   13  C   UNL     1     -46.024  57.766 -58.490  1.00  0.00     0.155 C 
HETATM   14  C   UNL     1     -46.960  58.885 -58.935  1.00  0.00     0.041 C 
BRANCH  13  15
HETATM   15  C   UNL     1     -45.751  56.800 -59.609  1.00  0.00     0.169 A 
HETATM   16  N   UNL     1     -46.502  56.733 -60.718  1.00  0.00    -0.156 NA
HETATM   17  N   UNL     1     -45.912  55.723 -61.381  1.00  0.00    -0.270 N 
HETATM   18  H   UNL     1     -46.282  55.434 -62.280  1.00  0.00     0.190 HD
HETATM   19  C   UNL     1     -44.854  55.230 -60.688  1.00  0.00     0.227 A 
HETATM   20  N   UNL     1     -44.719  55.888 -59.563  1.00  0.00    -0.223 NA
ENDBRANCH  13  15
ENDBRANCH   9  13
ENDBRANCH   1   7
BRANCH   4  21
HETATM   21  O   UNL     1     -41.213  54.258 -52.467  1.00  0.00    -0.351 OA
BRANCH  21  22
HETATM   22  C   UNL     1     -41.175  52.834 -52.595  1.00  0.00     0.180 C 
BRANCH  22  23
HETATM   23  C   UNL     1     -39.734  52.402 -52.922  1.00  0.00     0.010 C 
HETATM   24  C   UNL     1     -39.102  51.569 -51.791  1.00  0.00     0.007 C 
HETATM   25  C   UNL     1     -39.695  50.164 -51.684  1.00  0.00     0.000 C 
HETATM   26  C   UNL     1     -39.630  49.423 -53.016  1.00  0.00     0.000 C 
HETATM   27  C   UNL     1     -40.258  50.225 -54.152  1.00  0.00     0.000 C 
HETATM   28  C   UNL     1     -39.667  51.631 -54.249  1.00  0.00     0.007 C 
ENDBRANCH  22  23
ENDBRANCH  21  22
ENDBRANCH   4  21
TORSDOF 6
ENDMDL
MODEL 10
REMARK VINA RESULT:      -6.9     14.996     16.459
REMARK  6 active torsions:
REMARK  status: ('A' for Active; 'I' for Inactive)
REMARK    1  A    between atoms: C_2  and  N_3 
REMARK    2  A    between atoms: C_2  and  C_21 
REMARK       I    between atoms: N_3  and  C_4 
REMARK       I    between atoms: C_4  and  N_5 
REMARK    3  A    between atoms: N_5  and  C_6 
REMARK    4  A    between atoms: C_9  and  O_10 
REMARK    5  A    between atoms: O_10  and  C_11 
REMARK    6  A    between atoms: C_11  and  C_12 
ROOT
HETATM    1  C   UNL     1     -36.860  41.102 -57.416  1.00  0.00     0.036 A 
HETATM    2  C   UNL     1     -35.756  41.877 -57.058  1.00  0.00     0.032 A 
HETATM    3  C   UNL     1     -35.596  42.328 -55.739  1.00  0.00     0.039 A 
HETATM    4  C   UNL     1     -36.533  41.996 -54.764  1.00  0.00     0.068 A 
HETATM    5  C   UNL     1     -37.658  41.256 -55.125  1.00  0.00     0.039 A 
HETATM    6  C   UNL     1     -37.820  40.810 -56.441  1.00  0.00     0.032 A 
ENDROOT
BRANCH   1   7
HETATM    7  N   UNL     1     -37.062  40.561 -58.703  1.00  0.00    -0.309 N 
HETATM    8  C   UNL     1     -37.269  41.239 -59.873  1.00  0.00     0.321 C 
HETATM    9  N   UNL     1     -37.277  40.485 -61.003  1.00  0.00    -0.332 N 
HETATM   10  O   UNL     1     -37.428  42.449 -59.995  1.00  0.00    -0.247 OA
HETATM   11  H   UNL     1     -37.414  41.030 -61.848  1.00  0.00     0.165 HD
HETATM   12  H   UNL     1     -37.057  39.557 -58.755  1.00  0.00     0.170 HD
BRANCH   9  13
HETATM   13  C   UNL     1     -37.080  39.052 -61.207  1.00  0.00     0.155 C 
HETATM   14  C   UNL     1     -35.762  38.601 -60.585  1.00  0.00     0.041 C 
BRANCH  13  15
HETATM   15  C   UNL     1     -38.249  38.319 -60.610  1.00  0.00     0.169 A 
HETATM   16  N   UNL     1     -39.445  38.235 -61.212  1.00  0.00    -0.156 NA
HETATM   17  N   UNL     1     -40.154  37.542 -60.305  1.00  0.00    -0.270 N 
HETATM   18  H   UNL     1     -41.128  37.328 -60.491  1.00  0.00     0.190 HD
HETATM   19  C   UNL     1     -39.397  37.228 -59.222  1.00  0.00     0.227 A 
HETATM   20  N   UNL     1     -38.184  37.701 -59.381  1.00  0.00    -0.223 NA
ENDBRANCH  13  15
ENDBRANCH   9  13
ENDBRANCH   1   7
BRANCH   4  21
HETATM   21  O   UNL     1     -36.463  42.340 -53.443  1.00  0.00    -0.351 OA
BRANCH  21  22
HETATM   22  C   UNL     1     -35.203  42.125 -52.800  1.00  0.00     0.180 C 
BRANCH  22  23
HETATM   23  C   UNL     1     -35.061  40.628 -52.471  1.00  0.00     0.010 C 
HETATM   24  C   UNL     1     -33.917  39.961 -53.257  1.00  0.00     0.007 C 
HETATM   25  C   UNL     1     -32.533  40.389 -52.769  1.00  0.00     0.000 C 
HETATM   26  C   UNL     1     -32.371  40.167 -51.268  1.00  0.00     0.000 C 
HETATM   27  C   UNL     1     -33.489  40.826 -50.466  1.00  0.00     0.000 C 
HETATM   28  C   UNL     1     -34.871  40.401 -50.964  1.00  0.00     0.007 C 
ENDBRANCH  22  23
ENDBRANCH  21  22
ENDBRANCH   4  21
TORSDOF 6
ENDMDL
