MODEL 1
REMARK VINA RESULT:      -7.6      0.000      0.000
REMARK  8 active torsions:
REMARK  status: ('A' for Active; 'I' for Inactive)
REMARK    1  A    between atoms: C_2  and  N_3 
REMARK    2  A    between atoms: N_3  and  C_5 
REMARK    3  A    between atoms: N_3  and  C_29 
REMARK    4  A    between atoms: C_5  and  C_6 
REMARK    5  A    between atoms: C_6  and  N_7 
REMARK       I    between atoms: N_7  and  C_8 
REMARK    6  A    between atoms: C_8  and  C_9 
REMARK    7  A    between atoms: C_9  and  O_10 
REMARK    8  A    between atoms: N_11  and  C_12 
ROOT
HETATM    1  C   UNL     1     -43.091  57.107 -55.994  1.00  0.00     0.256 C 
HETATM    2  N   UNL     1     -42.396  58.365 -55.648  1.00  0.00    -0.254 N 
HETATM    3  C   UNL     1     -42.020  59.255 -56.649  1.00  0.00     0.330 C 
HETATM    4  O   UNL     1     -41.620  60.404 -56.473  1.00  0.00    -0.246 OA
HETATM    5  N   UNL     1     -42.068  58.828 -57.938  1.00  0.00    -0.308 N 
HETATM    6  C   UNL     1     -42.532  57.604 -58.380  1.00  0.00     0.048 A 
HETATM    7  C   UNL     1     -43.059  56.718 -57.458  1.00  0.00     0.034 A 
HETATM    8  C   UNL     1     -42.496  57.299 -59.742  1.00  0.00     0.030 A 
HETATM    9  C   UNL     1     -43.003  56.082 -60.192  1.00  0.00     0.002 A 
HETATM   10  C   UNL     1     -43.565  55.188 -59.284  1.00  0.00     0.001 A 
HETATM   11  C   UNL     1     -43.605  55.508 -57.926  1.00  0.00     0.015 A 
HETATM   12  H   UNL     1     -41.769  59.525 -58.611  1.00  0.00     0.170 HD
ENDROOT
BRANCH   1  13
HETATM   13  C   UNL     1     -42.372  55.911 -55.194  1.00  0.00     0.279 C 
HETATM   14  N   UNL     1     -41.089  55.570 -55.624  1.00  0.00    -0.355 N 
HETATM   15  H   UNL     1     -40.638  56.294 -56.180  1.00  0.00     0.162 HD
HETATM   16  O   UNL     1     -42.929  55.246 -54.320  1.00  0.00    -0.268 OA
BRANCH  14  17
HETATM   17  C   UNL     1     -40.216  54.786 -54.761  1.00  0.00     0.150 C 
BRANCH  17  18
HETATM   18  C   UNL     1     -40.250  53.247 -54.905  1.00  0.00     0.254 C 
BRANCH  18  19
HETATM   19  N   UNL     1     -40.465  52.469 -53.604  1.00  0.00    -0.070 N 
HETATM   20  H   UNL     1     -41.393  52.045 -53.724  1.00  0.00     0.279 HD
BRANCH  19  21
HETATM   21  C   UNL     1     -40.538  53.312 -52.350  1.00  0.00     0.230 C 
HETATM   22  C   UNL     1     -40.071  52.528 -51.137  1.00  0.00     0.034 C 
ENDBRANCH  19  21
BRANCH  19  23
HETATM   23  C   UNL     1     -39.513  51.294 -53.473  1.00  0.00     0.230 C 
HETATM   24  C   UNL     1     -39.950  50.146 -54.367  1.00  0.00     0.034 C 
ENDBRANCH  19  23
ENDBRANCH  18  19
ENDBRANCH  17  18
ENDBRANCH  14  17
ENDBRANCH   1  13
BRANCH   1  25
HETATM   25  O   UNL     1     -44.464  57.281 -55.702  1.00  0.00    -0.359 OA
HETATM   26  H   UNL     1     -44.499  57.969 -55.016  1.00  0.00     0.213 HD
ENDBRANCH   1  25
BRANCH   2  27
HETATM   27  C   UNL     1     -42.178  58.698 -54.243  1.00  0.00     0.043 A 
HETATM   28  C   UNL     1     -40.908  58.610 -53.639  1.00  0.00     0.031 A 
HETATM   29  C   UNL     1     -40.697  58.989 -52.305  1.00  0.00     0.026 A 
HETATM   30  C   UNL     1     -41.754  59.467 -51.542  1.00  0.00     0.034 A 
HETATM   31 CL   UNL     1     -41.492  59.951 -49.916  1.00  0.00    -0.084 Cl
HETATM   32  C   UNL     1     -43.019  59.566 -52.105  1.00  0.00     0.026 A 
HETATM   33  C   UNL     1     -43.224  59.188 -53.439  1.00  0.00     0.031 A 
ENDBRANCH   2  27
TORSDOF 8
ENDMDL
MODEL 2
REMARK VINA RESULT:      -7.5      2.146      6.107
REMARK  8 active torsions:
REMARK  status: ('A' for Active; 'I' for Inactive)
REMARK    1  A    between atoms: C_2  and  N_3 
REMARK    2  A    between atoms: N_3  and  C_5 
REMARK    3  A    between atoms: N_3  and  C_29 
REMARK    4  A    between atoms: C_5  and  C_6 
REMARK    5  A    between atoms: C_6  and  N_7 
REMARK       I    between atoms: N_7  and  C_8 
REMARK    6  A    between atoms: C_8  and  C_9 
REMARK    7  A    between atoms: C_9  and  O_10 
REMARK    8  A    between atoms: N_11  and  C_12 
ROOT
HETATM    1  C   UNL     1     -41.387  55.772 -53.295  1.00  0.00     0.256 C 
HETATM    2  N   UNL     1     -41.773  56.291 -51.966  1.00  0.00    -0.254 N 
HETATM    3  C   UNL     1     -41.373  55.626 -50.811  1.00  0.00     0.330 C 
HETATM    4  O   UNL     1     -41.464  56.062 -49.665  1.00  0.00    -0.246 OA
HETATM    5  N   UNL     1     -40.857  54.375 -50.938  1.00  0.00    -0.308 N 
HETATM    6  C   UNL     1     -40.611  53.705 -52.121  1.00  0.00     0.048 A 
HETATM    7  C   UNL     1     -40.847  54.357 -53.318  1.00  0.00     0.034 A 
HETATM    8  C   UNL     1     -40.098  52.407 -52.088  1.00  0.00     0.030 A 
HETATM    9  C   UNL     1     -39.809  51.748 -53.282  1.00  0.00     0.002 A 
HETATM   10  C   UNL     1     -40.011  52.396 -54.497  1.00  0.00     0.001 A 
HETATM   11  C   UNL     1     -40.516  53.698 -54.517  1.00  0.00     0.015 A 
HETATM   12  H   UNL     1     -40.599  53.948 -50.055  1.00  0.00     0.170 HD
ENDROOT
BRANCH   1  13
HETATM   13  C   UNL     1     -42.700  55.768 -54.223  1.00  0.00     0.279 C 
HETATM   14  N   UNL     1     -42.724  56.704 -55.257  1.00  0.00    -0.355 N 
HETATM   15  H   UNL     1     -41.804  57.071 -55.498  1.00  0.00     0.162 HD
HETATM   16  O   UNL     1     -43.689  55.068 -53.999  1.00  0.00    -0.268 OA
BRANCH  14  17
HETATM   17  C   UNL     1     -43.660  56.546 -56.362  1.00  0.00     0.150 C 
BRANCH  17  18
HETATM   18  C   UNL     1     -43.167  55.803 -57.626  1.00  0.00     0.254 C 
BRANCH  18  19
HETATM   19  N   UNL     1     -44.075  55.918 -58.852  1.00  0.00    -0.070 N 
HETATM   20  H   UNL     1     -44.979  56.211 -58.460  1.00  0.00     0.279 HD
BRANCH  19  21
HETATM   21  C   UNL     1     -44.329  54.625 -59.595  1.00  0.00     0.230 C 
HETATM   22  C   UNL     1     -44.986  54.887 -60.938  1.00  0.00     0.034 C 
ENDBRANCH  19  21
BRANCH  19  23
HETATM   23  C   UNL     1     -43.662  57.057 -59.769  1.00  0.00     0.230 C 
HETATM   24  C   UNL     1     -42.155  57.069 -59.965  1.00  0.00     0.034 C 
ENDBRANCH  19  23
ENDBRANCH  18  19
ENDBRANCH  17  18
ENDBRANCH  14  17
ENDBRANCH   1  13
BRANCH   1  25
HETATM   25  O   UNL     1     -40.319  56.568 -53.773  1.00  0.00    -0.359 OA
HETATM   26  H   UNL     1     -40.519  57.473 -53.481  1.00  0.00     0.213 HD
ENDBRANCH   1  25
BRANCH   2  27
HETATM   27  C   UNL     1     -42.512  57.548 -51.877  1.00  0.00     0.043 A 
HETATM   28  C   UNL     1     -43.880  57.592 -51.544  1.00  0.00     0.031 A 
HETATM   29  C   UNL     1     -44.566  58.807 -51.403  1.00  0.00     0.026 A 
HETATM   30  C   UNL     1     -43.898  60.010 -51.589  1.00  0.00     0.034 A 
HETATM   31 CL   UNL     1     -44.733  61.497 -51.395  1.00  0.00    -0.084 Cl
HETATM   32  C   UNL     1     -42.550  60.003 -51.919  1.00  0.00     0.026 A 
HETATM   33  C   UNL     1     -41.868  58.786 -52.056  1.00  0.00     0.031 A 
ENDBRANCH   2  27
TORSDOF 8
ENDMDL
MODEL 3
REMARK VINA RESULT:      -7.5      2.289      6.308
REMARK  8 active torsions:
REMARK  status: ('A' for Active; 'I' for Inactive)
REMARK    1  A    between atoms: C_2  and  N_3 
REMARK    2  A    between atoms: N_3  and  C_5 
REMARK    3  A    between atoms: N_3  and  C_29 
REMARK    4  A    between atoms: C_5  and  C_6 
REMARK    5  A    between atoms: C_6  and  N_7 
REMARK       I    between atoms: N_7  and  C_8 
REMARK    6  A    between atoms: C_8  and  C_9 
REMARK    7  A    between atoms: C_9  and  O_10 
REMARK    8  A    between atoms: N_11  and  C_12 
ROOT
HETATM    1  C   UNL     1     -41.294  55.240 -53.802  1.00  0.00     0.256 C 
HETATM    2  N   UNL     1     -41.827  56.066 -52.697  1.00  0.00    -0.254 N 
HETATM    3  C   UNL     1     -41.530  55.745 -51.376  1.00  0.00     0.330 C 
HETATM    4  O   UNL     1     -41.749  56.458 -50.399  1.00  0.00    -0.246 OA
HETATM    5  N   UNL     1     -40.973  54.531 -51.122  1.00  0.00    -0.308 N 
HETATM    6  C   UNL     1     -40.589  53.591 -52.059  1.00  0.00     0.048 A 
HETATM    7  C   UNL     1     -40.719  53.897 -53.402  1.00  0.00     0.034 A 
HETATM    8  C   UNL     1     -40.050  52.374 -51.639  1.00  0.00     0.030 A 
HETATM    9  C   UNL     1     -39.624  51.444 -52.585  1.00  0.00     0.002 A 
HETATM   10  C   UNL     1     -39.718  51.743 -53.942  1.00  0.00     0.001 A 
HETATM   11  C   UNL     1     -40.250  52.968 -54.349  1.00  0.00     0.015 A 
HETATM   12  H   UNL     1     -40.795  54.361 -50.138  1.00  0.00     0.170 HD
ENDROOT
BRANCH   1  13
HETATM   13  C   UNL     1     -42.505  54.929 -54.812  1.00  0.00     0.279 C 
HETATM   14  N   UNL     1     -42.413  55.510 -56.078  1.00  0.00    -0.355 N 
HETATM   15  H   UNL     1     -41.471  55.808 -56.324  1.00  0.00     0.162 HD
HETATM   16  O   UNL     1     -43.518  54.307 -54.489  1.00  0.00    -0.268 OA
BRANCH  14  17
HETATM   17  C   UNL     1     -43.233  55.006 -57.172  1.00  0.00     0.150 C 
BRANCH  17  18
HETATM   18  C   UNL     1     -43.401  55.903 -58.421  1.00  0.00     0.254 C 
BRANCH  18  19
HETATM   19  N   UNL     1     -44.796  56.498 -58.619  1.00  0.00    -0.070 N 
HETATM   20  H   UNL     1     -45.353  56.071 -57.868  1.00  0.00     0.279 HD
BRANCH  19  21
HETATM   21  C   UNL     1     -45.479  56.133 -59.919  1.00  0.00     0.230 C 
HETATM   22  C   UNL     1     -44.734  55.018 -60.631  1.00  0.00     0.034 C 
ENDBRANCH  19  21
BRANCH  19  23
HETATM   23  C   UNL     1     -44.832  57.989 -58.330  1.00  0.00     0.230 C 
HETATM   24  C   UNL     1     -44.974  58.244 -56.839  1.00  0.00     0.034 C 
ENDBRANCH  19  23
ENDBRANCH  18  19
ENDBRANCH  17  18
ENDBRANCH  14  17
ENDBRANCH   1  13
BRANCH   1  25
HETATM   25  O   UNL     1     -40.203  55.939 -54.371  1.00  0.00    -0.359 OA
HETATM   26  H   UNL     1     -40.597  56.570 -54.997  1.00  0.00     0.213 HD
ENDBRANCH   1  25
BRANCH   2  27
HETATM   27  C   UNL     1     -42.603  57.263 -53.010  1.00  0.00     0.043 A 
HETATM   28  C   UNL     1     -43.994  57.330 -52.805  1.00  0.00     0.031 A 
HETATM   29  C   UNL     1     -44.721  58.504 -53.052  1.00  0.00     0.026 A 
HETATM   30  C   UNL     1     -44.071  59.642 -53.510  1.00  0.00     0.034 A 
HETATM   31 CL   UNL     1     -44.957  61.085 -53.792  1.00  0.00    -0.084 Cl
HETATM   32  C   UNL     1     -42.700  59.611 -53.724  1.00  0.00     0.026 A 
HETATM   33  C   UNL     1     -41.978  58.436 -53.472  1.00  0.00     0.031 A 
ENDBRANCH   2  27
TORSDOF 8
ENDMDL
MODEL 4
REMARK VINA RESULT:      -7.0      2.845      6.807
REMARK  8 active torsions:
REMARK  status: ('A' for Active; 'I' for Inactive)
REMARK    1  A    between atoms: C_2  and  N_3 
REMARK    2  A    between atoms: N_3  and  C_5 
REMARK    3  A    between atoms: N_3  and  C_29 
REMARK    4  A    between atoms: C_5  and  C_6 
REMARK    5  A    between atoms: C_6  and  N_7 
REMARK       I    between atoms: N_7  and  C_8 
REMARK    6  A    between atoms: C_8  and  C_9 
REMARK    7  A    between atoms: C_9  and  O_10 
REMARK    8  A    between atoms: N_11  and  C_12 
ROOT
HETATM    1  C   UNL     1     -43.638  57.675 -53.001  1.00  0.00     0.256 C 
HETATM    2  N   UNL     1     -42.458  57.027 -52.390  1.00  0.00    -0.254 N 
HETATM    3  C   UNL     1     -41.914  57.531 -51.212  1.00  0.00     0.330 C 
HETATM    4  O   UNL     1     -41.070  56.970 -50.516  1.00  0.00    -0.246 OA
HETATM    5  N   UNL     1     -42.320  58.758 -50.793  1.00  0.00    -0.308 N 
HETATM    6  C   UNL     1     -43.291  59.547 -51.379  1.00  0.00     0.048 A 
HETATM    7  C   UNL     1     -43.982  59.052 -52.471  1.00  0.00     0.034 A 
HETATM    8  C   UNL     1     -43.582  60.802 -50.843  1.00  0.00     0.030 A 
HETATM    9  C   UNL     1     -44.592  61.578 -51.408  1.00  0.00     0.002 A 
HETATM   10  C   UNL     1     -45.319  61.087 -52.489  1.00  0.00     0.001 A 
HETATM   11  C   UNL     1     -45.026  59.826 -53.011  1.00  0.00     0.015 A 
HETATM   12  H   UNL     1     -41.873  59.066 -49.936  1.00  0.00     0.170 HD
ENDROOT
BRANCH   1  13
HETATM   13  C   UNL     1     -43.341  57.858 -54.571  1.00  0.00     0.279 C 
HETATM   14  N   UNL     1     -44.097  57.065 -55.435  1.00  0.00    -0.355 N 
HETATM   15  H   UNL     1     -44.945  56.691 -55.011  1.00  0.00     0.162 HD
HETATM   16  O   UNL     1     -42.436  58.567 -55.014  1.00  0.00    -0.268 OA
BRANCH  14  17
HETATM   17  C   UNL     1     -44.185  57.407 -56.848  1.00  0.00     0.150 C 
BRANCH  17  18
HETATM   18  C   UNL     1     -43.413  56.522 -57.854  1.00  0.00     0.254 C 
BRANCH  18  19
HETATM   19  N   UNL     1     -44.072  56.358 -59.226  1.00  0.00    -0.070 N 
HETATM   20  H   UNL     1     -45.020  56.728 -59.087  1.00  0.00     0.279 HD
BRANCH  19  21
HETATM   21  C   UNL     1     -44.234  54.930 -59.700  1.00  0.00     0.230 C 
HETATM   22  C   UNL     1     -44.944  54.878 -61.041  1.00  0.00     0.034 C 
ENDBRANCH  19  21
BRANCH  19  23
HETATM   23  C   UNL     1     -43.450  57.263 -60.274  1.00  0.00     0.230 C 
HETATM   24  C   UNL     1     -41.957  57.417 -60.035  1.00  0.00     0.034 C 
ENDBRANCH  19  23
ENDBRANCH  18  19
ENDBRANCH  17  18
ENDBRANCH  14  17
ENDBRANCH   1  13
BRANCH   1  25
HETATM   25  O   UNL     1     -44.769  56.882 -52.694  1.00  0.00    -0.359 OA
HETATM   26  H   UNL     1     -45.512  57.294 -53.168  1.00  0.00     0.213 HD
ENDBRANCH   1  25
BRANCH   2  27
HETATM   27  C   UNL     1     -41.919  55.811 -52.992  1.00  0.00     0.043 A 
HETATM   28  C   UNL     1     -40.860  55.839 -53.920  1.00  0.00     0.031 A 
HETATM   29  C   UNL     1     -40.309  54.662 -54.448  1.00  0.00     0.026 A 
HETATM   30  C   UNL     1     -40.805  53.425 -54.056  1.00  0.00     0.034 A 
HETATM   31 CL   UNL     1     -40.116  51.984 -54.686  1.00  0.00    -0.084 Cl
HETATM   32  C   UNL     1     -41.848  53.360 -53.144  1.00  0.00     0.026 A 
HETATM   33  C   UNL     1     -42.393  54.540 -52.618  1.00  0.00     0.031 A 
ENDBRANCH   2  27
TORSDOF 8
ENDMDL
MODEL 5
REMARK VINA RESULT:      -7.0      1.971      6.123
REMARK  8 active torsions:
REMARK  status: ('A' for Active; 'I' for Inactive)
REMARK    1  A    between atoms: C_2  and  N_3 
REMARK    2  A    between atoms: N_3  and  C_5 
REMARK    3  A    between atoms: N_3  and  C_29 
REMARK    4  A    between atoms: C_5  and  C_6 
REMARK    5  A    between atoms: C_6  and  N_7 
REMARK       I    between atoms: N_7  and  C_8 
REMARK    6  A    between atoms: C_8  and  C_9 
REMARK    7  A    between atoms: C_9  and  O_10 
REMARK    8  A    between atoms: N_11  and  C_12 
ROOT
HETATM    1  C   UNL     1     -41.107  55.654 -53.928  1.00  0.00     0.256 C 
HETATM    2  N   UNL     1     -41.573  56.460 -52.779  1.00  0.00    -0.254 N 
HETATM    3  C   UNL     1     -41.337  56.026 -51.478  1.00  0.00     0.330 C 
HETATM    4  O   UNL     1     -41.499  56.695 -50.460  1.00  0.00    -0.246 OA
HETATM    5  N   UNL     1     -40.916  54.747 -51.296  1.00  0.00    -0.308 N 
HETATM    6  C   UNL     1     -40.615  53.832 -52.287  1.00  0.00     0.048 A 
HETATM    7  C   UNL     1     -40.685  54.235 -53.609  1.00  0.00     0.034 A 
HETATM    8  C   UNL     1     -40.215  52.541 -51.941  1.00  0.00     0.030 A 
HETATM    9  C   UNL     1     -39.871  51.633 -52.940  1.00  0.00     0.002 A 
HETATM   10  C   UNL     1     -39.906  52.026 -54.276  1.00  0.00     0.001 A 
HETATM   11  C   UNL     1     -40.298  53.323 -54.609  1.00  0.00     0.015 A 
HETATM   12  H   UNL     1     -40.777  54.497 -50.323  1.00  0.00     0.170 HD
ENDROOT
BRANCH   1  13
HETATM   13  C   UNL     1     -42.325  55.538 -54.972  1.00  0.00     0.279 C 
HETATM   14  N   UNL     1     -42.149  56.187 -56.195  1.00  0.00    -0.355 N 
HETATM   15  H   UNL     1     -41.176  56.400 -56.409  1.00  0.00     0.162 HD
HETATM   16  O   UNL     1     -43.403  55.006 -54.704  1.00  0.00    -0.268 OA
BRANCH  14  17
HETATM   17  C   UNL     1     -42.995  55.845 -57.330  1.00  0.00     0.150 C 
BRANCH  17  18
HETATM   18  C   UNL     1     -43.913  56.948 -57.906  1.00  0.00     0.254 C 
BRANCH  18  19
HETATM   19  N   UNL     1     -43.196  58.201 -58.413  1.00  0.00    -0.070 N 
HETATM   20  H   UNL     1     -42.206  58.015 -58.210  1.00  0.00     0.279 HD
BRANCH  19  21
HETATM   21  C   UNL     1     -43.547  59.485 -57.693  1.00  0.00     0.230 C 
HETATM   22  C   UNL     1     -42.336  60.060 -56.981  1.00  0.00     0.034 C 
ENDBRANCH  19  21
BRANCH  19  23
HETATM   23  C   UNL     1     -43.265  58.332 -59.924  1.00  0.00     0.230 C 
HETATM   24  C   UNL     1     -41.870  58.340 -60.528  1.00  0.00     0.034 C 
ENDBRANCH  19  23
ENDBRANCH  18  19
ENDBRANCH  17  18
ENDBRANCH  14  17
ENDBRANCH   1  13
BRANCH   1  25
HETATM   25  O   UNL     1     -39.939  56.268 -54.437  1.00  0.00    -0.359 OA
HETATM   26  H   UNL     1     -39.797  55.872 -55.313  1.00  0.00     0.213 HD
ENDBRANCH   1  25
BRANCH   2  27
HETATM   27  C   UNL     1     -42.212  57.751 -53.024  1.00  0.00     0.043 A 
HETATM   28  C   UNL     1     -43.611  57.911 -52.999  1.00  0.00     0.031 A 
HETATM   29  C   UNL     1     -44.213  59.166 -53.176  1.00  0.00     0.026 A 
HETATM   30  C   UNL     1     -43.427  60.292 -53.379  1.00  0.00     0.034 A 
HETATM   31 CL   UNL     1     -44.163  61.831 -53.574  1.00  0.00    -0.084 Cl
HETATM   32  C   UNL     1     -42.046  60.170 -53.410  1.00  0.00     0.026 A 
HETATM   33  C   UNL     1     -41.449  58.914 -53.230  1.00  0.00     0.031 A 
ENDBRANCH   2  27
TORSDOF 8
ENDMDL
MODEL 6
REMARK VINA RESULT:      -6.9      2.966      6.852
REMARK  8 active torsions:
REMARK  status: ('A' for Active; 'I' for Inactive)
REMARK    1  A    between atoms: C_2  and  N_3 
REMARK    2  A    between atoms: N_3  and  C_5 
REMARK    3  A    between atoms: N_3  and  C_29 
REMARK    4  A    between atoms: C_5  and  C_6 
REMARK    5  A    between atoms: C_6  and  N_7 
REMARK       I    between atoms: N_7  and  C_8 
REMARK    6  A    between atoms: C_8  and  C_9 
REMARK    7  A    between atoms: C_9  and  O_10 
REMARK    8  A    between atoms: N_11  and  C_12 
ROOT
HETATM    1  C   UNL     1     -43.284  55.475 -53.924  1.00  0.00     0.256 C 
HETATM    2  N   UNL     1     -42.294  55.354 -55.016  1.00  0.00    -0.254 N 
HETATM    3  C   UNL     1     -41.118  54.637 -54.817  1.00  0.00     0.330 C 
HETATM    4  O   UNL     1     -40.324  54.306 -55.696  1.00  0.00    -0.246 OA
HETATM    5  N   UNL     1     -40.788  54.287 -53.546  1.00  0.00    -0.308 N 
HETATM    6  C   UNL     1     -41.547  54.501 -52.412  1.00  0.00     0.048 A 
HETATM    7  C   UNL     1     -42.797  55.078 -52.546  1.00  0.00     0.034 A 
HETATM    8  C   UNL     1     -41.060  54.102 -51.166  1.00  0.00     0.030 A 
HETATM    9  C   UNL     1     -41.844  54.280 -50.028  1.00  0.00     0.002 A 
HETATM   10  C   UNL     1     -43.117  54.831 -50.144  1.00  0.00     0.001 A 
HETATM   11  C   UNL     1     -43.597  55.217 -51.397  1.00  0.00     0.015 A 
HETATM   12  H   UNL     1     -39.913  53.778 -53.477  1.00  0.00     0.170 HD
ENDROOT
BRANCH   1  13
HETATM   13  C   UNL     1     -43.716  57.020 -53.821  1.00  0.00     0.279 C 
HETATM   14  N   UNL     1     -42.728  57.907 -53.392  1.00  0.00    -0.355 N 
HETATM   15  H   UNL     1     -41.782  57.539 -53.481  1.00  0.00     0.162 HD
HETATM   16  O   UNL     1     -44.869  57.418 -54.001  1.00  0.00    -0.268 OA
BRANCH  14  17
HETATM   17  C   UNL     1     -42.884  59.337 -53.618  1.00  0.00     0.150 C 
BRANCH  17  18
HETATM   18  C   UNL     1     -42.276  60.304 -52.575  1.00  0.00     0.254 C 
BRANCH  18  19
HETATM   19  N   UNL     1     -42.354  59.836 -51.120  1.00  0.00    -0.070 N 
HETATM   20  H   UNL     1     -42.883  58.956 -51.175  1.00  0.00     0.279 HD
BRANCH  19  21
HETATM   21  C   UNL     1     -43.128  60.742 -50.188  1.00  0.00     0.230 C 
HETATM   22  C   UNL     1     -42.970  62.198 -50.589  1.00  0.00     0.034 C 
ENDBRANCH  19  21
BRANCH  19  23
HETATM   23  C   UNL     1     -40.996  59.440 -50.569  1.00  0.00     0.230 C 
HETATM   24  C   UNL     1     -40.894  57.931 -50.422  1.00  0.00     0.034 C 
ENDBRANCH  19  23
ENDBRANCH  18  19
ENDBRANCH  17  18
ENDBRANCH  14  17
ENDBRANCH   1  13
BRANCH   1  25
HETATM   25  O   UNL     1     -44.340  54.575 -54.201  1.00  0.00    -0.359 OA
HETATM   26  H   UNL     1     -44.013  53.699 -53.936  1.00  0.00     0.213 HD
ENDBRANCH   1  25
BRANCH   2  27
HETATM   27  C   UNL     1     -42.600  55.927 -56.324  1.00  0.00     0.043 A 
HETATM   28  C   UNL     1     -42.233  57.242 -56.670  1.00  0.00     0.031 A 
HETATM   29  C   UNL     1     -42.477  57.763 -57.950  1.00  0.00     0.026 A 
HETATM   30  C   UNL     1     -43.094  56.978 -58.915  1.00  0.00     0.034 A 
HETATM   31 CL   UNL     1     -43.373  57.609 -60.487  1.00  0.00    -0.084 Cl
HETATM   32  C   UNL     1     -43.468  55.678 -58.607  1.00  0.00     0.026 A 
HETATM   33  C   UNL     1     -43.220  55.161 -57.328  1.00  0.00     0.031 A 
ENDBRANCH   2  27
TORSDOF 8
ENDMDL
MODEL 7
REMARK VINA RESULT:      -6.9      2.953      6.583
REMARK  8 active torsions:
REMARK  status: ('A' for Active; 'I' for Inactive)
REMARK    1  A    between atoms: C_2  and  N_3 
REMARK    2  A    between atoms: N_3  and  C_5 
REMARK    3  A    between atoms: N_3  and  C_29 
REMARK    4  A    between atoms: C_5  and  C_6 
REMARK    5  A    between atoms: C_6  and  N_7 
REMARK       I    between atoms: N_7  and  C_8 
REMARK    6  A    between atoms: C_8  and  C_9 
REMARK    7  A    between atoms: C_9  and  O_10 
REMARK    8  A    between atoms: N_11  and  C_12 
ROOT
HETATM    1  C   UNL     1     -43.675  57.036 -54.849  1.00  0.00     0.256 C 
HETATM    2  N   UNL     1     -42.627  56.616 -53.893  1.00  0.00    -0.254 N 
HETATM    3  C   UNL     1     -42.353  57.391 -52.770  1.00  0.00     0.330 C 
HETATM    4  O   UNL     1     -41.655  57.050 -51.818  1.00  0.00    -0.246 OA
HETATM    5  N   UNL     1     -42.873  58.645 -52.714  1.00  0.00    -0.308 N 
HETATM    6  C   UNL     1     -43.726  59.222 -53.636  1.00  0.00     0.048 A 
HETATM    7  C   UNL     1     -44.161  58.464 -54.708  1.00  0.00     0.034 A 
HETATM    8  C   UNL     1     -44.159  60.537 -53.452  1.00  0.00     0.030 A 
HETATM    9  C   UNL     1     -45.052  61.103 -54.359  1.00  0.00     0.002 A 
HETATM   10  C   UNL     1     -45.526  60.348 -55.428  1.00  0.00     0.001 A 
HETATM   11  C   UNL     1     -45.094  59.031 -55.596  1.00  0.00     0.015 A 
HETATM   12  H   UNL     1     -42.622  59.155 -51.874  1.00  0.00     0.170 HD
ENDROOT
BRANCH   1  13
HETATM   13  C   UNL     1     -43.066  56.912 -56.332  1.00  0.00     0.279 C 
HETATM   14  N   UNL     1     -43.535  55.847 -57.101  1.00  0.00    -0.355 N 
HETATM   15  H   UNL     1     -44.413  55.454 -56.764  1.00  0.00     0.162 HD
HETATM   16  O   UNL     1     -42.161  57.632 -56.758  1.00  0.00    -0.268 OA
BRANCH  14  17
HETATM   17  C   UNL     1     -43.349  55.854 -58.546  1.00  0.00     0.150 C 
BRANCH  17  18
HETATM   18  C   UNL     1     -44.606  55.716 -59.437  1.00  0.00     0.254 C 
BRANCH  18  19
HETATM   19  N   UNL     1     -45.206  57.032 -59.936  1.00  0.00    -0.070 N 
HETATM   20  H   UNL     1     -45.093  56.981 -60.956  1.00  0.00     0.279 HD
BRANCH  19  21
HETATM   21  C   UNL     1     -44.486  58.284 -59.487  1.00  0.00     0.230 C 
HETATM   22  C   UNL     1     -43.955  59.064 -60.676  1.00  0.00     0.034 C 
ENDBRANCH  19  21
BRANCH  19  23
HETATM   23  C   UNL     1     -46.707  57.100 -59.713  1.00  0.00     0.230 C 
HETATM   24  C   UNL     1     -47.024  57.782 -58.393  1.00  0.00     0.034 C 
ENDBRANCH  19  23
ENDBRANCH  18  19
ENDBRANCH  17  18
ENDBRANCH  14  17
ENDBRANCH   1  13
BRANCH   1  25
HETATM   25  O   UNL     1     -44.820  56.243 -54.604  1.00  0.00    -0.359 OA
HETATM   26  H   UNL     1     -44.753  55.492 -55.217  1.00  0.00     0.213 HD
ENDBRANCH   1  25
BRANCH   2  27
HETATM   27  C   UNL     1     -41.939  55.345 -54.100  1.00  0.00     0.043 A 
HETATM   28  C   UNL     1     -40.691  55.264 -54.747  1.00  0.00     0.031 A 
HETATM   29  C   UNL     1     -40.010  54.045 -54.889  1.00  0.00     0.026 A 
HETATM   30  C   UNL     1     -40.563  52.877 -54.382  1.00  0.00     0.034 A 
HETATM   31 CL   UNL     1     -39.720  51.389 -54.535  1.00  0.00    -0.084 Cl
HETATM   32  C   UNL     1     -41.791  52.920 -53.738  1.00  0.00     0.026 A 
HETATM   33  C   UNL     1     -42.466  54.141 -53.598  1.00  0.00     0.031 A 
ENDBRANCH   2  27
TORSDOF 8
ENDMDL
MODEL 8
REMARK VINA RESULT:      -6.8      2.452      5.815
REMARK  8 active torsions:
REMARK  status: ('A' for Active; 'I' for Inactive)
REMARK    1  A    between atoms: C_2  and  N_3 
REMARK    2  A    between atoms: N_3  and  C_5 
REMARK    3  A    between atoms: N_3  and  C_29 
REMARK    4  A    between atoms: C_5  and  C_6 
REMARK    5  A    between atoms: C_6  and  N_7 
REMARK       I    between atoms: N_7  and  C_8 
REMARK    6  A    between atoms: C_8  and  C_9 
REMARK    7  A    between atoms: C_9  and  O_10 
REMARK    8  A    between atoms: N_11  and  C_12 
ROOT
HETATM    1  C   UNL     1     -41.855  57.599 -52.850  1.00  0.00     0.256 C 
HETATM    2  N   UNL     1     -43.069  57.860 -52.047  1.00  0.00    -0.254 N 
HETATM    3  C   UNL     1     -43.848  56.801 -51.590  1.00  0.00     0.330 C 
HETATM    4  O   UNL     1     -44.753  56.882 -50.763  1.00  0.00    -0.246 OA
HETATM    5  N   UNL     1     -43.620  55.566 -52.112  1.00  0.00    -0.308 N 
HETATM    6  C   UNL     1     -42.626  55.225 -53.010  1.00  0.00     0.048 A 
HETATM    7  C   UNL     1     -41.720  56.194 -53.400  1.00  0.00     0.034 A 
HETATM    8  C   UNL     1     -42.534  53.912 -53.475  1.00  0.00     0.030 A 
HETATM    9  C   UNL     1     -41.506  53.559 -54.347  1.00  0.00     0.002 A 
HETATM   10  C   UNL     1     -40.565  54.511 -54.730  1.00  0.00     0.001 A 
HETATM   11  C   UNL     1     -40.662  55.818 -54.250  1.00  0.00     0.015 A 
HETATM   12  H   UNL     1     -44.232  54.847 -51.743  1.00  0.00     0.170 HD
ENDROOT
BRANCH   1  13
HETATM   13  C   UNL     1     -41.888  58.580 -54.123  1.00  0.00     0.279 C 
HETATM   14  N   UNL     1     -42.820  58.269 -55.114  1.00  0.00    -0.355 N 
HETATM   15  H   UNL     1     -43.566  57.654 -54.795  1.00  0.00     0.162 HD
HETATM   16  O   UNL     1     -41.083  59.497 -54.296  1.00  0.00    -0.268 OA
BRANCH  14  17
HETATM   17  C   UNL     1     -43.193  59.271 -56.104  1.00  0.00     0.150 C 
BRANCH  17  18
HETATM   18  C   UNL     1     -44.060  58.816 -57.301  1.00  0.00     0.254 C 
BRANCH  18  19
HETATM   19  N   UNL     1     -43.338  57.965 -58.349  1.00  0.00    -0.070 N 
HETATM   20  H   UNL     1     -42.373  57.916 -58.001  1.00  0.00     0.279 HD
BRANCH  19  21
HETATM   21  C   UNL     1     -43.263  58.569 -59.734  1.00  0.00     0.230 C 
HETATM   22  C   UNL     1     -41.927  58.268 -60.389  1.00  0.00     0.034 C 
ENDBRANCH  19  21
BRANCH  19  23
HETATM   23  C   UNL     1     -43.824  56.527 -58.355  1.00  0.00     0.230 C 
HETATM   24  C   UNL     1     -42.980  55.670 -57.426  1.00  0.00     0.034 C 
ENDBRANCH  19  23
ENDBRANCH  18  19
ENDBRANCH  17  18
ENDBRANCH  14  17
ENDBRANCH   1  13
BRANCH   1  25
HETATM   25  O   UNL     1     -40.736  57.758 -52.000  1.00  0.00    -0.359 OA
HETATM   26  H   UNL     1     -40.368  58.632 -52.215  1.00  0.00     0.213 HD
ENDBRANCH   1  25
BRANCH   2  27
HETATM   27  C   UNL     1     -43.397  59.233 -51.673  1.00  0.00     0.043 A 
HETATM   28  C   UNL     1     -42.622  59.966 -50.754  1.00  0.00     0.031 A 
HETATM   29  C   UNL     1     -42.909  61.304 -50.447  1.00  0.00     0.026 A 
HETATM   30  C   UNL     1     -43.981  61.943 -51.056  1.00  0.00     0.034 A 
HETATM   31 CL   UNL     1     -44.321  63.587 -50.697  1.00  0.00    -0.084 Cl
HETATM   32  C   UNL     1     -44.766  61.250 -51.967  1.00  0.00     0.026 A 
HETATM   33  C   UNL     1     -44.473  59.914 -52.272  1.00  0.00     0.031 A 
ENDBRANCH   2  27
TORSDOF 8
ENDMDL
MODEL 9
REMARK VINA RESULT:      -6.8      3.147      6.647
REMARK  8 active torsions:
REMARK  status: ('A' for Active; 'I' for Inactive)
REMARK    1  A    between atoms: C_2  and  N_3 
REMARK    2  A    between atoms: N_3  and  C_5 
REMARK    3  A    between atoms: N_3  and  C_29 
REMARK    4  A    between atoms: C_5  and  C_6 
REMARK    5  A    between atoms: C_6  and  N_7 
REMARK       I    between atoms: N_7  and  C_8 
REMARK    6  A    between atoms: C_8  and  C_9 
REMARK    7  A    between atoms: C_9  and  O_10 
REMARK    8  A    between atoms: N_11  and  C_12 
ROOT
HETATM    1  C   UNL     1     -42.495  54.895 -52.631  1.00  0.00     0.256 C 
HETATM    2  N   UNL     1     -42.414  55.356 -54.034  1.00  0.00    -0.254 N 
HETATM    3  C   UNL     1     -41.680  54.631 -54.967  1.00  0.00     0.330 C 
HETATM    4  O   UNL     1     -41.700  54.803 -56.184  1.00  0.00    -0.246 OA
HETATM    5  N   UNL     1     -40.843  53.662 -54.512  1.00  0.00    -0.308 N 
HETATM    6  C   UNL     1     -40.695  53.255 -53.199  1.00  0.00     0.048 A 
HETATM    7  C   UNL     1     -41.497  53.829 -52.229  1.00  0.00     0.034 A 
HETATM    8  C   UNL     1     -39.772  52.257 -52.883  1.00  0.00     0.030 A 
HETATM    9  C   UNL     1     -39.653  51.818 -51.566  1.00  0.00     0.002 A 
HETATM   10  C   UNL     1     -40.472  52.360 -50.579  1.00  0.00     0.001 A 
HETATM   11  C   UNL     1     -41.398  53.351 -50.909  1.00  0.00     0.015 A 
HETATM   12  H   UNL     1     -40.332  53.185 -55.246  1.00  0.00     0.170 HD
ENDROOT
BRANCH   1  13
HETATM   13  C   UNL     1     -42.210  56.160 -51.680  1.00  0.00     0.279 C 
HETATM   14  N   UNL     1     -41.013  56.841 -51.907  1.00  0.00    -0.355 N 
HETATM   15  H   UNL     1     -40.605  56.657 -52.822  1.00  0.00     0.162 HD
HETATM   16  O   UNL     1     -42.930  56.474 -50.732  1.00  0.00    -0.268 OA
BRANCH  14  17
HETATM   17  C   UNL     1     -40.829  58.187 -51.381  1.00  0.00     0.150 C 
BRANCH  17  18
HETATM   18  C   UNL     1     -41.799  59.290 -51.866  1.00  0.00     0.254 C 
BRANCH  18  19
HETATM   19  N   UNL     1     -42.973  59.589 -50.931  1.00  0.00    -0.070 N 
HETATM   20  H   UNL     1     -43.047  58.743 -50.353  1.00  0.00     0.279 HD
BRANCH  19  21
HETATM   21  C   UNL     1     -44.314  59.762 -51.611  1.00  0.00     0.230 C 
HETATM   22  C   UNL     1     -45.346  58.812 -51.029  1.00  0.00     0.034 C 
ENDBRANCH  19  21
BRANCH  19  23
HETATM   23  C   UNL     1     -42.658  60.706 -49.951  1.00  0.00     0.230 C 
HETATM   24  C   UNL     1     -42.944  62.063 -50.573  1.00  0.00     0.034 C 
ENDBRANCH  19  23
ENDBRANCH  18  19
ENDBRANCH  17  18
ENDBRANCH  14  17
ENDBRANCH   1  13
BRANCH   1  25
HETATM   25  O   UNL     1     -43.759  54.285 -52.452  1.00  0.00    -0.359 OA
HETATM   26  H   UNL     1     -43.813  54.068 -51.506  1.00  0.00     0.213 HD
ENDBRANCH   1  25
BRANCH   2  27
HETATM   27  C   UNL     1     -43.174  56.534 -54.444  1.00  0.00     0.043 A 
HETATM   28  C   UNL     1     -44.576  56.599 -54.329  1.00  0.00     0.031 A 
HETATM   29  C   UNL     1     -45.292  57.756 -54.670  1.00  0.00     0.026 A 
HETATM   30  C   UNL     1     -44.619  58.880 -55.132  1.00  0.00     0.034 A 
HETATM   31 CL   UNL     1     -45.493  60.304 -55.529  1.00  0.00    -0.084 Cl
HETATM   32  C   UNL     1     -43.238  58.850 -55.258  1.00  0.00     0.026 A 
HETATM   33  C   UNL     1     -42.527  57.691 -54.914  1.00  0.00     0.031 A 
ENDBRANCH   2  27
TORSDOF 8
ENDMDL
MODEL 10
REMARK VINA RESULT:      -6.8      2.432      6.402
REMARK  8 active torsions:
REMARK  status: ('A' for Active; 'I' for Inactive)
REMARK    1  A    between atoms: C_2  and  N_3 
REMARK    2  A    between atoms: N_3  and  C_5 
REMARK    3  A    between atoms: N_3  and  C_29 
REMARK    4  A    between atoms: C_5  and  C_6 
REMARK    5  A    between atoms: C_6  and  N_7 
REMARK       I    between atoms: N_7  and  C_8 
REMARK    6  A    between atoms: C_8  and  C_9 
REMARK    7  A    between atoms: C_9  and  O_10 
REMARK    8  A    between atoms: N_11  and  C_12 
ROOT
HETATM    1  C   UNL     1     -41.691  56.049 -53.190  1.00  0.00     0.256 C 
HETATM    2  N   UNL     1     -42.161  56.291 -51.809  1.00  0.00    -0.254 N 
HETATM    3  C   UNL     1     -41.772  55.441 -50.778  1.00  0.00     0.330 C 
HETATM    4  O   UNL     1     -41.934  55.650 -49.577  1.00  0.00    -0.246 OA
HETATM    5  N   UNL     1     -41.182  54.262 -51.108  1.00  0.00    -0.308 N 
HETATM    6  C   UNL     1     -40.849  53.838 -52.380  1.00  0.00     0.048 A 
HETATM    7  C   UNL     1     -41.072  54.691 -53.446  1.00  0.00     0.034 A 
HETATM    8  C   UNL     1     -40.266  52.583 -52.562  1.00  0.00     0.030 A 
HETATM    9  C   UNL     1     -39.892  52.174 -53.841  1.00  0.00     0.002 A 
HETATM   10  C   UNL     1     -40.080  53.028 -54.924  1.00  0.00     0.001 A 
HETATM   11  C   UNL     1     -40.655  54.285 -54.728  1.00  0.00     0.015 A 
HETATM   12  H   UNL     1     -40.937  53.690 -50.307  1.00  0.00     0.170 HD
ENDROOT
BRANCH   1  13
HETATM   13  C   UNL     1     -42.963  56.157 -54.168  1.00  0.00     0.279 C 
HETATM   14  N   UNL     1     -43.009  57.282 -54.992  1.00  0.00    -0.355 N 
HETATM   15  H   UNL     1     -42.109  57.745 -55.104  1.00  0.00     0.162 HD
HETATM   16  O   UNL     1     -43.909  55.369 -54.143  1.00  0.00    -0.268 OA
BRANCH  14  17
HETATM   17  C   UNL     1     -43.887  57.298 -56.154  1.00  0.00     0.150 C 
BRANCH  17  18
HETATM   18  C   UNL     1     -44.964  58.406 -56.232  1.00  0.00     0.254 C 
BRANCH  18  19
HETATM   19  N   UNL     1     -44.447  59.801 -56.588  1.00  0.00    -0.070 N 
HETATM   20  H   UNL     1     -45.250  60.250 -57.047  1.00  0.00     0.279 HD
BRANCH  19  21
HETATM   21  C   UNL     1     -43.310  59.835 -57.586  1.00  0.00     0.230 C 
HETATM   22  C   UNL     1     -42.107  60.568 -57.019  1.00  0.00     0.034 C 
ENDBRANCH  19  21
BRANCH  19  23
HETATM   23  C   UNL     1     -44.179  60.647 -55.356  1.00  0.00     0.230 C 
HETATM   24  C   UNL     1     -45.353  60.582 -54.394  1.00  0.00     0.034 C 
ENDBRANCH  19  23
ENDBRANCH  18  19
ENDBRANCH  17  18
ENDBRANCH  14  17
ENDBRANCH   1  13
BRANCH   1  25
HETATM   25  O   UNL     1     -40.651  56.971 -53.456  1.00  0.00    -0.359 OA
HETATM   26  H   UNL     1     -40.827  57.735 -52.882  1.00  0.00     0.213 HD
ENDBRANCH   1  25
BRANCH   2  27
HETATM   27  C   UNL     1     -42.972  57.472 -51.527  1.00  0.00     0.043 A 
HETATM   28  C   UNL     1     -44.360  57.393 -51.301  1.00  0.00     0.031 A 
HETATM   29  C   UNL     1     -45.120  58.524 -50.972  1.00  0.00     0.026 A 
HETATM   30  C   UNL     1     -44.508  59.766 -50.858  1.00  0.00     0.034 A 
HETATM   31 CL   UNL     1     -45.435  61.147 -50.434  1.00  0.00    -0.084 Cl
HETATM   32  C   UNL     1     -43.142  59.880 -51.074  1.00  0.00     0.026 A 
HETATM   33  C   UNL     1     -42.387  58.746 -51.401  1.00  0.00     0.031 A 
ENDBRANCH   2  27
TORSDOF 8
ENDMDL
