MODEL 1
REMARK VINA RESULT:      -8.1      0.000      0.000
REMARK  6 active torsions:
REMARK  status: ('A' for Active; 'I' for Inactive)
REMARK    1  A    between atoms: C_4  and  C_5 
REMARK    2  A    between atoms: C_5  and  N_6 
REMARK       I    between atoms: N_6  and  C_7 
REMARK    3  A    between atoms: C_7  and  C_8 
REMARK    4  A    between atoms: C_12  and  C_13 
REMARK    5  A    between atoms: C_13  and  O_14 
REMARK    6  A    between atoms: O_14  and  C_15 
ROOT
HETATM    1  C   UNL     1     -43.065  55.767 -54.297  1.00  0.00     0.146 A 
HETATM    2  N   UNL     1     -44.301  56.306 -54.335  1.00  0.00    -0.169 NA
HETATM    3  N   UNL     1     -44.336  56.970 -55.505  1.00  0.00    -0.279 N 
HETATM    4  H   UNL     1     -45.199  57.433 -55.771  1.00  0.00     0.189 HD
HETATM    5  C   UNL     1     -43.157  56.934 -56.194  1.00  0.00     0.054 A 
HETATM    6  C   UNL     1     -42.320  56.135 -55.448  1.00  0.00     0.068 A 
ENDROOT
BRANCH   1   7
HETATM    7  C   UNL     1     -42.593  54.925 -53.188  1.00  0.00     0.272 C 
HETATM    8  N   UNL     1     -41.232  54.766 -53.136  1.00  0.00    -0.350 N 
HETATM    9  H   UNL     1     -40.658  55.242 -53.828  1.00  0.00     0.163 HD
HETATM   10  O   UNL     1     -43.359  54.403 -52.380  1.00  0.00    -0.266 OA
BRANCH   8  11
HETATM   11  C   UNL     1     -40.591  54.008 -52.093  1.00  0.00     0.182 C 
BRANCH  11  12
HETATM   12  C   UNL     1     -40.255  52.592 -52.504  1.00  0.00     0.052 A 
HETATM   13  N   UNL     1     -39.899  51.703 -51.536  1.00  0.00    -0.257 NA
HETATM   14  C   UNL     1     -39.600  50.437 -51.915  1.00  0.00     0.031 A 
HETATM   15  C   UNL     1     -39.196  49.475 -50.838  1.00  0.00     0.070 C 
HETATM   16  C   UNL     1     -39.650  50.019 -53.240  1.00  0.00     0.027 A 
HETATM   17  C   UNL     1     -40.022  50.933 -54.219  1.00  0.00     0.004 A 
HETATM   18  C   UNL     1     -40.330  52.237 -53.849  1.00  0.00     0.029 A 
ENDBRANCH  11  12
ENDBRANCH   8  11
ENDBRANCH   1   7
BRANCH   5  19
HETATM   19  C   UNL     1     -42.957  57.654 -57.476  1.00  0.00     0.234 C 
BRANCH  19  20
HETATM   20  O   UNL     1     -42.736  56.656 -58.468  1.00  0.00    -0.345 OA
BRANCH  20  21
HETATM   21  C   UNL     1     -43.800  56.350 -59.274  1.00  0.00     0.072 A 
HETATM   22  C   UNL     1     -44.724  57.389 -59.441  1.00  0.00     0.076 A 
HETATM   23  C   UNL     1     -45.827  57.158 -60.234  1.00  0.00     0.107 A 
HETATM   24  C   UNL     1     -46.028  55.950 -60.860  1.00  0.00     0.105 A 
HETATM   25  O   UNL     1     -46.823  58.047 -60.495  1.00  0.00    -0.323 OA
HETATM   26  O   UNL     1     -47.173  55.927 -61.591  1.00  0.00    -0.323 OA
HETATM   27  C   UNL     1     -45.134  54.912 -60.727  1.00  0.00     0.042 A 
HETATM   28  C   UNL     1     -47.677  57.257 -61.348  1.00  0.00     0.352 A 
HETATM   29  C   UNL     1     -44.004  55.118 -59.925  1.00  0.00     0.039 A 
ENDBRANCH  20  21
ENDBRANCH  19  20
ENDBRANCH   5  19
TORSDOF 6
ENDMDL
MODEL 2
REMARK VINA RESULT:      -8.0      5.635      9.809
REMARK  6 active torsions:
REMARK  status: ('A' for Active; 'I' for Inactive)
REMARK    1  A    between atoms: C_4  and  C_5 
REMARK    2  A    between atoms: C_5  and  N_6 
REMARK       I    between atoms: N_6  and  C_7 
REMARK    3  A    between atoms: C_7  and  C_8 
REMARK    4  A    between atoms: C_12  and  C_13 
REMARK    5  A    between atoms: C_13  and  O_14 
REMARK    6  A    between atoms: O_14  and  C_15 
ROOT
HETATM    1  C   UNL     1     -42.774  58.620 -51.418  1.00  0.00     0.146 A 
HETATM    2  N   UNL     1     -41.481  58.373 -51.126  1.00  0.00    -0.169 NA
HETATM    3  N   UNL     1     -41.221  57.205 -51.741  1.00  0.00    -0.279 N 
HETATM    4  H   UNL     1     -40.278  56.833 -51.690  1.00  0.00     0.189 HD
HETATM    5  C   UNL     1     -42.306  56.657 -52.365  1.00  0.00     0.054 A 
HETATM    6  C   UNL     1     -43.324  57.569 -52.197  1.00  0.00     0.068 A 
ENDROOT
BRANCH   1   7
HETATM    7  C   UNL     1     -43.482  59.826 -50.962  1.00  0.00     0.272 C 
HETATM    8  N   UNL     1     -44.686  59.582 -50.355  1.00  0.00    -0.350 N 
HETATM    9  H   UNL     1     -44.990  58.618 -50.243  1.00  0.00     0.163 HD
HETATM   10  O   UNL     1     -43.030  60.959 -51.119  1.00  0.00    -0.266 OA
BRANCH   8  11
HETATM   11  C   UNL     1     -45.496  60.640 -49.809  1.00  0.00     0.182 C 
BRANCH  11  12
HETATM   12  C   UNL     1     -45.525  60.651 -48.296  1.00  0.00     0.052 A 
HETATM   13  N   UNL     1     -46.249  59.695 -47.654  1.00  0.00    -0.257 NA
HETATM   14  C   UNL     1     -46.268  59.714 -46.300  1.00  0.00     0.031 A 
HETATM   15  C   UNL     1     -47.083  58.662 -45.609  1.00  0.00     0.070 C 
HETATM   16  C   UNL     1     -45.577  60.662 -45.553  1.00  0.00     0.027 A 
HETATM   17  C   UNL     1     -44.834  61.629 -46.220  1.00  0.00     0.004 A 
HETATM   18  C   UNL     1     -44.805  61.626 -47.609  1.00  0.00     0.029 A 
ENDBRANCH  11  12
ENDBRANCH   8  11
ENDBRANCH   1   7
BRANCH   5  19
HETATM   19  C   UNL     1     -42.256  55.342 -53.049  1.00  0.00     0.234 C 
BRANCH  19  20
HETATM   20  O   UNL     1     -40.878  55.042 -53.247  1.00  0.00    -0.345 OA
BRANCH  20  21
HETATM   21  C   UNL     1     -40.530  53.718 -53.205  1.00  0.00     0.072 A 
HETATM   22  C   UNL     1     -40.399  53.189 -51.916  1.00  0.00     0.076 A 
HETATM   23  C   UNL     1     -40.045  51.863 -51.789  1.00  0.00     0.107 A 
HETATM   24  C   UNL     1     -39.830  51.064 -52.886  1.00  0.00     0.105 A 
HETATM   25  O   UNL     1     -39.865  51.193 -50.618  1.00  0.00    -0.323 OA
HETATM   26  O   UNL     1     -39.488  49.793 -52.546  1.00  0.00    -0.323 OA
HETATM   27  C   UNL     1     -39.962  51.548 -54.169  1.00  0.00     0.042 A 
HETATM   28  C   UNL     1     -39.504  49.885 -51.106  1.00  0.00     0.352 A 
HETATM   29  C   UNL     1     -40.319  52.892 -54.328  1.00  0.00     0.039 A 
ENDBRANCH  20  21
ENDBRANCH  19  20
ENDBRANCH   5  19
TORSDOF 6
ENDMDL
MODEL 3
REMARK VINA RESULT:      -8.0      3.201      8.698
REMARK  6 active torsions:
REMARK  status: ('A' for Active; 'I' for Inactive)
REMARK    1  A    between atoms: C_4  and  C_5 
REMARK    2  A    between atoms: C_5  and  N_6 
REMARK       I    between atoms: N_6  and  C_7 
REMARK    3  A    between atoms: C_7  and  C_8 
REMARK    4  A    between atoms: C_12  and  C_13 
REMARK    5  A    between atoms: C_13  and  O_14 
REMARK    6  A    between atoms: O_14  and  C_15 
ROOT
HETATM    1  C   UNL     1     -41.651  58.832 -54.336  1.00  0.00     0.146 A 
HETATM    2  N   UNL     1     -40.720  59.528 -53.651  1.00  0.00    -0.169 NA
HETATM    3  N   UNL     1     -40.521  58.802 -52.536  1.00  0.00    -0.279 N 
HETATM    4  H   UNL     1     -39.820  59.119 -51.874  1.00  0.00     0.189 HD
HETATM    5  C   UNL     1     -41.325  57.702 -52.442  1.00  0.00     0.054 A 
HETATM    6  C   UNL     1     -42.051  57.679 -53.612  1.00  0.00     0.068 A 
ENDROOT
BRANCH   1   7
HETATM    7  C   UNL     1     -42.160  59.254 -55.650  1.00  0.00     0.272 C 
HETATM    8  N   UNL     1     -43.250  58.549 -56.089  1.00  0.00    -0.350 N 
HETATM    9  H   UNL     1     -43.636  57.822 -55.491  1.00  0.00     0.163 HD
HETATM   10  O   UNL     1     -41.644  60.161 -56.300  1.00  0.00    -0.266 OA
BRANCH   8  11
HETATM   11  C   UNL     1     -43.906  58.853 -57.334  1.00  0.00     0.182 C 
BRANCH  11  12
HETATM   12  C   UNL     1     -43.993  57.666 -58.269  1.00  0.00     0.052 A 
HETATM   13  N   UNL     1     -45.181  57.411 -58.884  1.00  0.00    -0.257 NA
HETATM   14  C   UNL     1     -45.248  56.346 -59.719  1.00  0.00     0.031 A 
HETATM   15  C   UNL     1     -46.568  56.070 -60.376  1.00  0.00     0.070 C 
HETATM   16  C   UNL     1     -44.158  55.521 -59.971  1.00  0.00     0.027 A 
HETATM   17  C   UNL     1     -42.948  55.796 -59.344  1.00  0.00     0.004 A 
HETATM   18  C   UNL     1     -42.862  56.883 -58.483  1.00  0.00     0.029 A 
ENDBRANCH  11  12
ENDBRANCH   8  11
ENDBRANCH   1   7
BRANCH   5  19
HETATM   19  C   UNL     1     -41.314  56.800 -51.265  1.00  0.00     0.234 C 
BRANCH  19  20
HETATM   20  O   UNL     1     -42.049  55.639 -51.639  1.00  0.00    -0.345 OA
BRANCH  20  21
HETATM   21  C   UNL     1     -41.328  54.486 -51.801  1.00  0.00     0.072 A 
HETATM   22  C   UNL     1     -41.450  53.894 -53.064  1.00  0.00     0.076 A 
HETATM   23  C   UNL     1     -40.759  52.726 -53.305  1.00  0.00     0.107 A 
HETATM   24  C   UNL     1     -39.960  52.148 -52.347  1.00  0.00     0.105 A 
HETATM   25  O   UNL     1     -40.772  52.016 -54.465  1.00  0.00    -0.323 OA
HETATM   26  O   UNL     1     -39.371  51.004 -52.783  1.00  0.00    -0.323 OA
HETATM   27  C   UNL     1     -39.808  52.710 -51.099  1.00  0.00     0.042 A 
HETATM   28  C   UNL     1     -39.896  50.921 -54.124  1.00  0.00     0.352 A 
HETATM   29  C   UNL     1     -40.500  53.896 -50.826  1.00  0.00     0.039 A 
ENDBRANCH  20  21
ENDBRANCH  19  20
ENDBRANCH   5  19
TORSDOF 6
ENDMDL
MODEL 4
REMARK VINA RESULT:      -7.9      2.632      8.698
REMARK  6 active torsions:
REMARK  status: ('A' for Active; 'I' for Inactive)
REMARK    1  A    between atoms: C_4  and  C_5 
REMARK    2  A    between atoms: C_5  and  N_6 
REMARK       I    between atoms: N_6  and  C_7 
REMARK    3  A    between atoms: C_7  and  C_8 
REMARK    4  A    between atoms: C_12  and  C_13 
REMARK    5  A    between atoms: C_13  and  O_14 
REMARK    6  A    between atoms: O_14  and  C_15 
ROOT
HETATM    1  C   UNL     1     -43.931  57.135 -53.930  1.00  0.00     0.146 A 
HETATM    2  N   UNL     1     -44.735  57.354 -52.870  1.00  0.00    -0.169 NA
HETATM    3  N   UNL     1     -44.131  56.706 -51.858  1.00  0.00    -0.279 N 
HETATM    4  H   UNL     1     -44.545  56.763 -50.932  1.00  0.00     0.189 HD
HETATM    5  C   UNL     1     -43.006  56.026 -52.231  1.00  0.00     0.054 A 
HETATM    6  C   UNL     1     -42.834  56.310 -53.567  1.00  0.00     0.068 A 
ENDROOT
BRANCH   1   7
HETATM    7  C   UNL     1     -44.198  57.688 -55.266  1.00  0.00     0.272 C 
HETATM    8  N   UNL     1     -43.248  57.384 -56.206  1.00  0.00    -0.350 N 
HETATM    9  H   UNL     1     -42.461  56.799 -55.935  1.00  0.00     0.163 HD
HETATM   10  O   UNL     1     -45.190  58.371 -55.514  1.00  0.00    -0.266 OA
BRANCH   8  11
HETATM   11  C   UNL     1     -43.367  57.807 -57.577  1.00  0.00     0.182 C 
BRANCH  11  12
HETATM   12  C   UNL     1     -44.026  56.775 -58.466  1.00  0.00     0.052 A 
HETATM   13  N   UNL     1     -45.222  57.082 -59.039  1.00  0.00    -0.257 NA
HETATM   14  C   UNL     1     -45.804  56.151 -59.832  1.00  0.00     0.031 A 
HETATM   15  C   UNL     1     -47.128  56.499 -60.444  1.00  0.00     0.070 C 
HETATM   16  C   UNL     1     -45.225  54.912 -60.084  1.00  0.00     0.027 A 
HETATM   17  C   UNL     1     -43.999  54.613 -59.500  1.00  0.00     0.004 A 
HETATM   18  C   UNL     1     -43.389  55.556 -58.681  1.00  0.00     0.029 A 
ENDBRANCH  11  12
ENDBRANCH   8  11
ENDBRANCH   1   7
BRANCH   5  19
HETATM   19  C   UNL     1     -42.224  55.193 -51.286  1.00  0.00     0.234 C 
BRANCH  19  20
HETATM   20  O   UNL     1     -40.953  54.981 -51.892  1.00  0.00    -0.345 OA
BRANCH  20  21
HETATM   21  C   UNL     1     -40.551  53.678 -52.028  1.00  0.00     0.072 A 
HETATM   22  C   UNL     1     -40.563  53.197 -53.343  1.00  0.00     0.076 A 
HETATM   23  C   UNL     1     -40.178  51.892 -53.562  1.00  0.00     0.107 A 
HETATM   24  C   UNL     1     -39.781  51.073 -52.532  1.00  0.00     0.105 A 
HETATM   25  O   UNL     1     -40.139  51.263 -54.768  1.00  0.00    -0.323 OA
HETATM   26  O   UNL     1     -39.444  49.827 -52.959  1.00  0.00    -0.323 OA
HETATM   27  C   UNL     1     -39.745  51.516 -51.230  1.00  0.00     0.042 A 
HETATM   28  C   UNL     1     -39.682  49.953 -54.376  1.00  0.00     0.352 A 
HETATM   29  C   UNL     1     -40.134  52.838 -50.977  1.00  0.00     0.039 A 
ENDBRANCH  20  21
ENDBRANCH  19  20
ENDBRANCH   5  19
TORSDOF 6
ENDMDL
MODEL 5
REMARK VINA RESULT:      -7.9      2.047      2.228
REMARK  6 active torsions:
REMARK  status: ('A' for Active; 'I' for Inactive)
REMARK    1  A    between atoms: C_4  and  C_5 
REMARK    2  A    between atoms: C_5  and  N_6 
REMARK       I    between atoms: N_6  and  C_7 
REMARK    3  A    between atoms: C_7  and  C_8 
REMARK    4  A    between atoms: C_12  and  C_13 
REMARK    5  A    between atoms: C_13  and  O_14 
REMARK    6  A    between atoms: O_14  and  C_15 
ROOT
HETATM    1  C   UNL     1     -41.542  58.445 -53.917  1.00  0.00     0.146 A 
HETATM    2  N   UNL     1     -41.275  59.767 -53.934  1.00  0.00    -0.169 NA
HETATM    3  N   UNL     1     -41.775  60.189 -55.110  1.00  0.00    -0.279 N 
HETATM    4  H   UNL     1     -41.722  61.179 -55.329  1.00  0.00     0.189 HD
HETATM    5  C   UNL     1     -42.298  59.188 -55.878  1.00  0.00     0.054 A 
HETATM    6  C   UNL     1     -42.187  58.046 -55.116  1.00  0.00     0.068 A 
ENDROOT
BRANCH   1   7
HETATM    7  C   UNL     1     -41.187  57.572 -52.788  1.00  0.00     0.272 C 
HETATM    8  N   UNL     1     -41.527  56.255 -52.961  1.00  0.00    -0.350 N 
HETATM    9  H   UNL     1     -41.966  55.974 -53.835  1.00  0.00     0.163 HD
HETATM   10  O   UNL     1     -40.635  57.992 -51.773  1.00  0.00    -0.266 OA
BRANCH   8  11
HETATM   11  C   UNL     1     -41.218  55.250 -51.977  1.00  0.00     0.182 C 
BRANCH  11  12
HETATM   12  C   UNL     1     -40.692  53.966 -52.579  1.00  0.00     0.052 A 
HETATM   13  N   UNL     1     -40.350  52.949 -51.741  1.00  0.00    -0.257 NA
HETATM   14  C   UNL     1     -39.880  51.804 -52.291  1.00  0.00     0.031 A 
HETATM   15  C   UNL     1     -39.494  50.699 -51.353  1.00  0.00     0.070 C 
HETATM   16  C   UNL     1     -39.744  51.631 -53.664  1.00  0.00     0.027 A 
HETATM   17  C   UNL     1     -40.104  52.673 -54.510  1.00  0.00     0.004 A 
HETATM   18  C   UNL     1     -40.586  53.857 -53.964  1.00  0.00     0.029 A 
ENDBRANCH  11  12
ENDBRANCH   8  11
ENDBRANCH   1   7
BRANCH   5  19
HETATM   19  C   UNL     1     -42.844  59.423 -57.237  1.00  0.00     0.234 C 
BRANCH  19  20
HETATM   20  O   UNL     1     -42.242  58.452 -58.087  1.00  0.00    -0.345 OA
BRANCH  20  21
HETATM   21  C   UNL     1     -43.092  57.578 -58.713  1.00  0.00     0.072 A 
HETATM   22  C   UNL     1     -44.407  58.038 -58.848  1.00  0.00     0.076 A 
HETATM   23  C   UNL     1     -45.325  57.215 -59.462  1.00  0.00     0.107 A 
HETATM   24  C   UNL     1     -44.976  55.975 -59.944  1.00  0.00     0.105 A 
HETATM   25  O   UNL     1     -46.640  57.497 -59.666  1.00  0.00    -0.323 OA
HETATM   26  O   UNL     1     -46.025  55.323 -60.511  1.00  0.00    -0.323 OA
HETATM   27  C   UNL     1     -43.689  55.497 -59.840  1.00  0.00     0.042 A 
HETATM   28  C   UNL     1     -47.079  56.290 -60.323  1.00  0.00     0.352 A 
HETATM   29  C   UNL     1     -42.735  56.312 -59.218  1.00  0.00     0.039 A 
ENDBRANCH  20  21
ENDBRANCH  19  20
ENDBRANCH   5  19
TORSDOF 6
ENDMDL
MODEL 6
REMARK VINA RESULT:      -7.9      3.722      8.995
REMARK  6 active torsions:
REMARK  status: ('A' for Active; 'I' for Inactive)
REMARK    1  A    between atoms: C_4  and  C_5 
REMARK    2  A    between atoms: C_5  and  N_6 
REMARK       I    between atoms: N_6  and  C_7 
REMARK    3  A    between atoms: C_7  and  C_8 
REMARK    4  A    between atoms: C_12  and  C_13 
REMARK    5  A    between atoms: C_13  and  O_14 
REMARK    6  A    between atoms: O_14  and  C_15 
ROOT
HETATM    1  C   UNL     1     -41.292  57.493 -52.485  1.00  0.00     0.146 A 
HETATM    2  N   UNL     1     -40.988  57.835 -51.216  1.00  0.00    -0.169 NA
HETATM    3  N   UNL     1     -41.087  56.681 -50.532  1.00  0.00    -0.279 N 
HETATM    4  H   UNL     1     -40.862  56.687 -49.542  1.00  0.00     0.189 HD
HETATM    5  C   UNL     1     -41.501  55.623 -51.290  1.00  0.00     0.054 A 
HETATM    6  C   UNL     1     -41.615  56.114 -52.572  1.00  0.00     0.068 A 
ENDROOT
BRANCH   1   7
HETATM    7  C   UNL     1     -41.286  58.456 -53.597  1.00  0.00     0.272 C 
HETATM    8  N   UNL     1     -42.091  58.110 -54.651  1.00  0.00    -0.350 N 
HETATM    9  H   UNL     1     -42.637  57.254 -54.589  1.00  0.00     0.163 HD
HETATM   10  O   UNL     1     -40.608  59.482 -53.581  1.00  0.00    -0.266 OA
BRANCH   8  11
HETATM   11  C   UNL     1     -42.240  58.955 -55.808  1.00  0.00     0.182 C 
BRANCH  11  12
HETATM   12  C   UNL     1     -43.113  58.347 -56.884  1.00  0.00     0.052 A 
HETATM   13  N   UNL     1     -42.557  57.442 -57.735  1.00  0.00    -0.257 NA
HETATM   14  C   UNL     1     -43.347  56.904 -58.695  1.00  0.00     0.031 A 
HETATM   15  C   UNL     1     -42.715  55.920 -59.634  1.00  0.00     0.070 C 
HETATM   16  C   UNL     1     -44.691  57.235 -58.833  1.00  0.00     0.027 A 
HETATM   17  C   UNL     1     -45.250  58.154 -57.953  1.00  0.00     0.004 A 
HETATM   18  C   UNL     1     -44.453  58.718 -56.963  1.00  0.00     0.029 A 
ENDBRANCH  11  12
ENDBRANCH   8  11
ENDBRANCH   1   7
BRANCH   5  19
HETATM   19  C   UNL     1     -41.738  54.274 -50.721  1.00  0.00     0.234 C 
BRANCH  19  20
HETATM   20  O   UNL     1     -40.454  53.710 -50.473  1.00  0.00    -0.345 OA
BRANCH  20  21
HETATM   21  C   UNL     1     -40.195  52.500 -51.061  1.00  0.00     0.072 A 
HETATM   22  C   UNL     1     -40.120  52.534 -52.458  1.00  0.00     0.076 A 
HETATM   23  C   UNL     1     -39.869  51.354 -53.126  1.00  0.00     0.107 A 
HETATM   24  C   UNL     1     -39.684  50.169 -52.455  1.00  0.00     0.105 A 
HETATM   25  O   UNL     1     -39.773  51.205 -54.475  1.00  0.00    -0.323 OA
HETATM   26  O   UNL     1     -39.451  49.126 -53.294  1.00  0.00    -0.323 OA
HETATM   27  C   UNL     1     -39.739  50.102 -51.080  1.00  0.00     0.042 A 
HETATM   28  C   UNL     1     -39.517  49.789 -54.574  1.00  0.00     0.352 A 
HETATM   29  C   UNL     1     -39.995  51.285 -50.376  1.00  0.00     0.039 A 
ENDBRANCH  20  21
ENDBRANCH  19  20
ENDBRANCH   5  19
TORSDOF 6
ENDMDL
MODEL 7
REMARK VINA RESULT:      -7.8      1.591      2.039
REMARK  6 active torsions:
REMARK  status: ('A' for Active; 'I' for Inactive)
REMARK    1  A    between atoms: C_4  and  C_5 
REMARK    2  A    between atoms: C_5  and  N_6 
REMARK       I    between atoms: N_6  and  C_7 
REMARK    3  A    between atoms: C_7  and  C_8 
REMARK    4  A    between atoms: C_12  and  C_13 
REMARK    5  A    between atoms: C_13  and  O_14 
REMARK    6  A    between atoms: O_14  and  C_15 
ROOT
HETATM    1  C   UNL     1     -43.000  56.479 -54.047  1.00  0.00     0.146 A 
HETATM    2  N   UNL     1     -44.069  55.662 -54.141  1.00  0.00    -0.169 NA
HETATM    3  N   UNL     1     -44.983  56.389 -54.808  1.00  0.00    -0.279 N 
HETATM    4  H   UNL     1     -45.874  55.957 -55.032  1.00  0.00     0.189 HD
HETATM    5  C   UNL     1     -44.574  57.661 -55.095  1.00  0.00     0.054 A 
HETATM    6  C   UNL     1     -43.277  57.739 -54.638  1.00  0.00     0.068 A 
ENDROOT
BRANCH   1   7
HETATM    7  C   UNL     1     -41.740  56.078 -53.404  1.00  0.00     0.272 C 
HETATM    8  N   UNL     1     -41.815  54.914 -52.684  1.00  0.00    -0.350 N 
HETATM    9  H   UNL     1     -42.699  54.410 -52.661  1.00  0.00     0.163 HD
HETATM   10  O   UNL     1     -40.707  56.739 -53.501  1.00  0.00    -0.266 OA
BRANCH   8  11
HETATM   11  C   UNL     1     -40.668  54.350 -52.022  1.00  0.00     0.182 C 
BRANCH  11  12
HETATM   12  C   UNL     1     -40.331  52.954 -52.497  1.00  0.00     0.052 A 
HETATM   13  N   UNL     1     -39.963  52.025 -51.572  1.00  0.00    -0.257 NA
HETATM   14  C   UNL     1     -39.663  50.778 -52.009  1.00  0.00     0.031 A 
HETATM   15  C   UNL     1     -39.245  49.771 -50.979  1.00  0.00     0.070 C 
HETATM   16  C   UNL     1     -39.723  50.418 -53.351  1.00  0.00     0.027 A 
HETATM   17  C   UNL     1     -40.108  51.373 -54.285  1.00  0.00     0.004 A 
HETATM   18  C   UNL     1     -40.418  52.658 -53.855  1.00  0.00     0.029 A 
ENDBRANCH  11  12
ENDBRANCH   8  11
ENDBRANCH   1   7
BRANCH   5  19
HETATM   19  C   UNL     1     -45.449  58.651 -55.767  1.00  0.00     0.234 C 
BRANCH  19  20
HETATM   20  O   UNL     1     -44.690  59.196 -56.842  1.00  0.00    -0.345 OA
BRANCH  20  21
HETATM   21  C   UNL     1     -44.396  58.345 -57.875  1.00  0.00     0.072 A 
HETATM   22  C   UNL     1     -45.502  57.686 -58.422  1.00  0.00     0.076 A 
HETATM   23  C   UNL     1     -45.288  56.807 -59.462  1.00  0.00     0.107 A 
HETATM   24  C   UNL     1     -44.031  56.578 -59.967  1.00  0.00     0.105 A 
HETATM   25  O   UNL     1     -46.243  56.079 -60.101  1.00  0.00    -0.323 OA
HETATM   26  O   UNL     1     -44.035  55.678 -60.985  1.00  0.00    -0.323 OA
HETATM   27  C   UNL     1     -42.922  57.217 -59.460  1.00  0.00     0.042 A 
HETATM   28  C   UNL     1     -45.440  55.359 -61.059  1.00  0.00     0.352 A 
HETATM   29  C   UNL     1     -43.110  58.115 -58.402  1.00  0.00     0.039 A 
ENDBRANCH  20  21
ENDBRANCH  19  20
ENDBRANCH   5  19
TORSDOF 6
ENDMDL
MODEL 8
REMARK VINA RESULT:      -7.7      3.820      9.886
REMARK  6 active torsions:
REMARK  status: ('A' for Active; 'I' for Inactive)
REMARK    1  A    between atoms: C_4  and  C_5 
REMARK    2  A    between atoms: C_5  and  N_6 
REMARK       I    between atoms: N_6  and  C_7 
REMARK    3  A    between atoms: C_7  and  C_8 
REMARK    4  A    between atoms: C_12  and  C_13 
REMARK    5  A    between atoms: C_13  and  O_14 
REMARK    6  A    between atoms: O_14  and  C_15 
ROOT
HETATM    1  C   UNL     1     -42.846  56.682 -58.167  1.00  0.00     0.146 A 
HETATM    2  N   UNL     1     -43.303  55.413 -58.163  1.00  0.00    -0.169 NA
HETATM    3  N   UNL     1     -43.249  55.048 -56.869  1.00  0.00    -0.279 N 
HETATM    4  H   UNL     1     -43.586  54.125 -56.614  1.00  0.00     0.189 HD
HETATM    5  C   UNL     1     -42.721  56.002 -56.047  1.00  0.00     0.054 A 
HETATM    6  C   UNL     1     -42.476  57.088 -56.858  1.00  0.00     0.068 A 
ENDROOT
BRANCH   1   7
HETATM    7  C   UNL     1     -42.754  57.496 -59.388  1.00  0.00     0.272 C 
HETATM    8  N   UNL     1     -42.976  58.835 -59.196  1.00  0.00    -0.350 N 
HETATM    9  H   UNL     1     -43.162  59.169 -58.253  1.00  0.00     0.163 HD
HETATM   10  O   UNL     1     -42.503  57.011 -60.490  1.00  0.00    -0.266 OA
BRANCH   8  11
HETATM   11  C   UNL     1     -42.885  59.787 -60.272  1.00  0.00     0.182 C 
BRANCH  11  12
HETATM   12  C   UNL     1     -41.832  60.849 -60.043  1.00  0.00     0.052 A 
HETATM   13  N   UNL     1     -41.321  61.499 -61.124  1.00  0.00    -0.257 NA
HETATM   14  C   UNL     1     -40.378  62.447 -60.908  1.00  0.00     0.031 A 
HETATM   15  C   UNL     1     -39.815  63.144 -62.111  1.00  0.00     0.070 C 
HETATM   16  C   UNL     1     -39.925  62.780 -59.636  1.00  0.00     0.027 A 
HETATM   17  C   UNL     1     -40.460  62.115 -58.539  1.00  0.00     0.004 A 
HETATM   18  C   UNL     1     -41.427  61.137 -58.742  1.00  0.00     0.029 A 
ENDBRANCH  11  12
ENDBRANCH   8  11
ENDBRANCH   1   7
BRANCH   5  19
HETATM   19  C   UNL     1     -42.511  55.782 -54.596  1.00  0.00     0.234 C 
BRANCH  19  20
HETATM   20  O   UNL     1     -41.116  55.554 -54.419  1.00  0.00    -0.345 OA
BRANCH  20  21
HETATM   21  C   UNL     1     -40.764  54.410 -53.754  1.00  0.00     0.072 A 
HETATM   22  C   UNL     1     -40.540  53.301 -54.579  1.00  0.00     0.076 A 
HETATM   23  C   UNL     1     -40.187  52.108 -53.984  1.00  0.00     0.107 A 
HETATM   24  C   UNL     1     -40.046  51.994 -52.622  1.00  0.00     0.105 A 
HETATM   25  O   UNL     1     -39.944  50.936 -54.630  1.00  0.00    -0.323 OA
HETATM   26  O   UNL     1     -39.696  50.738 -52.239  1.00  0.00    -0.323 OA
HETATM   27  C   UNL     1     -40.246  53.067 -51.783  1.00  0.00     0.042 A 
HETATM   28  C   UNL     1     -39.641  50.070 -53.517  1.00  0.00     0.352 A 
HETATM   29  C   UNL     1     -40.608  54.291 -52.359  1.00  0.00     0.039 A 
ENDBRANCH  20  21
ENDBRANCH  19  20
ENDBRANCH   5  19
TORSDOF 6
ENDMDL
MODEL 9
REMARK VINA RESULT:      -7.5      2.904      8.728
REMARK  6 active torsions:
REMARK  status: ('A' for Active; 'I' for Inactive)
REMARK    1  A    between atoms: C_4  and  C_5 
REMARK    2  A    between atoms: C_5  and  N_6 
REMARK       I    between atoms: N_6  and  C_7 
REMARK    3  A    between atoms: C_7  and  C_8 
REMARK    4  A    between atoms: C_12  and  C_13 
REMARK    5  A    between atoms: C_13  and  O_14 
REMARK    6  A    between atoms: O_14  and  C_15 
ROOT
HETATM    1  C   UNL     1     -43.760  57.724 -53.519  1.00  0.00     0.146 A 
HETATM    2  N   UNL     1     -43.874  58.287 -52.298  1.00  0.00    -0.169 NA
HETATM    3  N   UNL     1     -43.281  57.406 -51.473  1.00  0.00    -0.279 N 
HETATM    4  H   UNL     1     -43.213  57.639 -50.487  1.00  0.00     0.189 HD
HETATM    5  C   UNL     1     -42.844  56.272 -52.097  1.00  0.00     0.054 A 
HETATM    6  C   UNL     1     -43.115  56.463 -53.433  1.00  0.00     0.068 A 
ENDROOT
BRANCH   1   7
HETATM    7  C   UNL     1     -44.258  58.364 -54.746  1.00  0.00     0.272 C 
HETATM    8  N   UNL     1     -43.578  58.016 -55.884  1.00  0.00    -0.350 N 
HETATM    9  H   UNL     1     -42.816  57.346 -55.812  1.00  0.00     0.163 HD
HETATM   10  O   UNL     1     -45.203  59.151 -54.746  1.00  0.00    -0.266 OA
BRANCH   8  11
HETATM   11  C   UNL     1     -43.954  58.514 -57.181  1.00  0.00     0.182 C 
BRANCH  11  12
HETATM   12  C   UNL     1     -44.071  57.427 -58.227  1.00  0.00     0.052 A 
HETATM   13  N   UNL     1     -45.265  57.263 -58.860  1.00  0.00    -0.257 NA
HETATM   14  C   UNL     1     -45.359  56.287 -59.795  1.00  0.00     0.031 A 
HETATM   15  C   UNL     1     -46.685  56.109 -60.472  1.00  0.00     0.070 C 
HETATM   16  C   UNL     1     -44.290  55.463 -60.130  1.00  0.00     0.027 A 
HETATM   17  C   UNL     1     -43.073  55.646 -59.483  1.00  0.00     0.004 A 
HETATM   18  C   UNL     1     -42.959  56.641 -58.520  1.00  0.00     0.029 A 
ENDBRANCH  11  12
ENDBRANCH   8  11
ENDBRANCH   1   7
BRANCH   5  19
HETATM   19  C   UNL     1     -42.219  55.145 -51.363  1.00  0.00     0.234 C 
BRANCH  19  20
HETATM   20  O   UNL     1     -40.895  55.018 -51.870  1.00  0.00    -0.345 OA
BRANCH  20  21
HETATM   21  C   UNL     1     -40.595  53.844 -52.509  1.00  0.00     0.072 A 
HETATM   22  C   UNL     1     -40.271  52.782 -51.656  1.00  0.00     0.076 A 
HETATM   23  C   UNL     1     -39.950  51.567 -52.222  1.00  0.00     0.107 A 
HETATM   24  C   UNL     1     -39.953  51.380 -53.584  1.00  0.00     0.105 A 
HETATM   25  O   UNL     1     -39.603  50.438 -51.547  1.00  0.00    -0.323 OA
HETATM   26  O   UNL     1     -39.608  50.114 -53.937  1.00  0.00    -0.323 OA
HETATM   27  C   UNL     1     -40.279  52.399 -54.451  1.00  0.00     0.042 A 
HETATM   28  C   UNL     1     -39.379  49.524 -52.640  1.00  0.00     0.352 A 
HETATM   29  C   UNL     1     -40.607  53.646 -53.903  1.00  0.00     0.039 A 
ENDBRANCH  20  21
ENDBRANCH  19  20
ENDBRANCH   5  19
TORSDOF 6
ENDMDL
MODEL 10
REMARK VINA RESULT:      -7.5      1.508      2.267
REMARK  6 active torsions:
REMARK  status: ('A' for Active; 'I' for Inactive)
REMARK    1  A    between atoms: C_4  and  C_5 
REMARK    2  A    between atoms: C_5  and  N_6 
REMARK       I    between atoms: N_6  and  C_7 
REMARK    3  A    between atoms: C_7  and  C_8 
REMARK    4  A    between atoms: C_12  and  C_13 
REMARK    5  A    between atoms: C_13  and  O_14 
REMARK    6  A    between atoms: O_14  and  C_15 
ROOT
HETATM    1  C   UNL     1     -42.841  55.172 -54.602  1.00  0.00     0.146 A 
HETATM    2  N   UNL     1     -43.743  56.170 -54.702  1.00  0.00    -0.169 NA
HETATM    3  N   UNL     1     -43.824  56.410 -56.023  1.00  0.00    -0.279 N 
HETATM    4  H   UNL     1     -44.483  57.111 -56.346  1.00  0.00     0.189 HD
HETATM    5  C   UNL     1     -42.970  55.654 -56.775  1.00  0.00     0.054 A 
HETATM    6  C   UNL     1     -42.337  54.819 -55.881  1.00  0.00     0.068 A 
ENDROOT
BRANCH   1   7
HETATM    7  C   UNL     1     -42.454  54.567 -53.318  1.00  0.00     0.272 C 
HETATM    8  N   UNL     1     -41.102  54.433 -53.139  1.00  0.00    -0.350 N 
HETATM    9  H   UNL     1     -40.476  54.769 -53.867  1.00  0.00     0.163 HD
HETATM   10  O   UNL     1     -43.279  54.207 -52.481  1.00  0.00    -0.266 OA
BRANCH   8  11
HETATM   11  C   UNL     1     -40.541  53.900 -51.924  1.00  0.00     0.182 C 
BRANCH  11  12
HETATM   12  C   UNL     1     -40.198  52.430 -52.020  1.00  0.00     0.052 A 
HETATM   13  N   UNL     1     -40.063  51.874 -53.255  1.00  0.00    -0.257 NA
HETATM   14  C   UNL     1     -39.755  50.557 -53.329  1.00  0.00     0.031 A 
HETATM   15  C   UNL     1     -39.624  49.957 -54.697  1.00  0.00     0.070 C 
HETATM   16  C   UNL     1     -39.569  49.765 -52.201  1.00  0.00     0.027 A 
HETATM   17  C   UNL     1     -39.701  50.346 -50.945  1.00  0.00     0.004 A 
HETATM   18  C   UNL     1     -40.018  51.695 -50.850  1.00  0.00     0.029 A 
ENDBRANCH  11  12
ENDBRANCH   8  11
ENDBRANCH   1   7
BRANCH   5  19
HETATM   19  C   UNL     1     -42.851  55.804 -58.245  1.00  0.00     0.234 C 
BRANCH  19  20
HETATM   20  O   UNL     1     -44.145  55.551 -58.783  1.00  0.00    -0.345 OA
BRANCH  20  21
HETATM   21  C   UNL     1     -44.789  56.618 -59.353  1.00  0.00     0.072 A 
HETATM   22  C   UNL     1     -43.940  57.607 -59.863  1.00  0.00     0.076 A 
HETATM   23  C   UNL     1     -44.511  58.717 -60.448  1.00  0.00     0.107 A 
HETATM   24  C   UNL     1     -45.875  58.861 -60.546  1.00  0.00     0.105 A 
HETATM   25  O   UNL     1     -43.839  59.772 -60.982  1.00  0.00    -0.323 OA
HETATM   26  O   UNL     1     -46.232  60.023 -61.153  1.00  0.00    -0.323 OA
HETATM   27  C   UNL     1     -46.738  57.902 -60.067  1.00  0.00     0.042 A 
HETATM   28  C   UNL     1     -44.937  60.600 -61.419  1.00  0.00     0.352 A 
HETATM   29  C   UNL     1     -46.186  56.765 -59.465  1.00  0.00     0.039 A 
ENDBRANCH  20  21
ENDBRANCH  19  20
ENDBRANCH   5  19
TORSDOF 6
ENDMDL
