MODEL 1
REMARK VINA RESULT:      -9.5      0.000      0.000
REMARK  4 active torsions:
REMARK  status: ('A' for Active; 'I' for Inactive)
REMARK    1  A    between atoms: C_6  and  C_7 
REMARK    2  A    between atoms: C_8  and  C_9 
REMARK       I    between atoms: C_9  and  N_10 
REMARK    3  A    between atoms: N_10  and  C_11 
REMARK    4  A    between atoms: C_18  and  C_19 
REMARK       I    between atoms: C_19  and  N_20 
ROOT
HETATM    1  C   UNL     1     -42.621  55.890 -56.418  1.00  0.00     0.035 A 
HETATM    2  C   UNL     1     -43.258  55.360 -57.548  1.00  0.00     0.046 A 
HETATM    3  C   UNL     1     -43.452  56.170 -58.687  1.00  0.00     0.030 A 
HETATM    4  C   UNL     1     -43.002  57.483 -58.659  1.00  0.00     0.063 A 
HETATM    5  N   UNL     1     -43.317  57.999 -59.885  1.00  0.00    -0.277 N 
HETATM    6  H   UNL     1     -43.132  58.936 -60.223  1.00  0.00     0.189 HD
HETATM    7  N   UNL     1     -43.943  57.140 -60.708  1.00  0.00    -0.168 NA
HETATM    8  C   UNL     1     -44.035  56.004 -59.979  1.00  0.00     0.156 A 
HETATM    9  C   UNL     1     -42.371  58.049 -57.549  1.00  0.00     0.034 A 
HETATM   10  C   UNL     1     -42.196  57.225 -56.429  1.00  0.00     0.032 A 
ENDROOT
BRANCH   1  11
HETATM   11  N   UNL     1     -42.358  55.145 -55.247  1.00  0.00    -0.327 N 
HETATM   12  C   UNL     1     -42.930  55.324 -54.007  1.00  0.00     0.227 C 
HETATM   13  O   UNL     1     -43.711  56.197 -53.667  1.00  0.00    -0.273 OA
HETATM   14  H   UNL     1     -41.718  54.372 -55.344  1.00  0.00     0.169 HD
BRANCH  12  15
HETATM   15  C   UNL     1     -42.557  54.309 -52.983  1.00  0.00     0.087 A 
HETATM   16  C   UNL     1     -41.060  54.055 -52.828  1.00  0.00     0.032 A 
HETATM   17  C   UNL     1     -41.878  54.533 -51.661  1.00  0.00     0.025 A 
BRANCH  16  18
HETATM   18  C   UNL     1     -40.566  52.642 -52.985  1.00  0.00    -0.051 A 
HETATM   19  C   UNL     1     -40.130  51.871 -51.898  1.00  0.00     0.031 A 
HETATM   20  C   UNL     1     -39.640  50.575 -52.089  1.00  0.00     0.034 A 
HETATM   21  C   UNL     1     -39.567  50.026 -53.366  1.00  0.00     0.024 A 
HETATM   22 CL   UNL     1     -39.115  49.654 -50.733  1.00  0.00    -0.084 Cl
HETATM   23  C   UNL     1     -39.989  50.776 -54.460  1.00  0.00     0.002 A 
HETATM   24  C   UNL     1     -40.482  52.067 -54.266  1.00  0.00     0.007 A 
ENDBRANCH  16  18
ENDBRANCH  12  15
ENDBRANCH   1  11
BRANCH   8  25
HETATM   25  C   UNL     1     -44.671  54.797 -60.526  1.00  0.00     0.270 C 
HETATM   26  N   UNL     1     -44.994  53.859 -59.584  1.00  0.00    -0.365 N 
HETATM   27  H   UNL     1     -44.775  54.050 -58.614  1.00  0.00     0.159 HD
HETATM   28  H   UNL     1     -45.426  52.995 -59.870  1.00  0.00     0.159 HD
HETATM   29  O   UNL     1     -44.907  54.607 -61.715  1.00  0.00    -0.266 OA
ENDBRANCH   8  25
TORSDOF 4
ENDMDL
MODEL 2
REMARK VINA RESULT:      -9.1      1.684      1.959
REMARK  4 active torsions:
REMARK  status: ('A' for Active; 'I' for Inactive)
REMARK    1  A    between atoms: C_6  and  C_7 
REMARK    2  A    between atoms: C_8  and  C_9 
REMARK       I    between atoms: C_9  and  N_10 
REMARK    3  A    between atoms: N_10  and  C_11 
REMARK    4  A    between atoms: C_18  and  C_19 
REMARK       I    between atoms: C_19  and  N_20 
ROOT
HETATM    1  C   UNL     1     -42.921  57.110 -55.351  1.00  0.00     0.035 A 
HETATM    2  C   UNL     1     -42.727  56.893 -56.721  1.00  0.00     0.046 A 
HETATM    3  C   UNL     1     -43.185  57.848 -57.654  1.00  0.00     0.030 A 
HETATM    4  C   UNL     1     -43.821  58.989 -57.185  1.00  0.00     0.063 A 
HETATM    5  N   UNL     1     -44.132  59.714 -58.302  1.00  0.00    -0.277 N 
HETATM    6  H   UNL     1     -44.599  60.613 -58.340  1.00  0.00     0.189 HD
HETATM    7  N   UNL     1     -43.764  59.140 -59.460  1.00  0.00    -0.168 NA
HETATM    8  C   UNL     1     -43.178  57.983 -59.075  1.00  0.00     0.156 A 
HETATM    9  C   UNL     1     -44.040  59.237 -55.828  1.00  0.00     0.034 A 
HETATM   10  C   UNL     1     -43.581  58.270 -54.924  1.00  0.00     0.032 A 
ENDROOT
BRANCH   1  11
HETATM   11  N   UNL     1     -42.471  56.225 -54.347  1.00  0.00    -0.327 N 
HETATM   12  C   UNL     1     -42.848  54.911 -54.172  1.00  0.00     0.227 C 
HETATM   13  O   UNL     1     -43.690  54.290 -54.799  1.00  0.00    -0.273 OA
HETATM   14  H   UNL     1     -41.763  56.579 -53.723  1.00  0.00     0.169 HD
BRANCH  12  15
HETATM   15  C   UNL     1     -42.114  54.176 -53.105  1.00  0.00     0.087 A 
HETATM   16  C   UNL     1     -40.686  53.768 -53.457  1.00  0.00     0.032 A 
HETATM   17  C   UNL     1     -40.957  54.659 -52.277  1.00  0.00     0.025 A 
BRANCH  16  18
HETATM   18  C   UNL     1     -40.323  52.311 -53.343  1.00  0.00    -0.051 A 
HETATM   19  C   UNL     1     -39.977  51.714 -52.122  1.00  0.00     0.031 A 
HETATM   20  C   UNL     1     -39.606  50.367 -52.063  1.00  0.00     0.034 A 
HETATM   21  C   UNL     1     -39.565  49.591 -53.219  1.00  0.00     0.024 A 
HETATM   22 CL   UNL     1     -39.189  49.664 -50.549  1.00  0.00    -0.084 Cl
HETATM   23  C   UNL     1     -39.900  50.165 -54.441  1.00  0.00     0.002 A 
HETATM   24  C   UNL     1     -40.274  51.509 -54.497  1.00  0.00     0.007 A 
ENDBRANCH  16  18
ENDBRANCH  12  15
ENDBRANCH   1  11
BRANCH   8  25
HETATM   25  C   UNL     1     -42.630  57.041 -60.061  1.00  0.00     0.270 C 
HETATM   26  N   UNL     1     -41.272  57.112 -60.207  1.00  0.00    -0.365 N 
HETATM   27  H   UNL     1     -40.759  57.785 -59.652  1.00  0.00     0.159 HD
HETATM   28  H   UNL     1     -40.810  56.508 -60.868  1.00  0.00     0.159 HD
HETATM   29  O   UNL     1     -43.297  56.248 -60.718  1.00  0.00    -0.266 OA
ENDBRANCH   8  25
TORSDOF 4
ENDMDL
MODEL 3
REMARK VINA RESULT:      -9.1      1.867      2.386
REMARK  4 active torsions:
REMARK  status: ('A' for Active; 'I' for Inactive)
REMARK    1  A    between atoms: C_6  and  C_7 
REMARK    2  A    between atoms: C_8  and  C_9 
REMARK       I    between atoms: C_9  and  N_10 
REMARK    3  A    between atoms: N_10  and  C_11 
REMARK    4  A    between atoms: C_18  and  C_19 
REMARK       I    between atoms: C_19  and  N_20 
ROOT
HETATM    1  C   UNL     1     -43.430  56.112 -55.021  1.00  0.00     0.035 A 
HETATM    2  C   UNL     1     -43.081  56.010 -56.374  1.00  0.00     0.046 A 
HETATM    3  C   UNL     1     -43.522  56.991 -57.288  1.00  0.00     0.030 A 
HETATM    4  C   UNL     1     -44.298  58.042 -56.818  1.00  0.00     0.063 A 
HETATM    5  N   UNL     1     -44.556  58.818 -57.914  1.00  0.00    -0.277 N 
HETATM    6  H   UNL     1     -45.092  59.678 -57.945  1.00  0.00     0.189 HD
HETATM    7  N   UNL     1     -44.025  58.359 -59.059  1.00  0.00    -0.168 NA
HETATM    8  C   UNL     1     -43.384  57.228 -58.688  1.00  0.00     0.156 A 
HETATM    9  C   UNL     1     -44.673  58.174 -55.479  1.00  0.00     0.034 A 
HETATM   10  C   UNL     1     -44.226  57.183 -54.594  1.00  0.00     0.032 A 
ENDROOT
BRANCH   1  11
HETATM   11  N   UNL     1     -43.008  55.196 -54.033  1.00  0.00    -0.327 N 
HETATM   12  C   UNL     1     -41.976  55.363 -53.136  1.00  0.00     0.227 C 
HETATM   13  O   UNL     1     -41.190  56.294 -53.072  1.00  0.00    -0.273 OA
HETATM   14  H   UNL     1     -43.551  54.350 -53.947  1.00  0.00     0.169 HD
BRANCH  12  15
HETATM   15  C   UNL     1     -41.836  54.283 -52.121  1.00  0.00     0.087 A 
HETATM   16  C   UNL     1     -40.406  53.825 -51.847  1.00  0.00     0.032 A 
HETATM   17  C   UNL     1     -41.254  54.382 -50.738  1.00  0.00     0.025 A 
BRANCH  16  18
HETATM   18  C   UNL     1     -40.092  52.361 -52.010  1.00  0.00    -0.051 A 
HETATM   19  C   UNL     1     -39.989  51.748 -53.267  1.00  0.00     0.031 A 
HETATM   20  C   UNL     1     -39.735  50.378 -53.377  1.00  0.00     0.034 A 
HETATM   21  C   UNL     1     -39.588  49.590 -52.239  1.00  0.00     0.024 A 
HETATM   22 CL   UNL     1     -39.612  49.657 -54.935  1.00  0.00    -0.084 Cl
HETATM   23  C   UNL     1     -39.692  50.177 -50.982  1.00  0.00     0.002 A 
HETATM   24  C   UNL     1     -39.941  51.546 -50.874  1.00  0.00     0.007 A 
ENDBRANCH  16  18
ENDBRANCH  12  15
ENDBRANCH   1  11
BRANCH   8  25
HETATM   25  C   UNL     1     -42.660  56.405 -59.668  1.00  0.00     0.270 C 
HETATM   26  N   UNL     1     -41.423  56.886 -59.997  1.00  0.00    -0.365 N 
HETATM   27  H   UNL     1     -41.105  57.745 -59.564  1.00  0.00     0.159 HD
HETATM   28  H   UNL     1     -40.858  56.391 -60.669  1.00  0.00     0.159 HD
HETATM   29  O   UNL     1     -43.093  55.374 -60.173  1.00  0.00    -0.266 OA
ENDBRANCH   8  25
TORSDOF 4
ENDMDL
MODEL 4
REMARK VINA RESULT:      -8.7      4.427      6.671
REMARK  4 active torsions:
REMARK  status: ('A' for Active; 'I' for Inactive)
REMARK    1  A    between atoms: C_6  and  C_7 
REMARK    2  A    between atoms: C_8  and  C_9 
REMARK       I    between atoms: C_9  and  N_10 
REMARK    3  A    between atoms: N_10  and  C_11 
REMARK    4  A    between atoms: C_18  and  C_19 
REMARK       I    between atoms: C_19  and  N_20 
ROOT
HETATM    1  C   UNL     1     -41.761  58.001 -51.858  1.00  0.00     0.035 A 
HETATM    2  C   UNL     1     -43.107  58.356 -51.702  1.00  0.00     0.046 A 
HETATM    3  C   UNL     1     -43.445  59.526 -50.988  1.00  0.00     0.030 A 
HETATM    4  C   UNL     1     -42.426  60.302 -50.455  1.00  0.00     0.063 A 
HETATM    5  N   UNL     1     -43.054  61.352 -49.844  1.00  0.00    -0.277 N 
HETATM    6  H   UNL     1     -42.620  62.125 -49.352  1.00  0.00     0.189 HD
HETATM    7  N   UNL     1     -44.395  61.323 -49.923  1.00  0.00    -0.168 NA
HETATM    8  C   UNL     1     -44.652  60.197 -50.627  1.00  0.00     0.156 A 
HETATM    9  C   UNL     1     -41.073  59.977 -50.582  1.00  0.00     0.034 A 
HETATM   10  C   UNL     1     -40.765  58.807 -51.290  1.00  0.00     0.032 A 
ENDROOT
BRANCH   1  11
HETATM   11  N   UNL     1     -41.330  56.867 -52.580  1.00  0.00    -0.327 N 
HETATM   12  C   UNL     1     -41.327  56.709 -53.949  1.00  0.00     0.227 C 
HETATM   13  O   UNL     1     -41.759  57.484 -54.787  1.00  0.00    -0.273 OA
HETATM   14  H   UNL     1     -40.940  56.112 -52.037  1.00  0.00     0.169 HD
BRANCH  12  15
HETATM   15  C   UNL     1     -40.696  55.455 -54.443  1.00  0.00     0.087 A 
HETATM   16  C   UNL     1     -41.467  54.173 -54.139  1.00  0.00     0.032 A 
HETATM   17  C   UNL     1     -41.162  54.561 -55.558  1.00  0.00     0.025 A 
BRANCH  16  18
HETATM   18  C   UNL     1     -40.747  53.079 -53.395  1.00  0.00    -0.051 A 
HETATM   19  C   UNL     1     -40.308  51.904 -54.021  1.00  0.00     0.031 A 
HETATM   20  C   UNL     1     -39.679  50.893 -53.288  1.00  0.00     0.034 A 
HETATM   21  C   UNL     1     -39.483  51.029 -51.916  1.00  0.00     0.024 A 
HETATM   22 CL   UNL     1     -39.150  49.464 -54.088  1.00  0.00    -0.084 Cl
HETATM   23  C   UNL     1     -39.916  52.184 -51.274  1.00  0.00     0.002 A 
HETATM   24  C   UNL     1     -40.539  53.194 -52.008  1.00  0.00     0.007 A 
ENDBRANCH  16  18
ENDBRANCH  12  15
ENDBRANCH   1  11
BRANCH   8  25
HETATM   25  C   UNL     1     -46.030  59.790 -50.936  1.00  0.00     0.270 C 
HETATM   26  N   UNL     1     -46.689  60.642 -51.780  1.00  0.00    -0.365 N 
HETATM   27  H   UNL     1     -46.204  61.465 -52.114  1.00  0.00     0.159 HD
HETATM   28  H   UNL     1     -47.643  60.446 -52.040  1.00  0.00     0.159 HD
HETATM   29  O   UNL     1     -46.579  58.785 -50.497  1.00  0.00    -0.266 OA
ENDBRANCH   8  25
TORSDOF 4
ENDMDL
MODEL 5
REMARK VINA RESULT:      -8.6      5.062      5.806
REMARK  4 active torsions:
REMARK  status: ('A' for Active; 'I' for Inactive)
REMARK    1  A    between atoms: C_6  and  C_7 
REMARK    2  A    between atoms: C_8  and  C_9 
REMARK       I    between atoms: C_9  and  N_10 
REMARK    3  A    between atoms: N_10  and  C_11 
REMARK    4  A    between atoms: C_18  and  C_19 
REMARK       I    between atoms: C_19  and  N_20 
ROOT
HETATM    1  C   UNL     1     -42.003  57.654 -52.006  1.00  0.00     0.035 A 
HETATM    2  C   UNL     1     -43.148  58.449 -51.859  1.00  0.00     0.046 A 
HETATM    3  C   UNL     1     -43.228  59.692 -52.524  1.00  0.00     0.030 A 
HETATM    4  C   UNL     1     -42.162  60.098 -53.315  1.00  0.00     0.063 A 
HETATM    5  N   UNL     1     -42.532  61.310 -53.825  1.00  0.00    -0.277 N 
HETATM    6  H   UNL     1     -41.999  61.901 -54.453  1.00  0.00     0.189 HD
HETATM    7  N   UNL     1     -43.743  61.736 -53.428  1.00  0.00    -0.168 NA
HETATM    8  C   UNL     1     -44.185  60.746 -52.620  1.00  0.00     0.156 A 
HETATM    9  C   UNL     1     -41.002  59.337 -53.480  1.00  0.00     0.034 A 
HETATM   10  C   UNL     1     -40.946  58.110 -52.804  1.00  0.00     0.032 A 
ENDROOT
BRANCH   1  11
HETATM   11  N   UNL     1     -41.850  56.386 -51.404  1.00  0.00    -0.327 N 
HETATM   12  C   UNL     1     -41.999  55.158 -52.011  1.00  0.00     0.227 C 
HETATM   13  O   UNL     1     -42.361  54.933 -53.154  1.00  0.00    -0.273 OA
HETATM   14  H   UNL     1     -41.554  56.382 -50.441  1.00  0.00     0.169 HD
BRANCH  12  15
HETATM   15  C   UNL     1     -41.651  53.985 -51.164  1.00  0.00     0.087 A 
HETATM   16  C   UNL     1     -40.206  53.504 -51.275  1.00  0.00     0.032 A 
HETATM   17  C   UNL     1     -40.763  53.949 -49.952  1.00  0.00     0.025 A 
BRANCH  16  18
HETATM   18  C   UNL     1     -39.970  52.064 -51.646  1.00  0.00    -0.051 A 
HETATM   19  C   UNL     1     -39.879  51.634 -52.978  1.00  0.00     0.031 A 
HETATM   20  C   UNL     1     -39.699  50.281 -53.282  1.00  0.00     0.034 A 
HETATM   21  C   UNL     1     -39.615  49.330 -52.269  1.00  0.00     0.024 A 
HETATM   22 CL   UNL     1     -39.589  49.786 -54.927  1.00  0.00    -0.084 Cl
HETATM   23  C   UNL     1     -39.708  49.735 -50.941  1.00  0.00     0.002 A 
HETATM   24  C   UNL     1     -39.883  51.086 -50.638  1.00  0.00     0.007 A 
ENDBRANCH  16  18
ENDBRANCH  12  15
ENDBRANCH   1  11
BRANCH   8  25
HETATM   25  C   UNL     1     -45.498  60.826 -51.965  1.00  0.00     0.270 C 
HETATM   26  N   UNL     1     -46.558  60.662 -52.814  1.00  0.00    -0.365 N 
HETATM   27  H   UNL     1     -46.373  60.509 -53.798  1.00  0.00     0.159 HD
HETATM   28  H   UNL     1     -47.498  60.710 -52.453  1.00  0.00     0.159 HD
HETATM   29  O   UNL     1     -45.672  61.024 -50.767  1.00  0.00    -0.266 OA
ENDBRANCH   8  25
TORSDOF 4
ENDMDL
MODEL 6
REMARK VINA RESULT:      -8.6      2.073      3.107
REMARK  4 active torsions:
REMARK  status: ('A' for Active; 'I' for Inactive)
REMARK    1  A    between atoms: C_6  and  C_7 
REMARK    2  A    between atoms: C_8  and  C_9 
REMARK       I    between atoms: C_9  and  N_10 
REMARK    3  A    between atoms: N_10  and  C_11 
REMARK    4  A    between atoms: C_18  and  C_19 
REMARK       I    between atoms: C_19  and  N_20 
ROOT
HETATM    1  C   UNL     1     -42.461  56.063 -56.353  1.00  0.00     0.035 A 
HETATM    2  C   UNL     1     -42.204  57.431 -56.513  1.00  0.00     0.046 A 
HETATM    3  C   UNL     1     -42.576  58.079 -57.710  1.00  0.00     0.030 A 
HETATM    4  C   UNL     1     -43.194  57.338 -58.708  1.00  0.00     0.063 A 
HETATM    5  N   UNL     1     -43.438  58.226 -59.718  1.00  0.00    -0.277 N 
HETATM    6  H   UNL     1     -43.887  58.036 -60.607  1.00  0.00     0.189 HD
HETATM    7  N   UNL     1     -43.024  59.480 -59.471  1.00  0.00    -0.168 NA
HETATM    8  C   UNL     1     -42.486  59.404 -58.232  1.00  0.00     0.156 A 
HETATM    9  C   UNL     1     -43.460  55.972 -58.589  1.00  0.00     0.034 A 
HETATM   10  C   UNL     1     -43.075  55.352 -57.392  1.00  0.00     0.032 A 
ENDROOT
BRANCH   1  11
HETATM   11  N   UNL     1     -42.152  55.341 -55.180  1.00  0.00    -0.327 N 
HETATM   12  C   UNL     1     -42.618  55.590 -53.907  1.00  0.00     0.227 C 
HETATM   13  O   UNL     1     -43.323  56.517 -53.542  1.00  0.00    -0.273 OA
HETATM   14  H   UNL     1     -41.565  54.530 -55.296  1.00  0.00     0.169 HD
BRANCH  12  15
HETATM   15  C   UNL     1     -42.226  54.588 -52.879  1.00  0.00     0.087 A 
HETATM   16  C   UNL     1     -40.749  54.202 -52.872  1.00  0.00     0.032 A 
HETATM   17  C   UNL     1     -41.388  54.801 -51.650  1.00  0.00     0.025 A 
BRANCH  16  18
HETATM   18  C   UNL     1     -40.402  52.744 -53.009  1.00  0.00    -0.051 A 
HETATM   19  C   UNL     1     -40.005  51.958 -51.917  1.00  0.00     0.031 A 
HETATM   20  C   UNL     1     -39.652  50.617 -52.091  1.00  0.00     0.034 A 
HETATM   21  C   UNL     1     -39.679  50.033 -53.355  1.00  0.00     0.024 A 
HETATM   22 CL   UNL     1     -39.171  49.679 -50.730  1.00  0.00    -0.084 Cl
HETATM   23  C   UNL     1     -40.065  50.796 -54.453  1.00  0.00     0.002 A 
HETATM   24  C   UNL     1     -40.421  52.134 -54.276  1.00  0.00     0.007 A 
ENDBRANCH  16  18
ENDBRANCH  12  15
ENDBRANCH   1  11
BRANCH   8  25
HETATM   25  C   UNL     1     -41.904  60.586 -57.581  1.00  0.00     0.270 C 
HETATM   26  N   UNL     1     -42.789  61.294 -56.814  1.00  0.00    -0.365 N 
HETATM   27  H   UNL     1     -43.747  60.972 -56.755  1.00  0.00     0.159 HD
HETATM   28  H   UNL     1     -42.479  62.125 -56.336  1.00  0.00     0.159 HD
HETATM   29  O   UNL     1     -40.736  60.943 -57.691  1.00  0.00    -0.266 OA
ENDBRANCH   8  25
TORSDOF 4
ENDMDL
MODEL 7
REMARK VINA RESULT:      -8.5      2.919      4.131
REMARK  4 active torsions:
REMARK  status: ('A' for Active; 'I' for Inactive)
REMARK    1  A    between atoms: C_6  and  C_7 
REMARK    2  A    between atoms: C_8  and  C_9 
REMARK       I    between atoms: C_9  and  N_10 
REMARK    3  A    between atoms: N_10  and  C_11 
REMARK    4  A    between atoms: C_18  and  C_19 
REMARK       I    between atoms: C_19  and  N_20 
ROOT
HETATM    1  C   UNL     1     -43.214  56.834 -52.253  1.00  0.00     0.035 A 
HETATM    2  C   UNL     1     -43.340  56.901 -53.646  1.00  0.00     0.046 A 
HETATM    3  C   UNL     1     -44.184  57.872 -54.227  1.00  0.00     0.030 A 
HETATM    4  C   UNL     1     -44.873  58.744 -53.395  1.00  0.00     0.063 A 
HETATM    5  N   UNL     1     -45.583  59.558 -54.234  1.00  0.00    -0.277 N 
HETATM    6  H   UNL     1     -46.198  60.321 -53.973  1.00  0.00     0.189 HD
HETATM    7  N   UNL     1     -45.426  59.286 -55.540  1.00  0.00    -0.168 NA
HETATM    8  C   UNL     1     -44.564  58.244 -55.552  1.00  0.00     0.156 A 
HETATM    9  C   UNL     1     -44.779  58.702 -52.002  1.00  0.00     0.034 A 
HETATM   10  C   UNL     1     -43.939  57.725 -51.451  1.00  0.00     0.032 A 
ENDROOT
BRANCH   1  11
HETATM   11  N   UNL     1     -42.371  55.917 -51.588  1.00  0.00    -0.327 N 
HETATM   12  C   UNL     1     -42.741  54.723 -51.008  1.00  0.00     0.227 C 
HETATM   13  O   UNL     1     -43.868  54.269 -50.895  1.00  0.00    -0.273 OA
HETATM   14  H   UNL     1     -41.388  56.139 -51.578  1.00  0.00     0.169 HD
BRANCH  12  15
HETATM   15  C   UNL     1     -41.619  53.895 -50.486  1.00  0.00     0.087 A 
HETATM   16  C   UNL     1     -40.493  53.620 -51.480  1.00  0.00     0.032 A 
HETATM   17  C   UNL     1     -40.212  54.328 -50.184  1.00  0.00     0.025 A 
BRANCH  16  18
HETATM   18  C   UNL     1     -40.128  52.184 -51.749  1.00  0.00    -0.051 A 
HETATM   19  C   UNL     1     -39.995  51.671 -53.048  1.00  0.00     0.031 A 
HETATM   20  C   UNL     1     -39.693  50.322 -53.257  1.00  0.00     0.034 A 
HETATM   21  C   UNL     1     -39.526  49.457 -52.180  1.00  0.00     0.024 A 
HETATM   22 CL   UNL     1     -39.536  49.724 -54.863  1.00  0.00    -0.084 Cl
HETATM   23  C   UNL     1     -39.658  49.944 -50.883  1.00  0.00     0.002 A 
HETATM   24  C   UNL     1     -39.955  51.292 -50.676  1.00  0.00     0.007 A 
ENDBRANCH  16  18
ENDBRANCH  12  15
ENDBRANCH   1  11
BRANCH   8  25
HETATM   25  C   UNL     1     -44.126  57.631 -56.814  1.00  0.00     0.270 C 
HETATM   26  N   UNL     1     -45.141  57.390 -57.700  1.00  0.00    -0.365 N 
HETATM   27  H   UNL     1     -46.086  57.634 -57.433  1.00  0.00     0.159 HD
HETATM   28  H   UNL     1     -44.934  56.963 -58.589  1.00  0.00     0.159 HD
HETATM   29  O   UNL     1     -42.966  57.344 -57.088  1.00  0.00    -0.266 OA
ENDBRANCH   8  25
TORSDOF 4
ENDMDL
MODEL 8
REMARK VINA RESULT:      -8.5      4.338      6.276
REMARK  4 active torsions:
REMARK  status: ('A' for Active; 'I' for Inactive)
REMARK    1  A    between atoms: C_6  and  C_7 
REMARK    2  A    between atoms: C_8  and  C_9 
REMARK       I    between atoms: C_9  and  N_10 
REMARK    3  A    between atoms: N_10  and  C_11 
REMARK    4  A    between atoms: C_18  and  C_19 
REMARK       I    between atoms: C_19  and  N_20 
ROOT
HETATM    1  C   UNL     1     -44.293  58.243 -54.274  1.00  0.00     0.035 A 
HETATM    2  C   UNL     1     -44.553  58.567 -52.935  1.00  0.00     0.046 A 
HETATM    3  C   UNL     1     -45.233  59.763 -52.623  1.00  0.00     0.030 A 
HETATM    4  C   UNL     1     -45.632  60.596 -53.659  1.00  0.00     0.063 A 
HETATM    5  N   UNL     1     -46.264  61.647 -53.055  1.00  0.00    -0.277 N 
HETATM    6  H   UNL     1     -46.691  62.449 -53.506  1.00  0.00     0.189 HD
HETATM    7  N   UNL     1     -46.302  61.579 -51.714  1.00  0.00    -0.168 NA
HETATM    8  C   UNL     1     -45.666  60.418 -51.431  1.00  0.00     0.156 A 
HETATM    9  C   UNL     1     -45.385  60.312 -55.004  1.00  0.00     0.034 A 
HETATM   10  C   UNL     1     -44.702  59.120 -55.286  1.00  0.00     0.032 A 
ENDROOT
BRANCH   1  11
HETATM   11  N   UNL     1     -43.647  57.055 -54.679  1.00  0.00    -0.327 N 
HETATM   12  C   UNL     1     -42.324  56.723 -54.481  1.00  0.00     0.227 C 
HETATM   13  O   UNL     1     -41.450  57.416 -53.986  1.00  0.00    -0.273 OA
HETATM   14  H   UNL     1     -44.227  56.358 -55.120  1.00  0.00     0.169 HD
BRANCH  12  15
HETATM   15  C   UNL     1     -41.944  55.347 -54.903  1.00  0.00     0.087 A 
HETATM   16  C   UNL     1     -42.373  54.231 -53.955  1.00  0.00     0.032 A 
HETATM   17  C   UNL     1     -42.846  54.244 -55.382  1.00  0.00     0.025 A 
BRANCH  16  18
HETATM   18  C   UNL     1     -41.308  53.304 -53.432  1.00  0.00    -0.051 A 
HETATM   19  C   UNL     1     -40.874  52.176 -54.143  1.00  0.00     0.031 A 
HETATM   20  C   UNL     1     -39.910  51.317 -53.606  1.00  0.00     0.034 A 
HETATM   21  C   UNL     1     -39.366  51.560 -52.347  1.00  0.00     0.024 A 
HETATM   22 CL   UNL     1     -39.398  49.943 -54.506  1.00  0.00    -0.084 Cl
HETATM   23  C   UNL     1     -39.787  52.671 -51.622  1.00  0.00     0.002 A 
HETATM   24  C   UNL     1     -40.745  53.529 -52.162  1.00  0.00     0.007 A 
ENDBRANCH  16  18
ENDBRANCH  12  15
ENDBRANCH   1  11
BRANCH   8  25
HETATM   25  C   UNL     1     -45.488  59.965 -50.044  1.00  0.00     0.270 C 
HETATM   26  N   UNL     1     -44.519  60.642 -49.355  1.00  0.00    -0.365 N 
HETATM   27  H   UNL     1     -44.008  61.375 -49.831  1.00  0.00     0.159 HD
HETATM   28  H   UNL     1     -44.322  60.393 -48.399  1.00  0.00     0.159 HD
HETATM   29  O   UNL     1     -46.127  59.063 -49.515  1.00  0.00    -0.266 OA
ENDBRANCH   8  25
TORSDOF 4
ENDMDL
MODEL 9
REMARK VINA RESULT:      -8.4      2.431      3.302
REMARK  4 active torsions:
REMARK  status: ('A' for Active; 'I' for Inactive)
REMARK    1  A    between atoms: C_6  and  C_7 
REMARK    2  A    between atoms: C_8  and  C_9 
REMARK       I    between atoms: C_9  and  N_10 
REMARK    3  A    between atoms: N_10  and  C_11 
REMARK    4  A    between atoms: C_18  and  C_19 
REMARK       I    between atoms: C_19  and  N_20 
ROOT
HETATM    1  C   UNL     1     -43.206  56.041 -57.881  1.00  0.00     0.035 A 
HETATM    2  C   UNL     1     -44.111  57.110 -57.844  1.00  0.00     0.046 A 
HETATM    3  C   UNL     1     -45.075  57.247 -58.866  1.00  0.00     0.030 A 
HETATM    4  C   UNL     1     -45.102  56.311 -59.891  1.00  0.00     0.063 A 
HETATM    5  N   UNL     1     -46.129  56.697 -60.706  1.00  0.00    -0.277 N 
HETATM    6  H   UNL     1     -46.445  56.241 -61.554  1.00  0.00     0.189 HD
HETATM    7  N   UNL     1     -46.769  57.810 -60.308  1.00  0.00    -0.168 NA
HETATM    8  C   UNL     1     -46.126  58.163 -59.171  1.00  0.00     0.156 A 
HETATM    9  C   UNL     1     -44.211  55.238 -59.966  1.00  0.00     0.034 A 
HETATM   10  C   UNL     1     -43.261  55.128 -58.942  1.00  0.00     0.032 A 
ENDROOT
BRANCH   1  11
HETATM   11  N   UNL     1     -42.230  55.808 -56.887  1.00  0.00    -0.327 N 
HETATM   12  C   UNL     1     -42.419  55.188 -55.671  1.00  0.00     0.227 C 
HETATM   13  O   UNL     1     -43.470  54.790 -55.195  1.00  0.00    -0.273 OA
HETATM   14  H   UNL     1     -41.288  56.085 -57.113  1.00  0.00     0.169 HD
BRANCH  12  15
HETATM   15  C   UNL     1     -41.182  54.965 -54.873  1.00  0.00     0.087 A 
HETATM   16  C   UNL     1     -40.835  53.504 -54.601  1.00  0.00     0.032 A 
HETATM   17  C   UNL     1     -39.872  54.392 -55.337  1.00  0.00     0.025 A 
BRANCH  16  18
HETATM   18  C   UNL     1     -40.657  53.078 -53.167  1.00  0.00    -0.051 A 
HETATM   19  C   UNL     1     -40.024  51.879 -52.810  1.00  0.00     0.031 A 
HETATM   20  C   UNL     1     -39.913  51.499 -51.469  1.00  0.00     0.034 A 
HETATM   21  C   UNL     1     -40.438  52.301 -50.459  1.00  0.00     0.024 A 
HETATM   22 CL   UNL     1     -39.128  50.022 -51.064  1.00  0.00    -0.084 Cl
HETATM   23  C   UNL     1     -41.075  53.492 -50.792  1.00  0.00     0.002 A 
HETATM   24  C   UNL     1     -41.181  53.872 -52.131  1.00  0.00     0.007 A 
ENDBRANCH  16  18
ENDBRANCH  12  15
ENDBRANCH   1  11
BRANCH   8  25
HETATM   25  C   UNL     1     -46.525  59.355 -58.409  1.00  0.00     0.270 C 
HETATM   26  N   UNL     1     -47.488  59.119 -57.466  1.00  0.00    -0.365 N 
HETATM   27  H   UNL     1     -47.850  58.179 -57.367  1.00  0.00     0.159 HD
HETATM   28  H   UNL     1     -47.829  59.881 -56.902  1.00  0.00     0.159 HD
HETATM   29  O   UNL     1     -46.063  60.479 -58.574  1.00  0.00    -0.266 OA
ENDBRANCH   8  25
TORSDOF 4
ENDMDL
MODEL 10
REMARK VINA RESULT:      -8.2      1.662      2.085
REMARK  4 active torsions:
REMARK  status: ('A' for Active; 'I' for Inactive)
REMARK    1  A    between atoms: C_6  and  C_7 
REMARK    2  A    between atoms: C_8  and  C_9 
REMARK       I    between atoms: C_9  and  N_10 
REMARK    3  A    between atoms: N_10  and  C_11 
REMARK    4  A    between atoms: C_18  and  C_19 
REMARK       I    between atoms: C_19  and  N_20 
ROOT
HETATM    1  C   UNL     1     -43.215  57.611 -55.831  1.00  0.00     0.035 A 
HETATM    2  C   UNL     1     -43.433  57.042 -57.093  1.00  0.00     0.046 A 
HETATM    3  C   UNL     1     -43.804  57.864 -58.178  1.00  0.00     0.030 A 
HETATM    4  C   UNL     1     -43.944  59.229 -57.966  1.00  0.00     0.063 A 
HETATM    5  N   UNL     1     -44.292  59.749 -59.181  1.00  0.00    -0.277 N 
HETATM    6  H   UNL     1     -44.471  60.722 -59.404  1.00  0.00     0.189 HD
HETATM    7  N   UNL     1     -44.402  58.842 -60.166  1.00  0.00    -0.168 NA
HETATM    8  C   UNL     1     -44.105  57.670 -59.560  1.00  0.00     0.156 A 
HETATM    9  C   UNL     1     -43.743  59.832 -56.722  1.00  0.00     0.034 A 
HETATM   10  C   UNL     1     -43.381  58.992 -55.660  1.00  0.00     0.032 A 
ENDROOT
BRANCH   1  11
HETATM   11  N   UNL     1     -42.812  56.871 -54.698  1.00  0.00    -0.327 N 
HETATM   12  C   UNL     1     -42.946  55.513 -54.507  1.00  0.00     0.227 C 
HETATM   13  O   UNL     1     -43.498  54.709 -55.241  1.00  0.00    -0.273 OA
HETATM   14  H   UNL     1     -42.335  57.385 -53.975  1.00  0.00     0.169 HD
BRANCH  12  15
HETATM   15  C   UNL     1     -42.316  54.981 -53.268  1.00  0.00     0.087 A 
HETATM   16  C   UNL     1     -40.826  54.668 -53.375  1.00  0.00     0.032 A 
HETATM   17  C   UNL     1     -41.326  55.664 -52.366  1.00  0.00     0.025 A 
BRANCH  16  18
HETATM   18  C   UNL     1     -40.372  53.275 -53.026  1.00  0.00    -0.051 A 
HETATM   19  C   UNL     1     -40.221  52.268 -53.991  1.00  0.00     0.031 A 
HETATM   20  C   UNL     1     -39.836  50.976 -53.622  1.00  0.00     0.034 A 
HETATM   21  C   UNL     1     -39.603  50.658 -52.287  1.00  0.00     0.024 A 
HETATM   22 CL   UNL     1     -39.657  49.763 -54.831  1.00  0.00    -0.084 Cl
HETATM   23  C   UNL     1     -39.753  51.640 -51.313  1.00  0.00     0.002 A 
HETATM   24  C   UNL     1     -40.132  52.931 -51.683  1.00  0.00     0.007 A 
ENDBRANCH  16  18
ENDBRANCH  12  15
ENDBRANCH   1  11
BRANCH   8  25
HETATM   25  C   UNL     1     -44.114  56.403 -60.304  1.00  0.00     0.270 C 
HETATM   26  N   UNL     1     -45.267  56.173 -61.004  1.00  0.00    -0.365 N 
HETATM   27  H   UNL     1     -46.008  56.862 -60.957  1.00  0.00     0.159 HD
HETATM   28  H   UNL     1     -45.365  55.324 -61.537  1.00  0.00     0.159 HD
HETATM   29  O   UNL     1     -43.192  55.594 -60.321  1.00  0.00    -0.266 OA
ENDBRANCH   8  25
TORSDOF 4
ENDMDL
