MODEL 1
REMARK VINA RESULT:      -8.4      0.000      0.000
REMARK  4 active torsions:
REMARK  status: ('A' for Active; 'I' for Inactive)
REMARK       I    between atoms: C_2  and  N_3 
REMARK    1  A    between atoms: N_3  and  C_4 
REMARK    2  A    between atoms: C_4  and  C_5 
REMARK       I    between atoms: C_5  and  N_6 
REMARK    3  A    between atoms: N_6  and  C_7 
REMARK    4  A    between atoms: C_20  and  C_21 
ROOT
HETATM    1  C   UNL     1     -42.164  55.079 -55.629  1.00  0.00     0.272 C 
HETATM    2  N   UNL     1     -40.890  54.808 -55.189  1.00  0.00    -0.322 N 
HETATM    3  O   UNL     1     -43.127  54.326 -55.491  1.00  0.00    -0.266 OA
HETATM    4  H   UNL     1     -40.142  55.191 -55.764  1.00  0.00     0.169 HD
ENDROOT
BRANCH   1   5
HETATM    5  C   UNL     1     -42.337  56.421 -56.312  1.00  0.00     0.104 C 
HETATM    6  C   UNL     1     -42.683  57.474 -55.538  1.00  0.00     0.046 C 
BRANCH   5   7
HETATM    7  N   UNL     1     -42.186  56.641 -57.673  1.00  0.00    -0.323 N 
HETATM    8  C   UNL     1     -42.956  56.188 -58.721  1.00  0.00     0.218 C 
HETATM    9  C   UNL     1     -42.548  56.752 -60.060  1.00  0.00     0.117 C 
HETATM   10  O   UNL     1     -43.854  55.358 -58.639  1.00  0.00    -0.274 OA
HETATM   11  H   UNL     1     -41.390  57.213 -57.927  1.00  0.00     0.169 HD
ENDBRANCH   5   7
BRANCH   6  12
HETATM   12  C   UNL     1     -42.837  57.470 -54.077  1.00  0.00    -0.034 A 
HETATM   13  C   UNL     1     -41.719  57.632 -53.252  1.00  0.00     0.011 A 
HETATM   14  C   UNL     1     -41.862  57.606 -51.863  1.00  0.00     0.001 A 
HETATM   15  C   UNL     1     -43.121  57.416 -51.294  1.00  0.00     0.000 A 
HETATM   16  C   UNL     1     -44.238  57.255 -52.112  1.00  0.00     0.001 A 
HETATM   17  C   UNL     1     -44.099  57.287 -53.501  1.00  0.00     0.011 A 
ENDBRANCH   6  12
ENDBRANCH   1   5
BRANCH   2  18
HETATM   18  C   UNL     1     -40.545  53.814 -54.256  1.00  0.00     0.035 A 
HETATM   19  C   UNL     1     -40.604  54.035 -52.877  1.00  0.00     0.042 A 
HETATM   20  C   UNL     1     -40.196  53.041 -51.981  1.00  0.00    -0.021 A 
HETATM   21  C   UNL     1     -40.189  53.314 -50.562  1.00  0.00     0.010 A 
HETATM   22  C   UNL     1     -39.750  51.809 -52.472  1.00  0.00     0.012 A 
HETATM   23  C   UNL     1     -39.524  54.318 -49.827  1.00  0.00     0.152 A 
HETATM   24  C   UNL     1     -40.903  52.613 -49.617  1.00  0.00     0.123 A 
HETATM   25  N   UNL     1     -39.781  54.248 -48.517  1.00  0.00    -0.187 NA
HETATM   26  N   UNL     1     -40.636  53.215 -48.423  1.00  0.00    -0.289 N 
HETATM   27  H   UNL     1     -41.002  52.979 -47.506  1.00  0.00     0.188 HD
HETATM   28  C   UNL     1     -39.683  51.587 -53.847  1.00  0.00     0.003 A 
HETATM   29  C   UNL     1     -40.063  52.594 -54.738  1.00  0.00     0.029 A 
ENDBRANCH   2  18
TORSDOF 4
ENDMDL
MODEL 2
REMARK VINA RESULT:      -8.2     14.548     16.577
REMARK  4 active torsions:
REMARK  status: ('A' for Active; 'I' for Inactive)
REMARK       I    between atoms: C_2  and  N_3 
REMARK    1  A    between atoms: N_3  and  C_4 
REMARK    2  A    between atoms: C_4  and  C_5 
REMARK       I    between atoms: C_5  and  N_6 
REMARK    3  A    between atoms: N_6  and  C_7 
REMARK    4  A    between atoms: C_20  and  C_21 
ROOT
HETATM    1  C   UNL     1     -37.393  39.927 -53.059  1.00  0.00     0.272 C 
HETATM    2  N   UNL     1     -37.613  41.103 -53.734  1.00  0.00    -0.322 N 
HETATM    3  O   UNL     1     -36.716  38.991 -53.484  1.00  0.00    -0.266 OA
HETATM    4  H   UNL     1     -38.519  41.535 -53.569  1.00  0.00     0.169 HD
ENDROOT
BRANCH   1   5
HETATM    5  C   UNL     1     -38.042  39.839 -51.692  1.00  0.00     0.104 C 
HETATM    6  C   UNL     1     -37.233  39.900 -50.612  1.00  0.00     0.046 C 
BRANCH   5   7
HETATM    7  N   UNL     1     -39.403  39.680 -51.472  1.00  0.00    -0.323 N 
HETATM    8  C   UNL     1     -40.459  40.408 -51.974  1.00  0.00     0.218 C 
HETATM    9  C   UNL     1     -41.810  39.845 -51.607  1.00  0.00     0.117 C 
HETATM   10  O   UNL     1     -40.366  41.454 -52.606  1.00  0.00    -0.274 OA
HETATM   11  H   UNL     1     -39.649  38.922 -50.846  1.00  0.00     0.169 HD
ENDBRANCH   5   7
BRANCH   6  12
HETATM   12  C   UNL     1     -35.780  40.121 -50.621  1.00  0.00    -0.034 A 
HETATM   13  C   UNL     1     -34.911  39.095 -50.234  1.00  0.00     0.011 A 
HETATM   14  C   UNL     1     -33.531  39.311 -50.222  1.00  0.00     0.001 A 
HETATM   15  C   UNL     1     -33.016  40.552 -50.593  1.00  0.00     0.000 A 
HETATM   16  C   UNL     1     -33.877  41.577 -50.979  1.00  0.00     0.001 A 
HETATM   17  C   UNL     1     -35.257  41.362 -50.999  1.00  0.00     0.011 A 
ENDBRANCH   6  12
ENDBRANCH   1   5
BRANCH   2  18
HETATM   18  C   UNL     1     -36.870  41.559 -54.838  1.00  0.00     0.035 A 
HETATM   19  C   UNL     1     -37.274  41.324 -56.155  1.00  0.00     0.042 A 
HETATM   20  C   UNL     1     -36.478  41.742 -57.227  1.00  0.00    -0.021 A 
HETATM   21  C   UNL     1     -36.871  41.422 -58.580  1.00  0.00     0.010 A 
HETATM   22  C   UNL     1     -35.282  42.424 -56.975  1.00  0.00     0.012 A 
HETATM   23  C   UNL     1     -37.119  40.173 -59.188  1.00  0.00     0.152 A 
HETATM   24  C   UNL     1     -37.118  42.342 -59.573  1.00  0.00     0.123 A 
HETATM   25  N   UNL     1     -37.478  40.291 -60.471  1.00  0.00    -0.187 NA
HETATM   26  N   UNL     1     -37.488  41.621 -60.670  1.00  0.00    -0.289 N 
HETATM   27  H   UNL     1     -37.761  41.965 -61.584  1.00  0.00     0.188 HD
HETATM   28  C   UNL     1     -34.872  42.655 -55.662  1.00  0.00     0.003 A 
HETATM   29  C   UNL     1     -35.656  42.208 -54.595  1.00  0.00     0.029 A 
ENDBRANCH   2  18
TORSDOF 4
ENDMDL
MODEL 3
REMARK VINA RESULT:      -7.9      2.463      7.007
REMARK  4 active torsions:
REMARK  status: ('A' for Active; 'I' for Inactive)
REMARK       I    between atoms: C_2  and  N_3 
REMARK    1  A    between atoms: N_3  and  C_4 
REMARK    2  A    between atoms: C_4  and  C_5 
REMARK       I    between atoms: C_5  and  N_6 
REMARK    3  A    between atoms: N_6  and  C_7 
REMARK    4  A    between atoms: C_20  and  C_21 
ROOT
HETATM    1  C   UNL     1     -40.880  54.030 -54.312  1.00  0.00     0.272 C 
HETATM    2  N   UNL     1     -42.231  54.164 -54.524  1.00  0.00    -0.322 N 
HETATM    3  O   UNL     1     -40.014  54.698 -54.874  1.00  0.00    -0.266 OA
HETATM    4  H   UNL     1     -42.771  53.305 -54.441  1.00  0.00     0.169 HD
ENDROOT
BRANCH   1   5
HETATM    5  C   UNL     1     -40.490  52.980 -53.291  1.00  0.00     0.104 C 
HETATM    6  C   UNL     1     -40.860  53.189 -52.008  1.00  0.00     0.046 C 
BRANCH   5   7
HETATM    7  N   UNL     1     -39.766  51.831 -53.576  1.00  0.00    -0.323 N 
HETATM    8  C   UNL     1     -40.171  50.680 -54.214  1.00  0.00     0.218 C 
HETATM    9  C   UNL     1     -39.052  49.697 -54.455  1.00  0.00     0.117 C 
HETATM   10  O   UNL     1     -41.325  50.403 -54.520  1.00  0.00    -0.274 OA
HETATM   11  H   UNL     1     -38.804  51.844 -53.260  1.00  0.00     0.169 HD
ENDBRANCH   5   7
BRANCH   6  12
HETATM   12  C   UNL     1     -41.673  54.304 -51.506  1.00  0.00    -0.034 A 
HETATM   13  C   UNL     1     -43.032  54.115 -51.229  1.00  0.00     0.011 A 
HETATM   14  C   UNL     1     -43.810  55.180 -50.771  1.00  0.00     0.001 A 
HETATM   15  C   UNL     1     -43.236  56.438 -50.593  1.00  0.00     0.000 A 
HETATM   16  C   UNL     1     -41.884  56.632 -50.867  1.00  0.00     0.001 A 
HETATM   17  C   UNL     1     -41.101  55.567 -51.317  1.00  0.00     0.011 A 
ENDBRANCH   6  12
ENDBRANCH   1   5
BRANCH   2  18
HETATM   18  C   UNL     1     -42.853  55.261 -55.147  1.00  0.00     0.035 A 
HETATM   19  C   UNL     1     -42.954  55.367 -56.538  1.00  0.00     0.042 A 
HETATM   20  C   UNL     1     -43.527  56.502 -57.123  1.00  0.00    -0.021 A 
HETATM   21  C   UNL     1     -43.553  56.631 -58.562  1.00  0.00     0.010 A 
HETATM   22  C   UNL     1     -44.024  57.524 -56.306  1.00  0.00     0.012 A 
HETATM   23  C   UNL     1     -42.498  56.620 -59.499  1.00  0.00     0.152 A 
HETATM   24  C   UNL     1     -44.690  56.767 -59.325  1.00  0.00     0.123 A 
HETATM   25  N   UNL     1     -42.931  56.756 -60.757  1.00  0.00    -0.187 NA
HETATM   26  N   UNL     1     -44.267  56.824 -60.621  1.00  0.00    -0.289 N 
HETATM   27  H   UNL     1     -44.830  56.905 -61.461  1.00  0.00     0.188 HD
HETATM   28  C   UNL     1     -43.919  57.425 -54.919  1.00  0.00     0.003 A 
HETATM   29  C   UNL     1     -43.318  56.303 -54.341  1.00  0.00     0.029 A 
ENDBRANCH   2  18
TORSDOF 4
ENDMDL
MODEL 4
REMARK VINA RESULT:      -7.7      2.412      3.105
REMARK  4 active torsions:
REMARK  status: ('A' for Active; 'I' for Inactive)
REMARK       I    between atoms: C_2  and  N_3 
REMARK    1  A    between atoms: N_3  and  C_4 
REMARK    2  A    between atoms: C_4  and  C_5 
REMARK       I    between atoms: C_5  and  N_6 
REMARK    3  A    between atoms: N_6  and  C_7 
REMARK    4  A    between atoms: C_20  and  C_21 
ROOT
HETATM    1  C   UNL     1     -42.296  56.549 -55.826  1.00  0.00     0.272 C 
HETATM    2  N   UNL     1     -41.099  56.103 -55.321  1.00  0.00    -0.322 N 
HETATM    3  O   UNL     1     -43.385  56.017 -55.618  1.00  0.00    -0.266 OA
HETATM    4  H   UNL     1     -40.290  56.258 -55.919  1.00  0.00     0.169 HD
ENDROOT
BRANCH   1   5
HETATM    5  C   UNL     1     -42.209  57.798 -56.681  1.00  0.00     0.104 C 
HETATM    6  C   UNL     1     -42.354  58.990 -56.060  1.00  0.00     0.046 C 
BRANCH   5   7
HETATM    7  N   UNL     1     -42.010  57.804 -58.054  1.00  0.00    -0.323 N 
HETATM    8  C   UNL     1     -42.883  57.467 -59.063  1.00  0.00     0.218 C 
HETATM    9  C   UNL     1     -42.340  57.730 -60.446  1.00  0.00     0.117 C 
HETATM   10  O   UNL     1     -43.980  56.941 -58.911  1.00  0.00    -0.274 OA
HETATM   11  H   UNL     1     -41.085  58.093 -58.350  1.00  0.00     0.169 HD
ENDBRANCH   5   7
BRANCH   6  12
HETATM   12  C   UNL     1     -42.516  59.208 -54.617  1.00  0.00    -0.034 A 
HETATM   13  C   UNL     1     -41.393  59.398 -53.804  1.00  0.00     0.011 A 
HETATM   14  C   UNL     1     -41.545  59.584 -52.428  1.00  0.00     0.001 A 
HETATM   15  C   UNL     1     -42.819  59.577 -51.859  1.00  0.00     0.000 A 
HETATM   16  C   UNL     1     -43.941  59.389 -52.664  1.00  0.00     0.001 A 
HETATM   17  C   UNL     1     -43.792  59.210 -54.041  1.00  0.00     0.011 A 
ENDBRANCH   6  12
ENDBRANCH   1   5
BRANCH   2  18
HETATM   18  C   UNL     1     -40.951  55.194 -54.258  1.00  0.00     0.035 A 
HETATM   19  C   UNL     1     -40.541  53.873 -54.461  1.00  0.00     0.042 A 
HETATM   20  C   UNL     1     -40.464  52.981 -53.385  1.00  0.00    -0.021 A 
HETATM   21  C   UNL     1     -40.114  51.599 -53.624  1.00  0.00     0.010 A 
HETATM   22  C   UNL     1     -40.774  53.425 -52.095  1.00  0.00     0.012 A 
HETATM   23  C   UNL     1     -40.727  50.630 -54.446  1.00  0.00     0.152 A 
HETATM   24  C   UNL     1     -39.032  50.949 -53.077  1.00  0.00     0.123 A 
HETATM   25  N   UNL     1     -40.094  49.453 -54.409  1.00  0.00    -0.187 NA
HETATM   26  N   UNL     1     -39.057  49.684 -53.584  1.00  0.00    -0.289 N 
HETATM   27  H   UNL     1     -38.402  48.927 -53.417  1.00  0.00     0.188 HD
HETATM   28  C   UNL     1     -41.189  54.740 -51.890  1.00  0.00     0.003 A 
HETATM   29  C   UNL     1     -41.295  55.618 -52.972  1.00  0.00     0.029 A 
ENDBRANCH   2  18
TORSDOF 4
ENDMDL
MODEL 5
REMARK VINA RESULT:      -7.5      2.032      4.241
REMARK  4 active torsions:
REMARK  status: ('A' for Active; 'I' for Inactive)
REMARK       I    between atoms: C_2  and  N_3 
REMARK    1  A    between atoms: N_3  and  C_4 
REMARK    2  A    between atoms: C_4  and  C_5 
REMARK       I    between atoms: C_5  and  N_6 
REMARK    3  A    between atoms: N_6  and  C_7 
REMARK    4  A    between atoms: C_20  and  C_21 
ROOT
HETATM    1  C   UNL     1     -42.952  56.787 -55.123  1.00  0.00     0.272 C 
HETATM    2  N   UNL     1     -41.633  56.438 -54.962  1.00  0.00    -0.322 N 
HETATM    3  O   UNL     1     -43.899  56.006 -55.035  1.00  0.00    -0.266 OA
HETATM    4  H   UNL     1     -40.972  56.967 -55.528  1.00  0.00     0.169 HD
ENDROOT
BRANCH   1   5
HETATM    5  C   UNL     1     -43.199  58.255 -55.413  1.00  0.00     0.104 C 
HETATM    6  C   UNL     1     -43.437  58.605 -56.696  1.00  0.00     0.046 C 
BRANCH   5   7
HETATM    7  N   UNL     1     -43.179  59.263 -54.460  1.00  0.00    -0.323 N 
HETATM    8  C   UNL     1     -42.101  59.887 -53.872  1.00  0.00     0.218 C 
HETATM    9  C   UNL     1     -42.484  61.035 -52.972  1.00  0.00     0.117 C 
HETATM   10  O   UNL     1     -40.930  59.542 -53.984  1.00  0.00    -0.274 OA
HETATM   11  H   UNL     1     -44.091  59.577 -54.152  1.00  0.00     0.169 HD
ENDBRANCH   5   7
BRANCH   6  12
HETATM   12  C   UNL     1     -43.557  57.694 -57.841  1.00  0.00    -0.034 A 
HETATM   13  C   UNL     1     -42.408  57.178 -58.453  1.00  0.00     0.011 A 
HETATM   14  C   UNL     1     -42.520  56.329 -59.555  1.00  0.00     0.001 A 
HETATM   15  C   UNL     1     -43.779  55.994 -60.054  1.00  0.00     0.000 A 
HETATM   16  C   UNL     1     -44.926  56.505 -59.449  1.00  0.00     0.001 A 
HETATM   17  C   UNL     1     -44.817  57.349 -58.342  1.00  0.00     0.011 A 
ENDBRANCH   6  12
ENDBRANCH   1   5
BRANCH   2  18
HETATM   18  C   UNL     1     -41.171  55.248 -54.371  1.00  0.00     0.035 A 
HETATM   19  C   UNL     1     -41.085  55.091 -52.985  1.00  0.00     0.042 A 
HETATM   20  C   UNL     1     -40.564  53.913 -52.436  1.00  0.00    -0.021 A 
HETATM   21  C   UNL     1     -40.409  53.798 -51.004  1.00  0.00     0.010 A 
HETATM   22  C   UNL     1     -40.153  52.878 -53.283  1.00  0.00     0.012 A 
HETATM   23  C   UNL     1     -39.685  54.600 -50.095  1.00  0.00     0.152 A 
HETATM   24  C   UNL     1     -41.003  52.839 -50.216  1.00  0.00     0.123 A 
HETATM   25  N   UNL     1     -39.797  54.171 -48.834  1.00  0.00    -0.187 NA
HETATM   26  N   UNL     1     -40.619  53.113 -48.937  1.00  0.00    -0.289 N 
HETATM   27  H   UNL     1     -40.879  52.625 -48.086  1.00  0.00     0.188 HD
HETATM   28  C   UNL     1     -40.232  53.035 -54.666  1.00  0.00     0.003 A 
HETATM   29  C   UNL     1     -40.724  54.225 -55.210  1.00  0.00     0.029 A 
ENDBRANCH   2  18
TORSDOF 4
ENDMDL
MODEL 6
REMARK VINA RESULT:      -7.2      3.057      7.969
REMARK  4 active torsions:
REMARK  status: ('A' for Active; 'I' for Inactive)
REMARK       I    between atoms: C_2  and  N_3 
REMARK    1  A    between atoms: N_3  and  C_4 
REMARK    2  A    between atoms: C_4  and  C_5 
REMARK       I    between atoms: C_5  and  N_6 
REMARK    3  A    between atoms: N_6  and  C_7 
REMARK    4  A    between atoms: C_20  and  C_21 
ROOT
HETATM    1  C   UNL     1     -43.248  56.934 -54.167  1.00  0.00     0.272 C 
HETATM    2  N   UNL     1     -42.925  57.571 -55.340  1.00  0.00    -0.322 N 
HETATM    3  O   UNL     1     -44.141  56.097 -54.047  1.00  0.00    -0.266 OA
HETATM    4  H   UNL     1     -42.589  58.526 -55.238  1.00  0.00     0.169 HD
ENDROOT
BRANCH   1   5
HETATM    5  C   UNL     1     -42.399  57.319 -52.971  1.00  0.00     0.104 C 
HETATM    6  C   UNL     1     -41.434  56.454 -52.587  1.00  0.00     0.046 C 
BRANCH   5   7
HETATM    7  N   UNL     1     -42.554  58.484 -52.233  1.00  0.00    -0.323 N 
HETATM    8  C   UNL     1     -42.216  59.777 -52.563  1.00  0.00     0.218 C 
HETATM    9  C   UNL     1     -42.665  60.798 -51.547  1.00  0.00     0.117 C 
HETATM   10  O   UNL     1     -41.558  60.115 -53.541  1.00  0.00    -0.274 OA
HETATM   11  H   UNL     1     -42.971  58.357 -51.319  1.00  0.00     0.169 HD
ENDBRANCH   5   7
BRANCH   6  12
HETATM   12  C   UNL     1     -41.069  55.200 -53.259  1.00  0.00    -0.034 A 
HETATM   13  C   UNL     1     -41.313  53.971 -52.635  1.00  0.00     0.011 A 
HETATM   14  C   UNL     1     -40.946  52.780 -53.264  1.00  0.00     0.001 A 
HETATM   15  C   UNL     1     -40.330  52.811 -54.515  1.00  0.00     0.000 A 
HETATM   16  C   UNL     1     -40.085  54.032 -55.141  1.00  0.00     0.001 A 
HETATM   17  C   UNL     1     -40.457  55.225 -54.517  1.00  0.00     0.011 A 
ENDBRANCH   6  12
ENDBRANCH   1   5
BRANCH   2  18
HETATM   18  C   UNL     1     -43.321  57.160 -56.626  1.00  0.00     0.035 A 
HETATM   19  C   UNL     1     -44.189  57.921 -57.415  1.00  0.00     0.042 A 
HETATM   20  C   UNL     1     -44.608  57.449 -58.665  1.00  0.00    -0.021 A 
HETATM   21  C   UNL     1     -45.565  58.211 -59.434  1.00  0.00     0.010 A 
HETATM   22  C   UNL     1     -44.131  56.220 -59.136  1.00  0.00     0.012 A 
HETATM   23  C   UNL     1     -46.869  58.638 -59.104  1.00  0.00     0.152 A 
HETATM   24  C   UNL     1     -45.350  58.711 -60.697  1.00  0.00     0.123 A 
HETATM   25  N   UNL     1     -47.442  59.339 -60.088  1.00  0.00    -0.187 NA
HETATM   26  N   UNL     1     -46.487  59.384 -61.034  1.00  0.00    -0.289 N 
HETATM   27  H   UNL     1     -46.684  59.897 -61.887  1.00  0.00     0.188 HD
HETATM   28  C   UNL     1     -43.271  55.456 -58.348  1.00  0.00     0.003 A 
HETATM   29  C   UNL     1     -42.880  55.917 -57.087  1.00  0.00     0.029 A 
ENDBRANCH   2  18
TORSDOF 4
ENDMDL
MODEL 7
REMARK VINA RESULT:      -7.2      2.066      2.393
REMARK  4 active torsions:
REMARK  status: ('A' for Active; 'I' for Inactive)
REMARK       I    between atoms: C_2  and  N_3 
REMARK    1  A    between atoms: N_3  and  C_4 
REMARK    2  A    between atoms: C_4  and  C_5 
REMARK       I    between atoms: C_5  and  N_6 
REMARK    3  A    between atoms: N_6  and  C_7 
REMARK    4  A    between atoms: C_20  and  C_21 
ROOT
HETATM    1  C   UNL     1     -42.244  57.122 -54.588  1.00  0.00     0.272 C 
HETATM    2  N   UNL     1     -41.232  56.256 -54.927  1.00  0.00    -0.322 N 
HETATM    3  O   UNL     1     -43.179  56.847 -53.838  1.00  0.00    -0.266 OA
HETATM    4  H   UNL     1     -40.857  56.373 -55.866  1.00  0.00     0.169 HD
ENDROOT
BRANCH   1   5
HETATM    5  C   UNL     1     -42.138  58.505 -55.200  1.00  0.00     0.104 C 
HETATM    6  C   UNL     1     -41.775  59.521 -54.386  1.00  0.00     0.046 C 
BRANCH   5   7
HETATM    7  N   UNL     1     -42.406  58.805 -56.528  1.00  0.00    -0.323 N 
HETATM    8  C   UNL     1     -43.442  59.535 -57.065  1.00  0.00     0.218 C 
HETATM    9  C   UNL     1     -43.319  59.755 -58.553  1.00  0.00     0.117 C 
HETATM   10  O   UNL     1     -44.426  59.935 -56.453  1.00  0.00    -0.274 OA
HETATM   11  H   UNL     1     -41.745  58.423 -57.193  1.00  0.00     0.169 HD
ENDBRANCH   5   7
BRANCH   6  12
HETATM   12  C   UNL     1     -41.395  59.412 -52.971  1.00  0.00    -0.034 A 
HETATM   13  C   UNL     1     -40.128  58.935 -52.618  1.00  0.00     0.011 A 
HETATM   14  C   UNL     1     -39.774  58.811 -51.273  1.00  0.00     0.001 A 
HETATM   15  C   UNL     1     -40.686  59.160 -50.276  1.00  0.00     0.000 A 
HETATM   16  C   UNL     1     -41.949  59.635 -50.622  1.00  0.00     0.001 A 
HETATM   17  C   UNL     1     -42.303  59.767 -51.967  1.00  0.00     0.011 A 
ENDBRANCH   6  12
ENDBRANCH   1   5
BRANCH   2  18
HETATM   18  C   UNL     1     -40.922  55.062 -54.251  1.00  0.00     0.035 A 
HETATM   19  C   UNL     1     -40.872  54.989 -52.855  1.00  0.00     0.042 A 
HETATM   20  C   UNL     1     -40.501  53.798 -52.221  1.00  0.00    -0.021 A 
HETATM   21  C   UNL     1     -40.378  53.762 -50.781  1.00  0.00     0.010 A 
HETATM   22  C   UNL     1     -40.203  52.668 -52.990  1.00  0.00     0.012 A 
HETATM   23  C   UNL     1     -39.577  54.533 -49.912  1.00  0.00     0.152 A 
HETATM   24  C   UNL     1     -41.092  52.933 -49.946  1.00  0.00     0.123 A 
HETATM   25  N   UNL     1     -39.755  54.206 -48.628  1.00  0.00    -0.187 NA
HETATM   26  N   UNL     1     -40.695  53.245 -48.679  1.00  0.00    -0.289 N 
HETATM   27  H   UNL     1     -41.021  52.849 -47.803  1.00  0.00     0.188 HD
HETATM   28  C   UNL     1     -40.245  52.739 -54.382  1.00  0.00     0.003 A 
HETATM   29  C   UNL     1     -40.587  53.939 -55.012  1.00  0.00     0.029 A 
ENDBRANCH   2  18
TORSDOF 4
ENDMDL
MODEL 8
REMARK VINA RESULT:      -7.0      3.295      5.785
REMARK  4 active torsions:
REMARK  status: ('A' for Active; 'I' for Inactive)
REMARK       I    between atoms: C_2  and  N_3 
REMARK    1  A    between atoms: N_3  and  C_4 
REMARK    2  A    between atoms: C_4  and  C_5 
REMARK       I    between atoms: C_5  and  N_6 
REMARK    3  A    between atoms: N_6  and  C_7 
REMARK    4  A    between atoms: C_20  and  C_21 
ROOT
HETATM    1  C   UNL     1     -43.535  56.507 -54.700  1.00  0.00     0.272 C 
HETATM    2  N   UNL     1     -42.549  57.389 -54.328  1.00  0.00    -0.322 N 
HETATM    3  O   UNL     1     -44.717  56.598 -54.372  1.00  0.00    -0.266 OA
HETATM    4  H   UNL     1     -41.626  56.980 -54.202  1.00  0.00     0.169 HD
ENDROOT
BRANCH   1   5
HETATM    5  C   UNL     1     -43.077  55.368 -55.590  1.00  0.00     0.104 C 
HETATM    6  C   UNL     1     -42.411  54.348 -55.005  1.00  0.00     0.046 C 
BRANCH   5   7
HETATM    7  N   UNL     1     -43.274  55.308 -56.962  1.00  0.00    -0.323 N 
HETATM    8  C   UNL     1     -42.952  56.232 -57.931  1.00  0.00     0.218 C 
HETATM    9  C   UNL     1     -43.207  55.747 -59.337  1.00  0.00     0.117 C 
HETATM   10  O   UNL     1     -42.555  57.373 -57.724  1.00  0.00    -0.274 OA
HETATM   11  H   UNL     1     -43.727  54.465 -57.292  1.00  0.00     0.169 HD
ENDBRANCH   5   7
BRANCH   6  12
HETATM   12  C   UNL     1     -42.147  54.189 -53.569  1.00  0.00    -0.034 A 
HETATM   13  C   UNL     1     -40.831  54.097 -53.102  1.00  0.00     0.011 A 
HETATM   14  C   UNL     1     -40.580  53.924 -51.739  1.00  0.00     0.001 A 
HETATM   15  C   UNL     1     -41.641  53.838 -50.839  1.00  0.00     0.000 A 
HETATM   16  C   UNL     1     -42.954  53.929 -51.298  1.00  0.00     0.001 A 
HETATM   17  C   UNL     1     -43.207  54.109 -52.659  1.00  0.00     0.011 A 
ENDBRANCH   6  12
ENDBRANCH   1   5
BRANCH   2  18
HETATM   18  C   UNL     1     -42.764  58.676 -53.802  1.00  0.00     0.035 A 
HETATM   19  C   UNL     1     -43.329  58.878 -52.539  1.00  0.00     0.042 A 
HETATM   20  C   UNL     1     -43.582  60.174 -52.075  1.00  0.00    -0.021 A 
HETATM   21  C   UNL     1     -44.237  60.364 -50.801  1.00  0.00     0.010 A 
HETATM   22  C   UNL     1     -43.242  61.273 -52.872  1.00  0.00     0.012 A 
HETATM   23  C   UNL     1     -45.488  59.901 -50.339  1.00  0.00     0.152 A 
HETATM   24  C   UNL     1     -43.709  61.050 -49.732  1.00  0.00     0.123 A 
HETATM   25  N   UNL     1     -45.740  60.281 -49.082  1.00  0.00    -0.187 NA
HETATM   26  N   UNL     1     -44.634  60.960 -48.734  1.00  0.00    -0.289 N 
HETATM   27  H   UNL     1     -44.578  61.333 -47.792  1.00  0.00     0.188 HD
HETATM   28  C   UNL     1     -42.685  61.074 -54.135  1.00  0.00     0.003 A 
HETATM   29  C   UNL     1     -42.463  59.777 -54.607  1.00  0.00     0.029 A 
ENDBRANCH   2  18
TORSDOF 4
ENDMDL
MODEL 9
REMARK VINA RESULT:      -7.0      2.761      7.647
REMARK  4 active torsions:
REMARK  status: ('A' for Active; 'I' for Inactive)
REMARK       I    between atoms: C_2  and  N_3 
REMARK    1  A    between atoms: N_3  and  C_4 
REMARK    2  A    between atoms: C_4  and  C_5 
REMARK       I    between atoms: C_5  and  N_6 
REMARK    3  A    between atoms: N_6  and  C_7 
REMARK    4  A    between atoms: C_20  and  C_21 
ROOT
HETATM    1  C   UNL     1     -42.494  55.891 -54.299  1.00  0.00     0.272 C 
HETATM    2  N   UNL     1     -43.342  55.798 -55.377  1.00  0.00    -0.322 N 
HETATM    3  O   UNL     1     -41.311  56.221 -54.366  1.00  0.00    -0.266 OA
HETATM    4  H   UNL     1     -44.056  55.076 -55.306  1.00  0.00     0.169 HD
ENDROOT
BRANCH   1   5
HETATM    5  C   UNL     1     -43.120  55.567 -52.958  1.00  0.00     0.104 C 
HETATM    6  C   UNL     1     -42.719  54.434 -52.339  1.00  0.00     0.046 C 
BRANCH   5   7
HETATM    7  N   UNL     1     -44.088  56.338 -52.330  1.00  0.00    -0.323 N 
HETATM    8  C   UNL     1     -43.945  57.508 -51.618  1.00  0.00     0.218 C 
HETATM    9  C   UNL     1     -45.256  58.124 -51.197  1.00  0.00     0.117 C 
HETATM   10  O   UNL     1     -42.879  58.010 -51.278  1.00  0.00    -0.274 OA
HETATM   11  H   UNL     1     -45.033  55.980 -52.403  1.00  0.00     0.169 HD
ENDBRANCH   5   7
BRANCH   6  12
HETATM   12  C   UNL     1     -41.674  53.512 -52.801  1.00  0.00    -0.034 A 
HETATM   13  C   UNL     1     -41.764  52.925 -54.068  1.00  0.00     0.011 A 
HETATM   14  C   UNL     1     -40.781  52.031 -54.500  1.00  0.00     0.001 A 
HETATM   15  C   UNL     1     -39.708  51.717 -53.666  1.00  0.00     0.000 A 
HETATM   16  C   UNL     1     -39.613  52.300 -52.403  1.00  0.00     0.001 A 
HETATM   17  C   UNL     1     -40.591  53.199 -51.973  1.00  0.00     0.011 A 
ENDBRANCH   6  12
ENDBRANCH   1   5
BRANCH   2  18
HETATM   18  C   UNL     1     -43.109  56.354 -56.647  1.00  0.00     0.035 A 
HETATM   19  C   UNL     1     -43.021  57.735 -56.850  1.00  0.00     0.042 A 
HETATM   20  C   UNL     1     -42.848  58.253 -58.139  1.00  0.00    -0.021 A 
HETATM   21  C   UNL     1     -42.838  59.683 -58.340  1.00  0.00     0.010 A 
HETATM   22  C   UNL     1     -42.735  57.379 -59.226  1.00  0.00     0.012 A 
HETATM   23  C   UNL     1     -43.810  60.658 -58.027  1.00  0.00     0.152 A 
HETATM   24  C   UNL     1     -41.796  60.400 -58.884  1.00  0.00     0.123 A 
HETATM   25  N   UNL     1     -43.422  61.892 -58.362  1.00  0.00    -0.187 NA
HETATM   26  N   UNL     1     -42.188  61.707 -58.862  1.00  0.00    -0.289 N 
HETATM   27  H   UNL     1     -41.668  62.523 -59.168  1.00  0.00     0.188 HD
HETATM   28  C   UNL     1     -42.829  56.001 -59.028  1.00  0.00     0.003 A 
HETATM   29  C   UNL     1     -43.033  55.491 -57.743  1.00  0.00     0.029 A 
ENDBRANCH   2  18
TORSDOF 4
ENDMDL
MODEL 10
REMARK VINA RESULT:      -6.9      2.698      7.806
REMARK  4 active torsions:
REMARK  status: ('A' for Active; 'I' for Inactive)
REMARK       I    between atoms: C_2  and  N_3 
REMARK    1  A    between atoms: N_3  and  C_4 
REMARK    2  A    between atoms: C_4  and  C_5 
REMARK       I    between atoms: C_5  and  N_6 
REMARK    3  A    between atoms: N_6  and  C_7 
REMARK    4  A    between atoms: C_20  and  C_21 
ROOT
HETATM    1  C   UNL     1     -41.371  57.000 -53.763  1.00  0.00     0.272 C 
HETATM    2  N   UNL     1     -42.515  57.462 -54.367  1.00  0.00    -0.322 N 
HETATM    3  O   UNL     1     -40.319  56.756 -54.352  1.00  0.00    -0.266 OA
HETATM    4  H   UNL     1     -43.386  57.147 -53.945  1.00  0.00     0.169 HD
ENDROOT
BRANCH   1   5
HETATM    5  C   UNL     1     -41.466  56.811 -52.262  1.00  0.00     0.104 C 
HETATM    6  C   UNL     1     -41.431  55.546 -51.790  1.00  0.00     0.046 C 
BRANCH   5   7
HETATM    7  N   UNL     1     -41.604  57.841 -51.343  1.00  0.00    -0.323 N 
HETATM    8  C   UNL     1     -40.903  59.022 -51.243  1.00  0.00     0.218 C 
HETATM    9  C   UNL     1     -41.437  59.954 -50.184  1.00  0.00     0.117 C 
HETATM   10  O   UNL     1     -39.898  59.311 -51.883  1.00  0.00    -0.274 OA
HETATM   11  H   UNL     1     -42.321  57.695 -50.643  1.00  0.00     0.169 HD
ENDBRANCH   5   7
BRANCH   6  12
HETATM   12  C   UNL     1     -41.235  54.324 -52.581  1.00  0.00    -0.034 A 
HETATM   13  C   UNL     1     -40.182  53.453 -52.280  1.00  0.00     0.011 A 
HETATM   14  C   UNL     1     -39.982  52.302 -53.045  1.00  0.00     0.001 A 
HETATM   15  C   UNL     1     -40.829  52.019 -54.116  1.00  0.00     0.000 A 
HETATM   16  C   UNL     1     -41.880  52.884 -54.420  1.00  0.00     0.001 A 
HETATM   17  C   UNL     1     -42.086  54.031 -53.652  1.00  0.00     0.011 A 
ENDBRANCH   6  12
ENDBRANCH   1   5
BRANCH   2  18
HETATM   18  C   UNL     1     -42.588  58.025 -55.654  1.00  0.00     0.035 A 
HETATM   19  C   UNL     1     -43.126  57.329 -56.741  1.00  0.00     0.042 A 
HETATM   20  C   UNL     1     -43.125  57.901 -58.018  1.00  0.00    -0.021 A 
HETATM   21  C   UNL     1     -43.613  57.138 -59.144  1.00  0.00     0.010 A 
HETATM   22  C   UNL     1     -42.606  59.188 -58.201  1.00  0.00     0.012 A 
HETATM   23  C   UNL     1     -43.198  55.887 -59.650  1.00  0.00     0.152 A 
HETATM   24  C   UNL     1     -44.659  57.507 -59.959  1.00  0.00     0.123 A 
HETATM   25  N   UNL     1     -43.912  55.503 -60.713  1.00  0.00    -0.187 NA
HETATM   26  N   UNL     1     -44.804  56.498 -60.865  1.00  0.00    -0.289 N 
HETATM   27  H   UNL     1     -45.488  56.417 -61.610  1.00  0.00     0.188 HD
HETATM   28  C   UNL     1     -42.063  59.881 -57.120  1.00  0.00     0.003 A 
HETATM   29  C   UNL     1     -42.038  59.294 -55.852  1.00  0.00     0.029 A 
ENDBRANCH   2  18
TORSDOF 4
ENDMDL
