MODEL 1
REMARK VINA RESULT:      -7.8      0.000      0.000
REMARK  9 active torsions:
REMARK  status: ('A' for Active; 'I' for Inactive)
REMARK    1  A    between atoms: C_4  and  C_5 
REMARK    2  A    between atoms: C_7  and  C_8 
REMARK    3  A    between atoms: C_8  and  C_9 
REMARK       I    between atoms: C_9  and  N_10 
REMARK    4  A    between atoms: N_10  and  C_11 
REMARK    5  A    between atoms: C_11  and  C_12 
REMARK    6  A    between atoms: C_12  and  N_13 
REMARK    7  A    between atoms: C_27  and  C_28 
REMARK    8  A    between atoms: C_28  and  O_29 
REMARK    9  A    between atoms: O_29  and  C_30 
ROOT
HETATM    1  C   UNL     1     -43.381  57.650 -53.992  1.00  0.00     0.166 C 
HETATM    2  N   UNL     1     -42.665  58.096 -52.781  1.00  0.00    -0.319 N 
HETATM    3  C   UNL     1     -42.786  57.843 -51.521  1.00  0.00     0.011 C 
HETATM    4  C   UNL     1     -41.449  59.002 -53.072  1.00  0.00     0.170 C 
HETATM    5  S   UNL     1     -40.463  59.218 -51.665  1.00  0.00    -0.086 SA
HETATM    6  C   UNL     1     -41.742  58.465 -50.622  1.00  0.00     0.135 C 
HETATM    7  N   UNL     1     -41.207  59.574 -54.196  1.00  0.00    -0.229 NA
HETATM    8  C   UNL     1     -42.154  59.479 -55.195  1.00  0.00     0.048 C 
HETATM    9  C   UNL     1     -41.955  60.493 -56.299  1.00  0.00     0.071 C 
HETATM   10  C   UNL     1     -43.198  58.621 -55.130  1.00  0.00     0.069 C 
ENDROOT
BRANCH   3  11
HETATM   11  C   UNL     1     -43.924  57.039 -50.966  1.00  0.00     0.156 C 
BRANCH  11  12
HETATM   12  C   UNL     1     -43.574  55.569 -50.811  1.00  0.00     0.223 C 
HETATM   13  N   UNL     1     -42.309  55.228 -51.209  1.00  0.00    -0.359 N 
HETATM   14  H   UNL     1     -41.771  55.933 -51.711  1.00  0.00     0.162 HD
HETATM   15  O   UNL     1     -44.374  54.768 -50.335  1.00  0.00    -0.273 OA
BRANCH  13  16
HETATM   16  C   UNL     1     -41.771  53.871 -51.353  1.00  0.00     0.150 C 
BRANCH  16  17
HETATM   17  C   UNL     1     -40.425  53.524 -50.679  1.00  0.00     0.254 C 
BRANCH  17  18
HETATM   18  N   UNL     1     -39.799  52.229 -51.174  1.00  0.00    -0.070 N 
HETATM   19  H   UNL     1     -38.772  52.355 -51.068  1.00  0.00     0.279 HD
HETATM   20  C   UNL     1     -40.203  51.006 -50.379  1.00  0.00     0.235 C 
HETATM   21  C   UNL     1     -39.464  49.780 -50.897  1.00  0.00     0.028 C 
HETATM   22  C   UNL     1     -39.705  49.564 -52.383  1.00  0.00     0.003 C 
HETATM   23  C   UNL     1     -39.343  50.814 -53.174  1.00  0.00     0.028 C 
HETATM   24  C   UNL     1     -40.076  52.041 -52.654  1.00  0.00     0.235 C 
ENDBRANCH  17  18
ENDBRANCH  16  17
ENDBRANCH  13  16
ENDBRANCH  11  12
ENDBRANCH   3  11
BRANCH   1  25
HETATM   25  C   UNL     1     -42.978  56.224 -54.381  1.00  0.00    -0.030 A 
HETATM   26  C   UNL     1     -41.652  55.856 -54.697  1.00  0.00     0.016 A 
HETATM   27  C   UNL     1     -41.326  54.534 -55.039  1.00  0.00    -0.061 A 
HETATM   28  C   UNL     1     -39.911  54.149 -55.371  1.00  0.00     0.048 C 
HETATM   29  C   UNL     1     -42.344  53.583 -55.136  1.00  0.00     0.007 A 
HETATM   30  C   UNL     1     -43.663  53.935 -54.863  1.00  0.00     0.001 A 
HETATM   31  C   UNL     1     -43.978  55.240 -54.480  1.00  0.00     0.009 A 
ENDBRANCH   1  25
BRANCH  10  32
HETATM   32  C   UNL     1     -44.357  58.627 -56.060  1.00  0.00     0.294 C 
HETATM   33  O   UNL     1     -45.183  59.526 -55.997  1.00  0.00    -0.259 OA
BRANCH  32  34
HETATM   34  O   UNL     1     -44.358  57.574 -56.892  1.00  0.00    -0.313 OA
BRANCH  34  35
HETATM   35  C   UNL     1     -43.260  57.383 -57.819  1.00  0.00     0.124 C 
HETATM   36  C   UNL     1     -43.084  55.918 -58.198  1.00  0.00     0.040 C 
HETATM   37  C   UNL     1     -43.369  58.306 -59.031  1.00  0.00     0.040 C 
ENDBRANCH  34  35
ENDBRANCH  32  34
ENDBRANCH  10  32
TORSDOF 9
ENDMDL
MODEL 2
REMARK VINA RESULT:      -6.9      3.215      7.371
REMARK  9 active torsions:
REMARK  status: ('A' for Active; 'I' for Inactive)
REMARK    1  A    between atoms: C_4  and  C_5 
REMARK    2  A    between atoms: C_7  and  C_8 
REMARK    3  A    between atoms: C_8  and  C_9 
REMARK       I    between atoms: C_9  and  N_10 
REMARK    4  A    between atoms: N_10  and  C_11 
REMARK    5  A    between atoms: C_11  and  C_12 
REMARK    6  A    between atoms: C_12  and  N_13 
REMARK    7  A    between atoms: C_27  and  C_28 
REMARK    8  A    between atoms: C_28  and  O_29 
REMARK    9  A    between atoms: O_29  and  C_30 
ROOT
HETATM    1  C   UNL     1     -42.319  58.484 -54.095  1.00  0.00     0.166 C 
HETATM    2  N   UNL     1     -43.162  59.215 -55.060  1.00  0.00    -0.319 N 
HETATM    3  C   UNL     1     -43.045  59.512 -56.311  1.00  0.00     0.011 C 
HETATM    4  C   UNL     1     -44.525  59.660 -54.489  1.00  0.00     0.170 C 
HETATM    5  S   UNL     1     -45.593  60.207 -55.736  1.00  0.00    -0.086 SA
HETATM    6  C   UNL     1     -44.232  60.209 -56.936  1.00  0.00     0.135 C 
HETATM    7  N   UNL     1     -44.832  59.678 -53.242  1.00  0.00    -0.229 NA
HETATM    8  C   UNL     1     -43.844  59.393 -52.321  1.00  0.00     0.048 C 
HETATM    9  C   UNL     1     -44.201  59.824 -50.916  1.00  0.00     0.071 C 
HETATM   10  C   UNL     1     -42.649  58.866 -52.674  1.00  0.00     0.069 C 
ENDROOT
BRANCH   3  11
HETATM   11  C   UNL     1     -41.790  59.245 -57.089  1.00  0.00     0.156 C 
BRANCH  11  12
HETATM   12  C   UNL     1     -42.004  58.243 -58.209  1.00  0.00     0.223 C 
HETATM   13  N   UNL     1     -42.645  57.090 -57.844  1.00  0.00    -0.359 N 
HETATM   14  H   UNL     1     -42.784  56.929 -56.847  1.00  0.00     0.162 HD
HETATM   15  O   UNL     1     -41.643  58.483 -59.359  1.00  0.00    -0.273 OA
BRANCH  13  16
HETATM   16  C   UNL     1     -42.813  55.883 -58.660  1.00  0.00     0.150 C 
BRANCH  16  17
HETATM   17  C   UNL     1     -43.547  55.990 -60.015  1.00  0.00     0.254 C 
BRANCH  17  18
HETATM   18  N   UNL     1     -44.940  56.593 -59.918  1.00  0.00    -0.070 N 
HETATM   19  H   UNL     1     -45.217  56.501 -58.920  1.00  0.00     0.279 HD
HETATM   20  C   UNL     1     -45.003  58.060 -60.285  1.00  0.00     0.235 C 
HETATM   21  C   UNL     1     -46.414  58.590 -60.078  1.00  0.00     0.028 C 
HETATM   22  C   UNL     1     -47.437  57.789 -60.871  1.00  0.00     0.003 C 
HETATM   23  C   UNL     1     -47.338  56.308 -60.534  1.00  0.00     0.028 C 
HETATM   24  C   UNL     1     -45.926  55.778 -60.734  1.00  0.00     0.235 C 
ENDBRANCH  17  18
ENDBRANCH  16  17
ENDBRANCH  13  16
ENDBRANCH  11  12
ENDBRANCH   3  11
BRANCH   1  25
HETATM   25  C   UNL     1     -42.402  56.971 -54.318  1.00  0.00    -0.030 A 
HETATM   26  C   UNL     1     -41.274  56.168 -54.591  1.00  0.00     0.016 A 
HETATM   27  C   UNL     1     -41.395  54.782 -54.779  1.00  0.00    -0.061 A 
HETATM   28  C   UNL     1     -40.188  53.933 -55.066  1.00  0.00     0.048 C 
HETATM   29  C   UNL     1     -42.664  54.200 -54.766  1.00  0.00     0.007 A 
HETATM   30  C   UNL     1     -43.793  54.981 -54.534  1.00  0.00     0.001 A 
HETATM   31  C   UNL     1     -43.665  56.352 -54.304  1.00  0.00     0.009 A 
ENDBRANCH   1  25
BRANCH  10  32
HETATM   32  C   UNL     1     -41.478  58.743 -51.768  1.00  0.00     0.294 C 
HETATM   33  O   UNL     1     -40.453  59.363 -52.011  1.00  0.00    -0.259 OA
BRANCH  32  34
HETATM   34  O   UNL     1     -41.703  57.905 -50.743  1.00  0.00    -0.313 OA
BRANCH  34  35
HETATM   35  C   UNL     1     -41.766  56.476 -50.977  1.00  0.00     0.124 C 
HETATM   36  C   UNL     1     -40.662  55.730 -50.239  1.00  0.00     0.040 C 
HETATM   37  C   UNL     1     -43.158  55.912 -50.702  1.00  0.00     0.040 C 
ENDBRANCH  34  35
ENDBRANCH  32  34
ENDBRANCH  10  32
TORSDOF 9
ENDMDL
MODEL 3
REMARK VINA RESULT:      -6.8      3.147      7.999
REMARK  9 active torsions:
REMARK  status: ('A' for Active; 'I' for Inactive)
REMARK    1  A    between atoms: C_4  and  C_5 
REMARK    2  A    between atoms: C_7  and  C_8 
REMARK    3  A    between atoms: C_8  and  C_9 
REMARK       I    between atoms: C_9  and  N_10 
REMARK    4  A    between atoms: N_10  and  C_11 
REMARK    5  A    between atoms: C_11  and  C_12 
REMARK    6  A    between atoms: C_12  and  N_13 
REMARK    7  A    between atoms: C_27  and  C_28 
REMARK    8  A    between atoms: C_28  and  O_29 
REMARK    9  A    between atoms: O_29  and  C_30 
ROOT
HETATM    1  C   UNL     1     -42.787  56.149 -53.166  1.00  0.00     0.166 C 
HETATM    2  N   UNL     1     -43.293  56.490 -54.509  1.00  0.00    -0.319 N 
HETATM    3  C   UNL     1     -44.166  57.330 -54.954  1.00  0.00     0.011 C 
HETATM    4  C   UNL     1     -42.575  55.745 -55.655  1.00  0.00     0.170 C 
HETATM    5  S   UNL     1     -42.968  56.420 -57.200  1.00  0.00    -0.086 SA
HETATM    6  C   UNL     1     -44.296  57.410 -56.458  1.00  0.00     0.135 C 
HETATM    7  N   UNL     1     -41.815  54.721 -55.507  1.00  0.00    -0.229 NA
HETATM    8  C   UNL     1     -41.715  54.157 -54.252  1.00  0.00     0.048 C 
HETATM    9  C   UNL     1     -41.132  52.761 -54.273  1.00  0.00     0.071 C 
HETATM   10  C   UNL     1     -42.179  54.770 -53.139  1.00  0.00     0.069 C 
ENDROOT
BRANCH   3  11
HETATM   11  C   UNL     1     -45.047  58.134 -54.044  1.00  0.00     0.156 C 
BRANCH  11  12
HETATM   12  C   UNL     1     -44.699  59.612 -54.058  1.00  0.00     0.223 C 
HETATM   13  N   UNL     1     -45.766  60.462 -53.939  1.00  0.00    -0.359 N 
HETATM   14  H   UNL     1     -46.698  60.054 -54.007  1.00  0.00     0.162 HD
HETATM   15  O   UNL     1     -43.535  59.995 -54.145  1.00  0.00    -0.273 OA
BRANCH  13  16
HETATM   16  C   UNL     1     -45.752  61.919 -54.113  1.00  0.00     0.150 C 
BRANCH  16  17
HETATM   17  C   UNL     1     -45.210  62.805 -52.970  1.00  0.00     0.254 C 
BRANCH  17  18
HETATM   18  N   UNL     1     -45.273  62.153 -51.598  1.00  0.00    -0.070 N 
HETATM   19  H   UNL     1     -45.737  61.234 -51.745  1.00  0.00     0.279 HD
HETATM   20  C   UNL     1     -43.918  61.894 -50.976  1.00  0.00     0.235 C 
HETATM   21  C   UNL     1     -44.082  61.167 -49.649  1.00  0.00     0.028 C 
HETATM   22  C   UNL     1     -44.979  61.939 -48.692  1.00  0.00     0.003 C 
HETATM   23  C   UNL     1     -46.324  62.239 -49.339  1.00  0.00     0.028 C 
HETATM   24  C   UNL     1     -46.160  62.960 -50.669  1.00  0.00     0.235 C 
ENDBRANCH  17  18
ENDBRANCH  16  17
ENDBRANCH  13  16
ENDBRANCH  11  12
ENDBRANCH   3  11
BRANCH   1  25
HETATM   25  C   UNL     1     -41.817  57.216 -52.650  1.00  0.00    -0.030 A 
HETATM   26  C   UNL     1     -41.893  57.766 -51.352  1.00  0.00     0.016 A 
HETATM   27  C   UNL     1     -40.975  58.735 -50.917  1.00  0.00    -0.061 A 
HETATM   28  C   UNL     1     -41.061  59.313 -49.532  1.00  0.00     0.048 C 
HETATM   29  C   UNL     1     -40.015  59.214 -51.810  1.00  0.00     0.007 A 
HETATM   30  C   UNL     1     -39.947  58.711 -53.107  1.00  0.00     0.001 A 
HETATM   31  C   UNL     1     -40.833  57.715 -53.522  1.00  0.00     0.009 A 
ENDBRANCH   1  25
BRANCH  10  32
HETATM   32  C   UNL     1     -42.296  54.125 -51.805  1.00  0.00     0.294 C 
HETATM   33  O   UNL     1     -43.350  53.602 -51.472  1.00  0.00    -0.259 OA
BRANCH  32  34
HETATM   34  O   UNL     1     -41.167  54.218 -51.085  1.00  0.00    -0.313 OA
BRANCH  34  35
HETATM   35  C   UNL     1     -40.902  53.262 -50.028  1.00  0.00     0.124 C 
HETATM   36  C   UNL     1     -40.233  51.999 -50.558  1.00  0.00     0.040 C 
HETATM   37  C   UNL     1     -40.148  53.894 -48.861  1.00  0.00     0.040 C 
ENDBRANCH  34  35
ENDBRANCH  32  34
ENDBRANCH  10  32
TORSDOF 9
ENDMDL
MODEL 4
REMARK VINA RESULT:      -6.8      3.658      8.577
REMARK  9 active torsions:
REMARK  status: ('A' for Active; 'I' for Inactive)
REMARK    1  A    between atoms: C_4  and  C_5 
REMARK    2  A    between atoms: C_7  and  C_8 
REMARK    3  A    between atoms: C_8  and  C_9 
REMARK       I    between atoms: C_9  and  N_10 
REMARK    4  A    between atoms: N_10  and  C_11 
REMARK    5  A    between atoms: C_11  and  C_12 
REMARK    6  A    between atoms: C_12  and  N_13 
REMARK    7  A    between atoms: C_27  and  C_28 
REMARK    8  A    between atoms: C_28  and  O_29 
REMARK    9  A    between atoms: O_29  and  C_30 
ROOT
HETATM    1  C   UNL     1     -42.704  57.965 -55.180  1.00  0.00     0.166 C 
HETATM    2  N   UNL     1     -43.663  58.022 -56.299  1.00  0.00    -0.319 N 
HETATM    3  C   UNL     1     -43.600  57.722 -57.553  1.00  0.00     0.011 C 
HETATM    4  C   UNL     1     -45.084  58.459 -55.883  1.00  0.00     0.170 C 
HETATM    5  S   UNL     1     -46.232  58.189 -57.151  1.00  0.00    -0.086 SA
HETATM    6  C   UNL     1     -44.892  57.853 -58.327  1.00  0.00     0.135 C 
HETATM    7  N   UNL     1     -45.390  59.002 -54.760  1.00  0.00    -0.229 NA
HETATM    8  C   UNL     1     -44.367  59.336 -53.896  1.00  0.00     0.048 C 
HETATM    9  C   UNL     1     -44.796  60.305 -52.816  1.00  0.00     0.071 C 
HETATM   10  C   UNL     1     -43.098  58.902 -54.067  1.00  0.00     0.069 C 
ENDROOT
BRANCH   3  11
HETATM   11  C   UNL     1     -42.317  57.329 -58.224  1.00  0.00     0.156 C 
BRANCH  11  12
HETATM   12  C   UNL     1     -42.302  57.688 -59.700  1.00  0.00     0.223 C 
HETATM   13  N   UNL     1     -42.068  59.009 -59.974  1.00  0.00    -0.359 N 
HETATM   14  H   UNL     1     -42.080  59.658 -59.189  1.00  0.00     0.162 HD
HETATM   15  O   UNL     1     -42.463  56.833 -60.567  1.00  0.00    -0.273 OA
BRANCH  13  16
HETATM   16  C   UNL     1     -42.188  59.668 -61.279  1.00  0.00     0.150 C 
BRANCH  16  17
HETATM   17  C   UNL     1     -42.207  61.212 -61.340  1.00  0.00     0.254 C 
BRANCH  17  18
HETATM   18  N   UNL     1     -40.852  61.858 -61.096  1.00  0.00    -0.070 N 
HETATM   19  H   UNL     1     -40.160  61.082 -61.134  1.00  0.00     0.279 HD
HETATM   20  C   UNL     1     -40.460  62.881 -62.141  1.00  0.00     0.235 C 
HETATM   21  C   UNL     1     -39.061  63.407 -61.858  1.00  0.00     0.028 C 
HETATM   22  C   UNL     1     -38.954  63.994 -60.458  1.00  0.00     0.003 C 
HETATM   23  C   UNL     1     -39.394  62.978 -59.413  1.00  0.00     0.028 C 
HETATM   24  C   UNL     1     -40.790  62.446 -59.699  1.00  0.00     0.235 C 
ENDBRANCH  17  18
ENDBRANCH  16  17
ENDBRANCH  13  16
ENDBRANCH  11  12
ENDBRANCH   3  11
BRANCH   1  25
HETATM   25  C   UNL     1     -42.515  56.528 -54.683  1.00  0.00    -0.030 A 
HETATM   26  C   UNL     1     -41.421  55.719 -55.057  1.00  0.00     0.016 A 
HETATM   27  C   UNL     1     -41.282  54.411 -54.569  1.00  0.00    -0.061 A 
HETATM   28  C   UNL     1     -40.112  53.557 -54.970  1.00  0.00     0.048 C 
HETATM   29  C   UNL     1     -42.283  53.877 -53.755  1.00  0.00     0.007 A 
HETATM   30  C   UNL     1     -43.389  54.647 -53.403  1.00  0.00     0.001 A 
HETATM   31  C   UNL     1     -43.501  55.963 -53.855  1.00  0.00     0.009 A 
ENDBRANCH   1  25
BRANCH  10  32
HETATM   32  C   UNL     1     -41.924  59.400 -53.304  1.00  0.00     0.294 C 
HETATM   33  O   UNL     1     -41.100  60.117 -53.853  1.00  0.00    -0.259 OA
BRANCH  32  34
HETATM   34  O   UNL     1     -41.909  58.961 -52.035  1.00  0.00    -0.313 OA
BRANCH  34  35
HETATM   35  C   UNL     1     -40.771  58.210 -51.543  1.00  0.00     0.124 C 
HETATM   36  C   UNL     1     -39.841  59.074 -50.700  1.00  0.00     0.040 C 
HETATM   37  C   UNL     1     -41.196  56.924 -50.837  1.00  0.00     0.040 C 
ENDBRANCH  34  35
ENDBRANCH  32  34
ENDBRANCH  10  32
TORSDOF 9
ENDMDL
MODEL 5
REMARK VINA RESULT:      -6.7      2.344      3.928
REMARK  9 active torsions:
REMARK  status: ('A' for Active; 'I' for Inactive)
REMARK    1  A    between atoms: C_4  and  C_5 
REMARK    2  A    between atoms: C_7  and  C_8 
REMARK    3  A    between atoms: C_8  and  C_9 
REMARK       I    between atoms: C_9  and  N_10 
REMARK    4  A    between atoms: N_10  and  C_11 
REMARK    5  A    between atoms: C_11  and  C_12 
REMARK    6  A    between atoms: C_12  and  N_13 
REMARK    7  A    between atoms: C_27  and  C_28 
REMARK    8  A    between atoms: C_28  and  O_29 
REMARK    9  A    between atoms: O_29  and  C_30 
ROOT
HETATM    1  C   UNL     1     -43.813  57.133 -56.972  1.00  0.00     0.166 C 
HETATM    2  N   UNL     1     -43.498  58.489 -56.484  1.00  0.00    -0.319 N 
HETATM    3  C   UNL     1     -43.955  59.229 -55.531  1.00  0.00     0.011 C 
HETATM    4  C   UNL     1     -42.309  59.154 -57.210  1.00  0.00     0.170 C 
HETATM    5  S   UNL     1     -41.776  60.581 -56.388  1.00  0.00    -0.086 SA
HETATM    6  C   UNL     1     -43.249  60.551 -55.328  1.00  0.00     0.135 C 
HETATM    7  N   UNL     1     -41.795  58.744 -58.313  1.00  0.00    -0.229 NA
HETATM    8  C   UNL     1     -42.413  57.703 -58.975  1.00  0.00     0.048 C 
HETATM    9  C   UNL     1     -41.974  57.572 -60.416  1.00  0.00     0.071 C 
HETATM   10  C   UNL     1     -43.377  56.946 -58.403  1.00  0.00     0.069 C 
ENDROOT
BRANCH   3  11
HETATM   11  C   UNL     1     -45.151  58.843 -54.712  1.00  0.00     0.156 C 
BRANCH  11  12
HETATM   12  C   UNL     1     -44.790  58.527 -53.272  1.00  0.00     0.223 C 
HETATM   13  N   UNL     1     -43.585  57.900 -53.098  1.00  0.00    -0.359 N 
HETATM   14  H   UNL     1     -43.110  57.561 -53.934  1.00  0.00     0.162 HD
HETATM   15  O   UNL     1     -45.529  58.844 -52.342  1.00  0.00    -0.273 OA
BRANCH  13  16
HETATM   16  C   UNL     1     -43.073  57.309 -51.857  1.00  0.00     0.150 C 
BRANCH  16  17
HETATM   17  C   UNL     1     -41.647  56.716 -51.842  1.00  0.00     0.254 C 
BRANCH  17  18
HETATM   18  N   UNL     1     -41.496  55.487 -50.959  1.00  0.00    -0.070 N 
HETATM   19  H   UNL     1     -42.442  55.059 -50.911  1.00  0.00     0.279 HD
HETATM   20  C   UNL     1     -40.542  54.448 -51.508  1.00  0.00     0.235 C 
HETATM   21  C   UNL     1     -40.523  53.226 -50.600  1.00  0.00     0.028 C 
HETATM   22  C   UNL     1     -40.159  53.594 -49.169  1.00  0.00     0.003 C 
HETATM   23  C   UNL     1     -41.091  54.674 -48.638  1.00  0.00     0.028 C 
HETATM   24  C   UNL     1     -41.116  55.893 -49.547  1.00  0.00     0.235 C 
ENDBRANCH  17  18
ENDBRANCH  16  17
ENDBRANCH  13  16
ENDBRANCH  11  12
ENDBRANCH   3  11
BRANCH   1  25
HETATM   25  C   UNL     1     -43.229  56.061 -56.047  1.00  0.00    -0.030 A 
HETATM   26  C   UNL     1     -41.864  55.699 -56.051  1.00  0.00     0.016 A 
HETATM   27  C   UNL     1     -41.369  54.717 -55.178  1.00  0.00    -0.061 A 
HETATM   28  C   UNL     1     -39.914  54.340 -55.186  1.00  0.00     0.048 C 
HETATM   29  C   UNL     1     -42.256  54.038 -54.341  1.00  0.00     0.007 A 
HETATM   30  C   UNL     1     -43.612  54.355 -54.348  1.00  0.00     0.001 A 
HETATM   31  C   UNL     1     -44.094  55.363 -55.186  1.00  0.00     0.009 A 
ENDBRANCH   1  25
BRANCH  10  32
HETATM   32  C   UNL     1     -44.224  55.964 -59.129  1.00  0.00     0.294 C 
HETATM   33  O   UNL     1     -44.077  54.767 -58.927  1.00  0.00    -0.259 OA
BRANCH  32  34
HETATM   34  O   UNL     1     -45.086  56.551 -59.975  1.00  0.00    -0.313 OA
BRANCH  34  35
HETATM   35  C   UNL     1     -46.507  56.527 -59.692  1.00  0.00     0.124 C 
HETATM   36  C   UNL     1     -46.925  57.674 -58.781  1.00  0.00     0.040 C 
HETATM   37  C   UNL     1     -47.342  56.440 -60.968  1.00  0.00     0.040 C 
ENDBRANCH  34  35
ENDBRANCH  32  34
ENDBRANCH  10  32
TORSDOF 9
ENDMDL
MODEL 6
REMARK VINA RESULT:      -6.6      2.782      4.590
REMARK  9 active torsions:
REMARK  status: ('A' for Active; 'I' for Inactive)
REMARK    1  A    between atoms: C_4  and  C_5 
REMARK    2  A    between atoms: C_7  and  C_8 
REMARK    3  A    between atoms: C_8  and  C_9 
REMARK       I    between atoms: C_9  and  N_10 
REMARK    4  A    between atoms: N_10  and  C_11 
REMARK    5  A    between atoms: C_11  and  C_12 
REMARK    6  A    between atoms: C_12  and  N_13 
REMARK    7  A    between atoms: C_27  and  C_28 
REMARK    8  A    between atoms: C_28  and  O_29 
REMARK    9  A    between atoms: O_29  and  C_30 
ROOT
HETATM    1  C   UNL     1     -44.120  59.290 -51.911  1.00  0.00     0.166 C 
HETATM    2  N   UNL     1     -42.939  58.536 -51.452  1.00  0.00    -0.319 N 
HETATM    3  C   UNL     1     -42.612  57.288 -51.457  1.00  0.00     0.011 C 
HETATM    4  C   UNL     1     -41.797  59.427 -50.917  1.00  0.00     0.170 C 
HETATM    5  S   UNL     1     -40.331  58.530 -50.709  1.00  0.00    -0.086 SA
HETATM    6  C   UNL     1     -41.221  56.969 -50.957  1.00  0.00     0.135 C 
HETATM    7  N   UNL     1     -41.912  60.669 -50.612  1.00  0.00    -0.229 NA
HETATM    8  C   UNL     1     -43.169  61.237 -50.646  1.00  0.00     0.048 C 
HETATM    9  C   UNL     1     -43.246  62.553 -49.903  1.00  0.00     0.071 C 
HETATM   10  C   UNL     1     -44.232  60.621 -51.212  1.00  0.00     0.069 C 
ENDROOT
BRANCH   3  11
HETATM   11  C   UNL     1     -43.567  56.206 -51.869  1.00  0.00     0.156 C 
BRANCH  11  12
HETATM   12  C   UNL     1     -42.853  54.955 -52.349  1.00  0.00     0.223 C 
HETATM   13  N   UNL     1     -42.277  55.053 -53.588  1.00  0.00    -0.359 N 
HETATM   14  H   UNL     1     -42.499  55.879 -54.142  1.00  0.00     0.162 HD
HETATM   15  O   UNL     1     -42.787  53.947 -51.649  1.00  0.00    -0.273 OA
BRANCH  13  16
HETATM   16  C   UNL     1     -41.697  53.960 -54.376  1.00  0.00     0.150 C 
BRANCH  16  17
HETATM   17  C   UNL     1     -40.305  53.414 -53.989  1.00  0.00     0.254 C 
BRANCH  17  18
HETATM   18  N   UNL     1     -40.348  52.162 -53.126  1.00  0.00    -0.070 N 
HETATM   19  H   UNL     1     -41.354  51.917 -53.038  1.00  0.00     0.279 HD
HETATM   20  C   UNL     1     -39.630  50.974 -53.728  1.00  0.00     0.235 C 
HETATM   21  C   UNL     1     -39.800  49.754 -52.834  1.00  0.00     0.028 C 
HETATM   22  C   UNL     1     -39.311  50.021 -51.419  1.00  0.00     0.003 C 
HETATM   23  C   UNL     1     -40.000  51.246 -50.834  1.00  0.00     0.028 C 
HETATM   24  C   UNL     1     -39.837  52.465 -51.730  1.00  0.00     0.235 C 
ENDBRANCH  17  18
ENDBRANCH  16  17
ENDBRANCH  13  16
ENDBRANCH  11  12
ENDBRANCH   3  11
BRANCH   1  25
HETATM   25  C   UNL     1     -44.126  59.439 -53.436  1.00  0.00    -0.030 A 
HETATM   26  C   UNL     1     -45.017  58.738 -54.276  1.00  0.00     0.016 A 
HETATM   27  C   UNL     1     -44.995  58.913 -55.669  1.00  0.00    -0.061 A 
HETATM   28  C   UNL     1     -45.949  58.165 -56.557  1.00  0.00     0.048 C 
HETATM   29  C   UNL     1     -44.025  59.741 -56.237  1.00  0.00     0.007 A 
HETATM   30  C   UNL     1     -43.112  60.413 -55.427  1.00  0.00     0.001 A 
HETATM   31  C   UNL     1     -43.167  60.272 -54.039  1.00  0.00     0.009 A 
ENDBRANCH   1  25
BRANCH  10  32
HETATM   32  C   UNL     1     -45.640  61.079 -51.088  1.00  0.00     0.294 C 
HETATM   33  O   UNL     1     -46.365  60.592 -50.232  1.00  0.00    -0.259 OA
BRANCH  32  34
HETATM   34  O   UNL     1     -45.961  62.015 -51.995  1.00  0.00    -0.313 OA
BRANCH  34  35
HETATM   35  C   UNL     1     -46.999  61.751 -52.971  1.00  0.00     0.124 C 
HETATM   36  C   UNL     1     -48.322  62.399 -52.584  1.00  0.00     0.040 C 
HETATM   37  C   UNL     1     -46.553  62.101 -54.389  1.00  0.00     0.040 C 
ENDBRANCH  34  35
ENDBRANCH  32  34
ENDBRANCH  10  32
TORSDOF 9
ENDMDL
MODEL 7
REMARK VINA RESULT:      -6.6     16.333     19.616
REMARK  9 active torsions:
REMARK  status: ('A' for Active; 'I' for Inactive)
REMARK    1  A    between atoms: C_4  and  C_5 
REMARK    2  A    between atoms: C_7  and  C_8 
REMARK    3  A    between atoms: C_8  and  C_9 
REMARK       I    between atoms: C_9  and  N_10 
REMARK    4  A    between atoms: N_10  and  C_11 
REMARK    5  A    between atoms: C_11  and  C_12 
REMARK    6  A    between atoms: C_12  and  N_13 
REMARK    7  A    between atoms: C_27  and  C_28 
REMARK    8  A    between atoms: C_28  and  O_29 
REMARK    9  A    between atoms: O_29  and  C_30 
ROOT
HETATM    1  C   UNL     1     -33.965  38.906 -55.192  1.00  0.00     0.166 C 
HETATM    2  N   UNL     1     -32.767  38.584 -55.990  1.00  0.00    -0.319 N 
HETATM    3  C   UNL     1     -32.557  37.878 -57.050  1.00  0.00     0.011 C 
HETATM    4  C   UNL     1     -31.487  39.305 -55.516  1.00  0.00     0.170 C 
HETATM    5  S   UNL     1     -30.206  39.157 -56.671  1.00  0.00    -0.086 SA
HETATM    6  C   UNL     1     -31.145  37.907 -57.591  1.00  0.00     0.135 C 
HETATM    7  N   UNL     1     -31.353  39.904 -54.388  1.00  0.00    -0.229 NA
HETATM    8  C   UNL     1     -32.378  39.806 -53.470  1.00  0.00     0.048 C 
HETATM    9  C   UNL     1     -31.959  40.197 -52.069  1.00  0.00     0.071 C 
HETATM   10  C   UNL     1     -33.599  39.320 -53.789  1.00  0.00     0.069 C 
ENDROOT
BRANCH   3  11
HETATM   11  C   UNL     1     -33.622  37.027 -57.676  1.00  0.00     0.156 C 
BRANCH  11  12
HETATM   12  C   UNL     1     -33.955  37.463 -59.092  1.00  0.00     0.223 C 
HETATM   13  N   UNL     1     -35.131  38.151 -59.227  1.00  0.00    -0.359 N 
HETATM   14  H   UNL     1     -35.751  38.179 -58.419  1.00  0.00     0.162 HD
HETATM   15  O   UNL     1     -33.196  37.229 -60.029  1.00  0.00    -0.273 OA
BRANCH  13  16
HETATM   16  C   UNL     1     -35.792  38.521 -60.483  1.00  0.00     0.150 C 
BRANCH  16  17
HETATM   17  C   UNL     1     -36.926  39.571 -60.452  1.00  0.00     0.254 C 
BRANCH  17  18
HETATM   18  N   UNL     1     -38.244  39.077 -61.027  1.00  0.00    -0.070 N 
HETATM   19  H   UNL     1     -38.795  39.933 -61.239  1.00  0.00     0.279 HD
HETATM   20  C   UNL     1     -38.099  38.288 -62.310  1.00  0.00     0.235 C 
HETATM   21  C   UNL     1     -39.472  37.911 -62.849  1.00  0.00     0.028 C 
HETATM   22  C   UNL     1     -40.284  37.134 -61.824  1.00  0.00     0.003 C 
HETATM   23  C   UNL     1     -40.387  37.911 -60.518  1.00  0.00     0.028 C 
HETATM   24  C   UNL     1     -39.016  38.293 -59.982  1.00  0.00     0.235 C 
ENDBRANCH  17  18
ENDBRANCH  16  17
ENDBRANCH  13  16
ENDBRANCH  11  12
ENDBRANCH   3  11
BRANCH   1  25
HETATM   25  C   UNL     1     -34.834  39.955 -55.893  1.00  0.00    -0.030 A 
HETATM   26  C   UNL     1     -36.206  39.763 -56.165  1.00  0.00     0.016 A 
HETATM   27  C   UNL     1     -36.968  40.756 -56.801  1.00  0.00    -0.061 A 
HETATM   28  C   UNL     1     -38.429  40.546 -57.084  1.00  0.00     0.048 C 
HETATM   29  C   UNL     1     -36.339  41.925 -57.236  1.00  0.00     0.007 A 
HETATM   30  C   UNL     1     -34.978  42.117 -57.010  1.00  0.00     0.001 A 
HETATM   31  C   UNL     1     -34.233  41.146 -56.337  1.00  0.00     0.009 A 
ENDBRANCH   1  25
BRANCH  10  32
HETATM   32  C   UNL     1     -34.662  38.989 -52.806  1.00  0.00     0.294 C 
HETATM   33  O   UNL     1     -34.625  37.925 -52.204  1.00  0.00    -0.259 OA
BRANCH  32  34
HETATM   34  O   UNL     1     -35.592  39.952 -52.706  1.00  0.00    -0.313 OA
BRANCH  34  35
HETATM   35  C   UNL     1     -35.189  41.340 -52.603  1.00  0.00     0.124 C 
HETATM   36  C   UNL     1     -36.151  42.268 -53.334  1.00  0.00     0.040 C 
HETATM   37  C   UNL     1     -34.938  41.757 -51.156  1.00  0.00     0.040 C 
ENDBRANCH  34  35
ENDBRANCH  32  34
ENDBRANCH  10  32
TORSDOF 9
ENDMDL
MODEL 8
REMARK VINA RESULT:      -6.5      2.642      8.005
REMARK  9 active torsions:
REMARK  status: ('A' for Active; 'I' for Inactive)
REMARK    1  A    between atoms: C_4  and  C_5 
REMARK    2  A    between atoms: C_7  and  C_8 
REMARK    3  A    between atoms: C_8  and  C_9 
REMARK       I    between atoms: C_9  and  N_10 
REMARK    4  A    between atoms: N_10  and  C_11 
REMARK    5  A    between atoms: C_11  and  C_12 
REMARK    6  A    between atoms: C_12  and  N_13 
REMARK    7  A    between atoms: C_27  and  C_28 
REMARK    8  A    between atoms: C_28  and  O_29 
REMARK    9  A    between atoms: O_29  and  C_30 
ROOT
HETATM    1  C   UNL     1     -43.118  56.121 -53.393  1.00  0.00     0.166 C 
HETATM    2  N   UNL     1     -43.439  56.361 -54.813  1.00  0.00    -0.319 N 
HETATM    3  C   UNL     1     -44.261  57.142 -55.429  1.00  0.00     0.011 C 
HETATM    4  C   UNL     1     -42.551  55.569 -55.797  1.00  0.00     0.170 C 
HETATM    5  S   UNL     1     -42.741  56.132 -57.424  1.00  0.00    -0.086 SA
HETATM    6  C   UNL     1     -44.182  57.123 -56.939  1.00  0.00     0.135 C 
HETATM    7  N   UNL     1     -41.796  54.581 -55.478  1.00  0.00    -0.229 NA
HETATM    8  C   UNL     1     -41.858  54.101 -54.186  1.00  0.00     0.048 C 
HETATM    9  C   UNL     1     -41.246  52.726 -54.034  1.00  0.00     0.071 C 
HETATM   10  C   UNL     1     -42.488  54.767 -53.191  1.00  0.00     0.069 C 
ENDROOT
BRANCH   3  11
HETATM   11  C   UNL     1     -45.279  57.973 -54.706  1.00  0.00     0.156 C 
BRANCH  11  12
HETATM   12  C   UNL     1     -44.839  59.418 -54.543  1.00  0.00     0.223 C 
HETATM   13  N   UNL     1     -43.634  59.726 -55.116  1.00  0.00    -0.359 N 
HETATM   14  H   UNL     1     -43.068  58.951 -55.459  1.00  0.00     0.162 HD
HETATM   15  O   UNL     1     -45.542  60.239 -53.960  1.00  0.00    -0.273 OA
BRANCH  13  16
HETATM   16  C   UNL     1     -42.879  60.974 -54.954  1.00  0.00     0.150 C 
BRANCH  16  17
HETATM   17  C   UNL     1     -42.954  62.044 -56.066  1.00  0.00     0.254 C 
BRANCH  17  18
HETATM   18  N   UNL     1     -42.081  61.744 -57.274  1.00  0.00    -0.070 N 
HETATM   19  H   UNL     1     -41.280  61.190 -56.911  1.00  0.00     0.279 HD
HETATM   20  C   UNL     1     -42.768  60.922 -58.343  1.00  0.00     0.235 C 
HETATM   21  C   UNL     1     -41.792  60.606 -59.467  1.00  0.00     0.028 C 
HETATM   22  C   UNL     1     -41.189  61.870 -60.061  1.00  0.00     0.003 C 
HETATM   23  C   UNL     1     -40.540  62.718 -58.975  1.00  0.00     0.028 C 
HETATM   24  C   UNL     1     -41.513  63.029 -57.848  1.00  0.00     0.235 C 
ENDBRANCH  17  18
ENDBRANCH  16  17
ENDBRANCH  13  16
ENDBRANCH  11  12
ENDBRANCH   3  11
BRANCH   1  25
HETATM   25  C   UNL     1     -42.255  57.250 -52.822  1.00  0.00    -0.030 A 
HETATM   26  C   UNL     1     -42.724  58.169 -51.859  1.00  0.00     0.016 A 
HETATM   27  C   UNL     1     -41.894  59.182 -51.354  1.00  0.00    -0.061 A 
HETATM   28  C   UNL     1     -42.400  60.155 -50.326  1.00  0.00     0.048 C 
HETATM   29  C   UNL     1     -40.603  59.326 -51.867  1.00  0.00     0.007 A 
HETATM   30  C   UNL     1     -40.134  58.451 -52.844  1.00  0.00     0.001 A 
HETATM   31  C   UNL     1     -40.947  57.417 -53.312  1.00  0.00     0.009 A 
ENDBRANCH   1  25
BRANCH  10  32
HETATM   32  C   UNL     1     -42.775  54.205 -51.846  1.00  0.00     0.294 C 
HETATM   33  O   UNL     1     -43.926  54.160 -51.438  1.00  0.00    -0.259 OA
BRANCH  32  34
HETATM   34  O   UNL     1     -41.665  53.805 -51.205  1.00  0.00    -0.313 OA
BRANCH  34  35
HETATM   35  C   UNL     1     -40.763  54.788 -50.639  1.00  0.00     0.124 C 
HETATM   36  C   UNL     1     -41.444  55.639 -49.575  1.00  0.00     0.040 C 
HETATM   37  C   UNL     1     -39.460  54.156 -50.155  1.00  0.00     0.040 C 
ENDBRANCH  34  35
ENDBRANCH  32  34
ENDBRANCH  10  32
TORSDOF 9
ENDMDL
MODEL 9
REMARK VINA RESULT:      -6.5      2.687      4.751
REMARK  9 active torsions:
REMARK  status: ('A' for Active; 'I' for Inactive)
REMARK    1  A    between atoms: C_4  and  C_5 
REMARK    2  A    between atoms: C_7  and  C_8 
REMARK    3  A    between atoms: C_8  and  C_9 
REMARK       I    between atoms: C_9  and  N_10 
REMARK    4  A    between atoms: N_10  and  C_11 
REMARK    5  A    between atoms: C_11  and  C_12 
REMARK    6  A    between atoms: C_12  and  N_13 
REMARK    7  A    between atoms: C_27  and  C_28 
REMARK    8  A    between atoms: C_28  and  O_29 
REMARK    9  A    between atoms: O_29  and  C_30 
ROOT
HETATM    1  C   UNL     1     -44.377  58.640 -57.232  1.00  0.00     0.166 C 
HETATM    2  N   UNL     1     -43.769  59.448 -56.158  1.00  0.00    -0.319 N 
HETATM    3  C   UNL     1     -42.861  59.224 -55.269  1.00  0.00     0.011 C 
HETATM    4  C   UNL     1     -44.255  60.913 -56.126  1.00  0.00     0.170 C 
HETATM    5  S   UNL     1     -43.278  61.888 -55.081  1.00  0.00    -0.086 SA
HETATM    6  C   UNL     1     -42.473  60.406 -54.411  1.00  0.00     0.135 C 
HETATM    7  N   UNL     1     -45.283  61.363 -56.751  1.00  0.00    -0.229 NA
HETATM    8  C   UNL     1     -46.093  60.462 -57.410  1.00  0.00     0.048 C 
HETATM    9  C   UNL     1     -47.451  61.031 -57.760  1.00  0.00     0.071 C 
HETATM   10  C   UNL     1     -45.728  59.178 -57.630  1.00  0.00     0.069 C 
ENDROOT
BRANCH   3  11
HETATM   11  C   UNL     1     -42.269  57.863 -55.047  1.00  0.00     0.156 C 
BRANCH  11  12
HETATM   12  C   UNL     1     -42.211  57.488 -53.577  1.00  0.00     0.223 C 
HETATM   13  N   UNL     1     -43.428  57.360 -52.962  1.00  0.00    -0.359 N 
HETATM   14  H   UNL     1     -44.248  57.670 -53.480  1.00  0.00     0.162 HD
HETATM   15  O   UNL     1     -41.140  57.293 -53.008  1.00  0.00    -0.273 OA
BRANCH  13  16
HETATM   16  C   UNL     1     -43.671  57.199 -51.524  1.00  0.00     0.150 C 
BRANCH  16  17
HETATM   17  C   UNL     1     -43.521  55.797 -50.891  1.00  0.00     0.254 C 
BRANCH  17  18
HETATM   18  N   UNL     1     -42.103  55.250 -50.927  1.00  0.00    -0.070 N 
HETATM   19  H   UNL     1     -41.526  55.996 -51.364  1.00  0.00     0.279 HD
HETATM   20  C   UNL     1     -41.523  54.953 -49.561  1.00  0.00     0.235 C 
HETATM   21  C   UNL     1     -40.079  54.492 -49.696  1.00  0.00     0.028 C 
HETATM   22  C   UNL     1     -39.958  53.281 -50.610  1.00  0.00     0.003 C 
HETATM   23  C   UNL     1     -40.587  53.568 -51.967  1.00  0.00     0.028 C 
HETATM   24  C   UNL     1     -42.028  54.035 -51.833  1.00  0.00     0.235 C 
ENDBRANCH  17  18
ENDBRANCH  16  17
ENDBRANCH  13  16
ENDBRANCH  11  12
ENDBRANCH   3  11
BRANCH   1  25
HETATM   25  C   UNL     1     -43.433  58.509 -58.431  1.00  0.00    -0.030 A 
HETATM   26  C   UNL     1     -43.147  59.578 -59.307  1.00  0.00     0.016 A 
HETATM   27  C   UNL     1     -42.266  59.416 -60.389  1.00  0.00    -0.061 A 
HETATM   28  C   UNL     1     -41.963  60.560 -61.316  1.00  0.00     0.048 C 
HETATM   29  C   UNL     1     -41.720  58.156 -60.641  1.00  0.00     0.007 A 
HETATM   30  C   UNL     1     -42.019  57.080 -59.809  1.00  0.00     0.001 A 
HETATM   31  C   UNL     1     -42.860  57.255 -58.709  1.00  0.00     0.009 A 
ENDBRANCH   1  25
BRANCH  10  32
HETATM   32  C   UNL     1     -46.635  58.115 -58.134  1.00  0.00     0.294 C 
HETATM   33  O   UNL     1     -47.425  57.577 -57.371  1.00  0.00    -0.259 OA
BRANCH  32  34
HETATM   34  O   UNL     1     -46.452  57.853 -59.438  1.00  0.00    -0.313 OA
BRANCH  34  35
HETATM   35  C   UNL     1     -46.845  56.568 -59.980  1.00  0.00     0.124 C 
HETATM   36  C   UNL     1     -47.699  56.717 -61.233  1.00  0.00     0.040 C 
HETATM   37  C   UNL     1     -45.648  55.641 -60.179  1.00  0.00     0.040 C 
ENDBRANCH  34  35
ENDBRANCH  32  34
ENDBRANCH  10  32
TORSDOF 9
ENDMDL
MODEL 10
REMARK VINA RESULT:      -6.5      2.254      3.756
REMARK  9 active torsions:
REMARK  status: ('A' for Active; 'I' for Inactive)
REMARK    1  A    between atoms: C_4  and  C_5 
REMARK    2  A    between atoms: C_7  and  C_8 
REMARK    3  A    between atoms: C_8  and  C_9 
REMARK       I    between atoms: C_9  and  N_10 
REMARK    4  A    between atoms: N_10  and  C_11 
REMARK    5  A    between atoms: C_11  and  C_12 
REMARK    6  A    between atoms: C_12  and  N_13 
REMARK    7  A    between atoms: C_27  and  C_28 
REMARK    8  A    between atoms: C_28  and  O_29 
REMARK    9  A    between atoms: O_29  and  C_30 
ROOT
HETATM    1  C   UNL     1     -44.673  59.251 -56.687  1.00  0.00     0.166 C 
HETATM    2  N   UNL     1     -43.993  59.193 -55.379  1.00  0.00    -0.319 N 
HETATM    3  C   UNL     1     -43.911  58.303 -54.448  1.00  0.00     0.011 C 
HETATM    4  C   UNL     1     -43.115  60.426 -55.075  1.00  0.00     0.170 C 
HETATM    5  S   UNL     1     -42.092  60.160 -53.704  1.00  0.00    -0.086 SA
HETATM    6  C   UNL     1     -42.998  58.643 -53.292  1.00  0.00     0.135 C 
HETATM    7  N   UNL     1     -43.158  61.538 -55.716  1.00  0.00    -0.229 NA
HETATM    8  C   UNL     1     -44.136  61.702 -56.676  1.00  0.00     0.048 C 
HETATM    9  C   UNL     1     -44.341  63.148 -57.071  1.00  0.00     0.071 C 
HETATM   10  C   UNL     1     -44.886  60.675 -57.135  1.00  0.00     0.069 C 
ENDROOT
BRANCH   3  11
HETATM   11  C   UNL     1     -44.716  57.037 -54.469  1.00  0.00     0.156 C 
BRANCH  11  12
HETATM   12  C   UNL     1     -43.863  55.804 -54.234  1.00  0.00     0.223 C 
HETATM   13  N   UNL     1     -43.920  55.290 -52.966  1.00  0.00    -0.359 N 
HETATM   14  H   UNL     1     -44.392  55.849 -52.257  1.00  0.00     0.162 HD
HETATM   15  O   UNL     1     -43.197  55.304 -55.138  1.00  0.00    -0.273 OA
BRANCH  13  16
HETATM   16  C   UNL     1     -43.067  54.236 -52.406  1.00  0.00     0.150 C 
BRANCH  16  17
HETATM   17  C   UNL     1     -41.583  54.551 -52.111  1.00  0.00     0.254 C 
BRANCH  17  18
HETATM   18  N   UNL     1     -40.616  53.478 -52.584  1.00  0.00    -0.070 N 
HETATM   19  H   UNL     1     -39.752  53.984 -52.866  1.00  0.00     0.279 HD
HETATM   20  C   UNL     1     -40.239  52.473 -51.517  1.00  0.00     0.235 C 
HETATM   21  C   UNL     1     -39.208  51.495 -52.062  1.00  0.00     0.028 C 
HETATM   22  C   UNL     1     -39.707  50.792 -53.315  1.00  0.00     0.003 C 
HETATM   23  C   UNL     1     -40.130  51.807 -54.368  1.00  0.00     0.028 C 
HETATM   24  C   UNL     1     -41.156  52.789 -53.824  1.00  0.00     0.235 C 
ENDBRANCH  17  18
ENDBRANCH  16  17
ENDBRANCH  13  16
ENDBRANCH  11  12
ENDBRANCH   3  11
BRANCH   1  25
HETATM   25  C   UNL     1     -43.928  58.422 -57.738  1.00  0.00    -0.030 A 
HETATM   26  C   UNL     1     -44.462  57.249 -58.315  1.00  0.00     0.016 A 
HETATM   27  C   UNL     1     -43.748  56.525 -59.284  1.00  0.00    -0.061 A 
HETATM   28  C   UNL     1     -44.324  55.280 -59.896  1.00  0.00     0.048 C 
HETATM   29  C   UNL     1     -42.459  56.935 -59.629  1.00  0.00     0.007 A 
HETATM   30  C   UNL     1     -41.901  58.069 -59.043  1.00  0.00     0.001 A 
HETATM   31  C   UNL     1     -42.630  58.811 -58.113  1.00  0.00     0.009 A 
ENDBRANCH   1  25
BRANCH  10  32
HETATM   32  C   UNL     1     -46.088  60.824 -57.996  1.00  0.00     0.294 C 
HETATM   33  O   UNL     1     -47.188  60.513 -57.564  1.00  0.00    -0.259 OA
BRANCH  32  34
HETATM   34  O   UNL     1     -45.793  61.296 -59.218  1.00  0.00    -0.313 OA
BRANCH  34  35
HETATM   35  C   UNL     1     -45.108  60.450 -60.175  1.00  0.00     0.124 C 
HETATM   36  C   UNL     1     -46.085  59.700 -61.072  1.00  0.00     0.040 C 
HETATM   37  C   UNL     1     -44.044  61.216 -60.957  1.00  0.00     0.040 C 
ENDBRANCH  34  35
ENDBRANCH  32  34
ENDBRANCH  10  32
TORSDOF 9
ENDMDL
