MODEL 1
REMARK VINA RESULT:      -7.8      0.000      0.000
REMARK  3 active torsions:
REMARK  status: ('A' for Active; 'I' for Inactive)
REMARK    1  A    between atoms: C_3  and  N_4 
REMARK       I    between atoms: N_4  and  C_5 
REMARK       I    between atoms: C_5  and  N_6 
REMARK    2  A    between atoms: N_6  and  C_7 
REMARK    3  A    between atoms: C_7  and  C_8 
ROOT
HETATM    1  C   UNL     1     -40.868  53.976 -51.934  1.00  0.00    -0.036 A 
HETATM    2  C   UNL     1     -41.272  53.807 -53.266  1.00  0.00     0.011 A 
HETATM    3  C   UNL     1     -40.904  52.665 -53.986  1.00  0.00     0.023 A 
HETATM    4  C   UNL     1     -40.121  51.674 -53.388  1.00  0.00     0.044 A 
HETATM    5  C   UNL     1     -39.751  50.502 -54.124  1.00  0.00     0.099 C 
HETATM    6  N   UNL     1     -39.455  49.550 -54.719  1.00  0.00    -0.191 NA
HETATM    7  C   UNL     1     -39.700  51.834 -52.067  1.00  0.00     0.023 A 
HETATM    8  C   UNL     1     -40.069  52.975 -51.349  1.00  0.00     0.011 A 
ENDROOT
BRANCH   1   9
HETATM    9  C   UNL     1     -41.245  55.182 -51.089  1.00  0.00     0.115 C 
HETATM   10  C   UNL     1     -40.849  55.113 -49.611  1.00  0.00     0.037 C 
BRANCH   9  11
HETATM   11  N   UNL     1     -42.682  55.416 -51.194  1.00  0.00    -0.335 N 
HETATM   12  C   UNL     1     -43.322  56.618 -51.084  1.00  0.00     0.321 C 
HETATM   13  N   UNL     1     -42.620  57.688 -51.566  1.00  0.00    -0.307 N 
HETATM   14  O   UNL     1     -44.451  56.642 -50.610  1.00  0.00    -0.247 OA
HETATM   15  H   UNL     1     -41.924  57.456 -52.254  1.00  0.00     0.170 HD
HETATM   16  H   UNL     1     -43.271  54.663 -50.858  1.00  0.00     0.165 HD
BRANCH  13  17
HETATM   17  C   UNL     1     -42.963  59.053 -51.445  1.00  0.00     0.059 A 
HETATM   18  C   UNL     1     -42.157  59.902 -50.664  1.00  0.00    -0.032 A 
HETATM   19  C   UNL     1     -40.901  59.430 -49.985  1.00  0.00     0.050 C 
HETATM   20  C   UNL     1     -42.522  61.250 -50.537  1.00  0.00     0.028 A 
HETATM   21  C   UNL     1     -43.670  61.700 -51.169  1.00  0.00     0.117 A 
HETATM   22  N   UNL     1     -44.469  60.912 -51.911  1.00  0.00    -0.271 NA
HETATM   23  C   UNL     1     -44.098  59.612 -52.036  1.00  0.00     0.146 A 
ENDBRANCH  13  17
ENDBRANCH   9  11
ENDBRANCH   1   9
TORSDOF 3
ENDMDL
MODEL 2
REMARK VINA RESULT:      -7.6      4.812      5.704
REMARK  3 active torsions:
REMARK  status: ('A' for Active; 'I' for Inactive)
REMARK    1  A    between atoms: C_3  and  N_4 
REMARK       I    between atoms: N_4  and  C_5 
REMARK       I    between atoms: C_5  and  N_6 
REMARK    2  A    between atoms: N_6  and  C_7 
REMARK    3  A    between atoms: C_7  and  C_8 
ROOT
HETATM    1  C   UNL     1     -40.959  54.865 -53.950  1.00  0.00    -0.036 A 
HETATM    2  C   UNL     1     -40.951  54.214 -52.709  1.00  0.00     0.011 A 
HETATM    3  C   UNL     1     -40.588  52.866 -52.609  1.00  0.00     0.023 A 
HETATM    4  C   UNL     1     -40.233  52.144 -53.752  1.00  0.00     0.044 A 
HETATM    5  C   UNL     1     -39.855  50.765 -53.648  1.00  0.00     0.099 C 
HETATM    6  N   UNL     1     -39.545  49.650 -53.563  1.00  0.00    -0.191 NA
HETATM    7  C   UNL     1     -40.249  52.774 -54.997  1.00  0.00     0.023 A 
HETATM    8  C   UNL     1     -40.611  54.120 -55.094  1.00  0.00     0.011 A 
ENDROOT
BRANCH   1   9
HETATM    9  C   UNL     1     -41.325  56.329 -54.129  1.00  0.00     0.115 C 
HETATM   10  C   UNL     1     -41.203  57.206 -52.879  1.00  0.00     0.037 C 
BRANCH   9  11
HETATM   11  N   UNL     1     -42.683  56.426 -54.657  1.00  0.00    -0.335 N 
HETATM   12  C   UNL     1     -43.073  57.098 -55.781  1.00  0.00     0.321 C 
HETATM   13  N   UNL     1     -42.157  57.100 -56.796  1.00  0.00    -0.307 N 
HETATM   14  O   UNL     1     -44.189  57.602 -55.807  1.00  0.00    -0.247 OA
HETATM   15  H   UNL     1     -41.499  56.340 -56.767  1.00  0.00     0.170 HD
HETATM   16  H   UNL     1     -43.421  56.428 -53.962  1.00  0.00     0.165 HD
BRANCH  13  17
HETATM   17  C   UNL     1     -42.224  57.837 -57.999  1.00  0.00     0.059 A 
HETATM   18  C   UNL     1     -42.586  57.183 -59.192  1.00  0.00    -0.032 A 
HETATM   19  C   UNL     1     -42.960  55.727 -59.237  1.00  0.00     0.050 C 
HETATM   20  C   UNL     1     -42.628  57.925 -60.381  1.00  0.00     0.028 A 
HETATM   21  C   UNL     1     -42.299  59.269 -60.349  1.00  0.00     0.117 A 
HETATM   22  N   UNL     1     -41.936  59.921 -59.230  1.00  0.00    -0.271 NA
HETATM   23  C   UNL     1     -41.910  59.195 -58.083  1.00  0.00     0.146 A 
ENDBRANCH  13  17
ENDBRANCH   9  11
ENDBRANCH   1   9
TORSDOF 3
ENDMDL
MODEL 3
REMARK VINA RESULT:      -7.6      1.209      2.114
REMARK  3 active torsions:
REMARK  status: ('A' for Active; 'I' for Inactive)
REMARK    1  A    between atoms: C_3  and  N_4 
REMARK       I    between atoms: N_4  and  C_5 
REMARK       I    between atoms: C_5  and  N_6 
REMARK    2  A    between atoms: N_6  and  C_7 
REMARK    3  A    between atoms: C_7  and  C_8 
ROOT
HETATM    1  C   UNL     1     -40.921  53.962 -52.009  1.00  0.00    -0.036 A 
HETATM    2  C   UNL     1     -41.315  53.769 -53.341  1.00  0.00     0.011 A 
HETATM    3  C   UNL     1     -40.935  52.619 -54.041  1.00  0.00     0.023 A 
HETATM    4  C   UNL     1     -40.150  51.642 -53.423  1.00  0.00     0.044 A 
HETATM    5  C   UNL     1     -39.767  50.462 -54.139  1.00  0.00     0.099 C 
HETATM    6  N   UNL     1     -39.462  49.503 -54.717  1.00  0.00    -0.191 NA
HETATM    7  C   UNL     1     -39.738  51.825 -52.102  1.00  0.00     0.023 A 
HETATM    8  C   UNL     1     -40.118  52.975 -51.404  1.00  0.00     0.011 A 
ENDROOT
BRANCH   1   9
HETATM    9  C   UNL     1     -41.310  55.177 -51.185  1.00  0.00     0.115 C 
HETATM   10  C   UNL     1     -40.620  55.312 -49.824  1.00  0.00     0.037 C 
BRANCH   9  11
HETATM   11  N   UNL     1     -42.758  55.190 -50.997  1.00  0.00    -0.335 N 
HETATM   12  C   UNL     1     -43.597  56.248 -51.207  1.00  0.00     0.321 C 
HETATM   13  N   UNL     1     -43.234  57.073 -52.235  1.00  0.00    -0.307 N 
HETATM   14  O   UNL     1     -44.595  56.355 -50.506  1.00  0.00    -0.247 OA
HETATM   15  H   UNL     1     -42.650  56.643 -52.931  1.00  0.00     0.170 HD
HETATM   16  H   UNL     1     -43.105  54.598 -50.252  1.00  0.00     0.165 HD
BRANCH  13  17
HETATM   17  C   UNL     1     -43.820  58.313 -52.576  1.00  0.00     0.059 A 
HETATM   18  C   UNL     1     -44.618  58.408 -53.731  1.00  0.00    -0.032 A 
HETATM   19  C   UNL     1     -44.925  57.223 -54.604  1.00  0.00     0.050 C 
HETATM   20  C   UNL     1     -45.175  59.651 -54.066  1.00  0.00     0.028 A 
HETATM   21  C   UNL     1     -44.910  60.746 -53.261  1.00  0.00     0.117 A 
HETATM   22  N   UNL     1     -44.141  60.693 -52.159  1.00  0.00    -0.271 NA
HETATM   23  C   UNL     1     -43.617  59.482 -51.839  1.00  0.00     0.146 A 
ENDBRANCH  13  17
ENDBRANCH   9  11
ENDBRANCH   1   9
TORSDOF 3
ENDMDL
MODEL 4
REMARK VINA RESULT:      -7.6      3.081      3.852
REMARK  3 active torsions:
REMARK  status: ('A' for Active; 'I' for Inactive)
REMARK    1  A    between atoms: C_3  and  N_4 
REMARK       I    between atoms: N_4  and  C_5 
REMARK       I    between atoms: C_5  and  N_6 
REMARK    2  A    between atoms: N_6  and  C_7 
REMARK    3  A    between atoms: C_7  and  C_8 
ROOT
HETATM    1  C   UNL     1     -40.941  54.236 -52.437  1.00  0.00    -0.036 A 
HETATM    2  C   UNL     1     -40.218  53.334 -51.644  1.00  0.00     0.011 A 
HETATM    3  C   UNL     1     -39.824  52.090 -52.151  1.00  0.00     0.023 A 
HETATM    4  C   UNL     1     -40.152  51.725 -53.459  1.00  0.00     0.044 A 
HETATM    5  C   UNL     1     -39.743  50.454 -53.979  1.00  0.00     0.099 C 
HETATM    6  N   UNL     1     -39.407  49.426 -54.402  1.00  0.00    -0.191 NA
HETATM    7  C   UNL     1     -40.883  52.606 -54.257  1.00  0.00     0.023 A 
HETATM    8  C   UNL     1     -41.275  53.847 -53.750  1.00  0.00     0.011 A 
ENDROOT
BRANCH   1   9
HETATM    9  C   UNL     1     -41.385  55.607 -51.958  1.00  0.00     0.115 C 
HETATM   10  C   UNL     1     -41.335  55.835 -50.443  1.00  0.00     0.037 C 
BRANCH   9  11
HETATM   11  N   UNL     1     -42.736  55.875 -52.443  1.00  0.00    -0.335 N 
HETATM   12  C   UNL     1     -43.097  56.805 -53.376  1.00  0.00     0.321 C 
HETATM   13  N   UNL     1     -42.177  57.011 -54.366  1.00  0.00    -0.307 N 
HETATM   14  O   UNL     1     -44.194  57.340 -53.279  1.00  0.00    -0.247 OA
HETATM   15  H   UNL     1     -41.547  56.243 -54.519  1.00  0.00     0.170 HD
HETATM   16  H   UNL     1     -43.476  55.740 -51.764  1.00  0.00     0.165 HD
BRANCH  13  17
HETATM   17  C   UNL     1     -42.212  58.012 -55.364  1.00  0.00     0.059 A 
HETATM   18  C   UNL     1     -42.536  57.658 -56.687  1.00  0.00    -0.032 A 
HETATM   19  C   UNL     1     -42.900  56.255 -57.085  1.00  0.00     0.050 C 
HETATM   20  C   UNL     1     -42.546  58.660 -57.668  1.00  0.00     0.028 A 
HETATM   21  C   UNL     1     -42.225  59.958 -57.310  1.00  0.00     0.117 A 
HETATM   22  N   UNL     1     -41.899  60.327 -56.058  1.00  0.00    -0.271 NA
HETATM   23  C   UNL     1     -41.903  59.351 -55.115  1.00  0.00     0.146 A 
ENDBRANCH  13  17
ENDBRANCH   9  11
ENDBRANCH   1   9
TORSDOF 3
ENDMDL
MODEL 5
REMARK VINA RESULT:      -7.2     16.052     17.678
REMARK  3 active torsions:
REMARK  status: ('A' for Active; 'I' for Inactive)
REMARK    1  A    between atoms: C_3  and  N_4 
REMARK       I    between atoms: N_4  and  C_5 
REMARK       I    between atoms: C_5  and  N_6 
REMARK    2  A    between atoms: N_6  and  C_7 
REMARK    3  A    between atoms: C_7  and  C_8 
ROOT
HETATM    1  C   UNL     1     -36.757  41.311 -54.881  1.00  0.00    -0.036 A 
HETATM    2  C   UNL     1     -37.923  40.967 -55.580  1.00  0.00     0.011 A 
HETATM    3  C   UNL     1     -38.057  41.264 -56.941  1.00  0.00     0.023 A 
HETATM    4  C   UNL     1     -37.028  41.917 -57.626  1.00  0.00     0.044 A 
HETATM    5  C   UNL     1     -37.163  42.215 -59.021  1.00  0.00     0.099 C 
HETATM    6  N   UNL     1     -37.271  42.452 -60.152  1.00  0.00    -0.191 NA
HETATM    7  C   UNL     1     -35.867  42.279 -56.942  1.00  0.00     0.023 A 
HETATM    8  C   UNL     1     -35.735  41.981 -55.582  1.00  0.00     0.011 A 
ENDROOT
BRANCH   1   9
HETATM    9  C   UNL     1     -36.539  41.004 -53.409  1.00  0.00     0.115 C 
HETATM   10  C   UNL     1     -37.798  40.976 -52.538  1.00  0.00     0.037 C 
BRANCH   9  11
HETATM   11  N   UNL     1     -35.587  41.961 -52.852  1.00  0.00    -0.335 N 
HETATM   12  C   UNL     1     -34.732  41.745 -51.809  1.00  0.00     0.321 C 
HETATM   13  N   UNL     1     -34.247  40.470 -51.718  1.00  0.00    -0.307 N 
HETATM   14  O   UNL     1     -34.446  42.686 -51.078  1.00  0.00    -0.247 OA
HETATM   15  H   UNL     1     -34.257  39.956 -52.582  1.00  0.00     0.170 HD
HETATM   16  H   UNL     1     -35.875  42.931 -52.886  1.00  0.00     0.165 HD
BRANCH  13  17
HETATM   17  C   UNL     1     -33.478  39.926 -50.665  1.00  0.00     0.059 A 
HETATM   18  C   UNL     1     -34.119  39.207 -49.639  1.00  0.00    -0.032 A 
HETATM   19  C   UNL     1     -35.599  38.943 -49.637  1.00  0.00     0.050 C 
HETATM   20  C   UNL     1     -33.344  38.692 -48.591  1.00  0.00     0.028 A 
HETATM   21  C   UNL     1     -31.977  38.918 -48.588  1.00  0.00     0.117 A 
HETATM   22  N   UNL     1     -31.335  39.611 -49.546  1.00  0.00    -0.271 NA
HETATM   23  C   UNL     1     -32.095  40.096 -50.561  1.00  0.00     0.146 A 
ENDBRANCH  13  17
ENDBRANCH   9  11
ENDBRANCH   1   9
TORSDOF 3
ENDMDL
MODEL 6
REMARK VINA RESULT:      -7.2      5.455      6.152
REMARK  3 active torsions:
REMARK  status: ('A' for Active; 'I' for Inactive)
REMARK    1  A    between atoms: C_3  and  N_4 
REMARK       I    between atoms: N_4  and  C_5 
REMARK       I    between atoms: C_5  and  N_6 
REMARK    2  A    between atoms: N_6  and  C_7 
REMARK    3  A    between atoms: C_7  and  C_8 
ROOT
HETATM    1  C   UNL     1     -41.998  54.909 -54.466  1.00  0.00    -0.036 A 
HETATM    2  C   UNL     1     -42.304  54.550 -53.146  1.00  0.00     0.011 A 
HETATM    3  C   UNL     1     -41.582  53.546 -52.491  1.00  0.00     0.023 A 
HETATM    4  C   UNL     1     -40.544  52.879 -53.148  1.00  0.00     0.044 A 
HETATM    5  C   UNL     1     -39.801  51.856 -52.475  1.00  0.00     0.099 C 
HETATM    6  N   UNL     1     -39.196  51.030 -51.927  1.00  0.00    -0.191 NA
HETATM    7  C   UNL     1     -40.236  53.216 -54.467  1.00  0.00     0.023 A 
HETATM    8  C   UNL     1     -40.958  54.219 -55.119  1.00  0.00     0.011 A 
ENDROOT
BRANCH   1   9
HETATM    9  C   UNL     1     -42.729  56.000 -55.231  1.00  0.00     0.115 C 
HETATM   10  C   UNL     1     -44.004  56.538 -54.574  1.00  0.00     0.037 C 
BRANCH   9  11
HETATM   11  N   UNL     1     -43.042  55.522 -56.575  1.00  0.00    -0.335 N 
HETATM   12  C   UNL     1     -43.058  56.265 -57.720  1.00  0.00     0.321 C 
HETATM   13  N   UNL     1     -42.130  57.268 -57.767  1.00  0.00    -0.307 N 
HETATM   14  O   UNL     1     -43.852  55.967 -58.604  1.00  0.00    -0.247 OA
HETATM   15  H   UNL     1     -41.332  57.128 -57.172  1.00  0.00     0.170 HD
HETATM   16  H   UNL     1     -43.723  54.773 -56.622  1.00  0.00     0.165 HD
BRANCH  13  17
HETATM   17  C   UNL     1     -42.021  58.280 -58.747  1.00  0.00     0.059 A 
HETATM   18  C   UNL     1     -42.130  59.630 -58.364  1.00  0.00    -0.032 A 
HETATM   19  C   UNL     1     -42.308  60.055 -56.933  1.00  0.00     0.050 C 
HETATM   20  C   UNL     1     -42.040  60.621 -59.352  1.00  0.00     0.028 A 
HETATM   21  C   UNL     1     -41.862  60.242 -60.672  1.00  0.00     0.117 A 
HETATM   22  N   UNL     1     -41.767  58.961 -61.074  1.00  0.00    -0.271 NA
HETATM   23  C   UNL     1     -41.845  58.012 -60.107  1.00  0.00     0.146 A 
ENDBRANCH  13  17
ENDBRANCH   9  11
ENDBRANCH   1   9
TORSDOF 3
ENDMDL
MODEL 7
REMARK VINA RESULT:      -7.1      1.474      2.081
REMARK  3 active torsions:
REMARK  status: ('A' for Active; 'I' for Inactive)
REMARK    1  A    between atoms: C_3  and  N_4 
REMARK       I    between atoms: N_4  and  C_5 
REMARK       I    between atoms: C_5  and  N_6 
REMARK    2  A    between atoms: N_6  and  C_7 
REMARK    3  A    between atoms: C_7  and  C_8 
ROOT
HETATM    1  C   UNL     1     -41.016  54.134 -52.438  1.00  0.00    -0.036 A 
HETATM    2  C   UNL     1     -40.226  53.272 -51.664  1.00  0.00     0.011 A 
HETATM    3  C   UNL     1     -39.795  52.043 -52.176  1.00  0.00     0.023 A 
HETATM    4  C   UNL     1     -40.151  51.652 -53.470  1.00  0.00     0.044 A 
HETATM    5  C   UNL     1     -39.703  50.397 -53.996  1.00  0.00     0.099 C 
HETATM    6  N   UNL     1     -39.336  49.382 -54.423  1.00  0.00    -0.191 NA
HETATM    7  C   UNL     1     -40.948  52.493 -54.248  1.00  0.00     0.023 A 
HETATM    8  C   UNL     1     -41.378  53.720 -53.735  1.00  0.00     0.011 A 
ENDROOT
BRANCH   1   9
HETATM    9  C   UNL     1     -41.505  55.488 -51.952  1.00  0.00     0.115 C 
HETATM   10  C   UNL     1     -41.790  55.597 -50.451  1.00  0.00     0.037 C 
BRANCH   9  11
HETATM   11  N   UNL     1     -42.701  55.867 -52.700  1.00  0.00    -0.335 N 
HETATM   12  C   UNL     1     -43.275  57.106 -52.742  1.00  0.00     0.321 C 
HETATM   13  N   UNL     1     -42.396  58.150 -52.673  1.00  0.00    -0.307 N 
HETATM   14  O   UNL     1     -44.491  57.186 -52.869  1.00  0.00    -0.247 OA
HETATM   15  H   UNL     1     -41.460  57.929 -52.967  1.00  0.00     0.170 HD
HETATM   16  H   UNL     1     -43.401  55.142 -52.796  1.00  0.00     0.165 HD
BRANCH  13  17
HETATM   17  C   UNL     1     -42.712  59.521 -52.540  1.00  0.00     0.059 A 
HETATM   18  C   UNL     1     -42.565  60.376 -53.648  1.00  0.00    -0.032 A 
HETATM   19  C   UNL     1     -42.128  59.883 -55.000  1.00  0.00     0.050 C 
HETATM   20  C   UNL     1     -42.864  61.737 -53.494  1.00  0.00     0.028 A 
HETATM   21  C   UNL     1     -43.279  62.200 -52.256  1.00  0.00     0.117 A 
HETATM   22  N   UNL     1     -43.418  61.412 -51.174  1.00  0.00    -0.271 NA
HETATM   23  C   UNL     1     -43.136  60.094 -51.339  1.00  0.00     0.146 A 
ENDBRANCH  13  17
ENDBRANCH   9  11
ENDBRANCH   1   9
TORSDOF 3
ENDMDL
MODEL 8
REMARK VINA RESULT:      -7.1      2.222      7.161
REMARK  3 active torsions:
REMARK  status: ('A' for Active; 'I' for Inactive)
REMARK    1  A    between atoms: C_3  and  N_4 
REMARK       I    between atoms: N_4  and  C_5 
REMARK       I    between atoms: C_5  and  N_6 
REMARK    2  A    between atoms: N_6  and  C_7 
REMARK    3  A    between atoms: C_7  and  C_8 
ROOT
HETATM    1  C   UNL     1     -42.033  57.705 -52.360  1.00  0.00    -0.036 A 
HETATM    2  C   UNL     1     -40.945  58.211 -53.085  1.00  0.00     0.011 A 
HETATM    3  C   UNL     1     -39.899  58.877 -52.435  1.00  0.00     0.023 A 
HETATM    4  C   UNL     1     -39.927  59.052 -51.049  1.00  0.00     0.044 A 
HETATM    5  C   UNL     1     -38.852  59.727 -50.384  1.00  0.00     0.099 C 
HETATM    6  N   UNL     1     -37.979  60.270 -49.844  1.00  0.00    -0.191 NA
HETATM    7  C   UNL     1     -41.009  58.565 -50.315  1.00  0.00     0.023 A 
HETATM    8  C   UNL     1     -42.053  57.901 -50.966  1.00  0.00     0.011 A 
ENDROOT
BRANCH   1   9
HETATM    9  C   UNL     1     -43.193  56.959 -52.999  1.00  0.00     0.115 C 
HETATM   10  C   UNL     1     -44.431  57.800 -53.325  1.00  0.00     0.037 C 
BRANCH   9  11
HETATM   11  N   UNL     1     -43.579  55.841 -52.142  1.00  0.00    -0.335 N 
HETATM   12  C   UNL     1     -43.083  54.569 -52.191  1.00  0.00     0.321 C 
HETATM   13  N   UNL     1     -41.764  54.480 -52.539  1.00  0.00    -0.307 N 
HETATM   14  O   UNL     1     -43.822  53.638 -51.896  1.00  0.00    -0.247 OA
HETATM   15  H   UNL     1     -41.227  55.311 -52.360  1.00  0.00     0.170 HD
HETATM   16  H   UNL     1     -44.546  55.839 -51.839  1.00  0.00     0.165 HD
BRANCH  13  17
HETATM   17  C   UNL     1     -41.036  53.301 -52.817  1.00  0.00     0.059 A 
HETATM   18  C   UNL     1     -40.212  52.745 -51.820  1.00  0.00    -0.032 A 
HETATM   19  C   UNL     1     -40.107  53.327 -50.438  1.00  0.00     0.050 C 
HETATM   20  C   UNL     1     -39.481  51.586 -52.119  1.00  0.00     0.028 A 
HETATM   21  C   UNL     1     -39.580  51.035 -53.385  1.00  0.00     0.117 A 
HETATM   22  N   UNL     1     -40.348  51.547 -54.364  1.00  0.00    -0.271 NA
HETATM   23  C   UNL     1     -41.059  52.663 -54.059  1.00  0.00     0.146 A 
ENDBRANCH  13  17
ENDBRANCH   9  11
ENDBRANCH   1   9
TORSDOF 3
ENDMDL
MODEL 9
REMARK VINA RESULT:      -7.0      2.262      2.922
REMARK  3 active torsions:
REMARK  status: ('A' for Active; 'I' for Inactive)
REMARK    1  A    between atoms: C_3  and  N_4 
REMARK       I    between atoms: N_4  and  C_5 
REMARK       I    between atoms: C_5  and  N_6 
REMARK    2  A    between atoms: N_6  and  C_7 
REMARK    3  A    between atoms: C_7  and  C_8 
ROOT
HETATM    1  C   UNL     1     -41.054  54.769 -53.878  1.00  0.00    -0.036 A 
HETATM    2  C   UNL     1     -40.641  54.049 -55.009  1.00  0.00     0.011 A 
HETATM    3  C   UNL     1     -40.231  52.716 -54.898  1.00  0.00     0.023 A 
HETATM    4  C   UNL     1     -40.220  52.081 -53.654  1.00  0.00     0.044 A 
HETATM    5  C   UNL     1     -39.806  50.714 -53.543  1.00  0.00     0.099 C 
HETATM    6  N   UNL     1     -39.475  49.604 -53.454  1.00  0.00    -0.191 NA
HETATM    7  C   UNL     1     -40.615  52.788 -52.517  1.00  0.00     0.023 A 
HETATM    8  C   UNL     1     -41.025  54.119 -52.629  1.00  0.00     0.011 A 
ENDROOT
BRANCH   1   9
HETATM    9  C   UNL     1     -41.527  56.212 -53.928  1.00  0.00     0.115 C 
HETATM   10  C   UNL     1     -41.947  56.731 -55.307  1.00  0.00     0.037 C 
BRANCH   9  11
HETATM   11  N   UNL     1     -40.489  57.080 -53.380  1.00  0.00    -0.335 N 
HETATM   12  C   UNL     1     -40.639  58.380 -52.986  1.00  0.00     0.321 C 
HETATM   13  N   UNL     1     -41.857  58.678 -52.443  1.00  0.00    -0.307 N 
HETATM   14  O   UNL     1     -39.691  59.146 -53.113  1.00  0.00    -0.247 OA
HETATM   15  H   UNL     1     -42.348  57.890 -52.057  1.00  0.00     0.170 HD
HETATM   16  H   UNL     1     -39.554  56.917 -53.734  1.00  0.00     0.165 HD
BRANCH  13  17
HETATM   17  C   UNL     1     -42.342  59.960 -52.096  1.00  0.00     0.059 A 
HETATM   18  C   UNL     1     -42.830  60.811 -53.105  1.00  0.00    -0.032 A 
HETATM   19  C   UNL     1     -42.908  60.397 -54.548  1.00  0.00     0.050 C 
HETATM   20  C   UNL     1     -43.289  62.087 -52.747  1.00  0.00     0.028 A 
HETATM   21  C   UNL     1     -43.234  62.475 -51.418  1.00  0.00     0.117 A 
HETATM   22  N   UNL     1     -42.762  61.691 -50.432  1.00  0.00    -0.271 NA
HETATM   23  C   UNL     1     -42.331  60.454 -50.790  1.00  0.00     0.146 A 
ENDBRANCH  13  17
ENDBRANCH   9  11
ENDBRANCH   1   9
TORSDOF 3
ENDMDL
MODEL 10
REMARK VINA RESULT:      -7.0     16.624     18.596
REMARK  3 active torsions:
REMARK  status: ('A' for Active; 'I' for Inactive)
REMARK    1  A    between atoms: C_3  and  N_4 
REMARK       I    between atoms: N_4  and  C_5 
REMARK       I    between atoms: C_5  and  N_6 
REMARK    2  A    between atoms: N_6  and  C_7 
REMARK    3  A    between atoms: C_7  and  C_8 
ROOT
HETATM    1  C   UNL     1     -35.702  40.779 -57.305  1.00  0.00    -0.036 A 
HETATM    2  C   UNL     1     -36.521  41.644 -58.045  1.00  0.00     0.011 A 
HETATM    3  C   UNL     1     -37.077  41.237 -59.263  1.00  0.00     0.023 A 
HETATM    4  C   UNL     1     -36.820  39.959 -59.765  1.00  0.00     0.044 A 
HETATM    5  C   UNL     1     -37.395  39.540 -61.009  1.00  0.00     0.099 C 
HETATM    6  N   UNL     1     -37.866  39.200 -62.014  1.00  0.00    -0.191 NA
HETATM    7  C   UNL     1     -35.997  39.090 -59.047  1.00  0.00     0.023 A 
HETATM    8  C   UNL     1     -35.442  39.498 -57.830  1.00  0.00     0.011 A 
ENDROOT
BRANCH   1   9
HETATM    9  C   UNL     1     -35.080  41.149 -55.969  1.00  0.00     0.115 C 
HETATM   10  C   UNL     1     -35.096  42.639 -55.614  1.00  0.00     0.037 C 
BRANCH   9  11
HETATM   11  N   UNL     1     -33.707  40.654 -55.922  1.00  0.00    -0.335 N 
HETATM   12  C   UNL     1     -32.967  40.411 -54.800  1.00  0.00     0.321 C 
HETATM   13  N   UNL     1     -33.683  39.955 -53.728  1.00  0.00    -0.307 N 
HETATM   14  O   UNL     1     -31.755  40.580 -54.846  1.00  0.00    -0.247 OA
HETATM   15  H   UNL     1     -34.552  39.507 -53.965  1.00  0.00     0.170 HD
HETATM   16  H   UNL     1     -33.112  40.949 -56.688  1.00  0.00     0.165 HD
BRANCH  13  17
HETATM   17  C   UNL     1     -33.213  39.770 -52.408  1.00  0.00     0.059 A 
HETATM   18  C   UNL     1     -33.627  40.655 -51.396  1.00  0.00    -0.032 A 
HETATM   19  C   UNL     1     -34.600  41.774 -51.645  1.00  0.00     0.050 C 
HETATM   20  C   UNL     1     -33.134  40.470 -50.096  1.00  0.00     0.028 A 
HETATM   21  C   UNL     1     -32.247  39.435 -49.852  1.00  0.00     0.117 A 
HETATM   22  N   UNL     1     -31.822  38.579 -50.799  1.00  0.00    -0.271 NA
HETATM   23  C   UNL     1     -32.314  38.762 -52.051  1.00  0.00     0.146 A 
ENDBRANCH  13  17
ENDBRANCH   9  11
ENDBRANCH   1   9
TORSDOF 3
ENDMDL
