MODEL 1
REMARK VINA RESULT:      -8.6      0.000      0.000
REMARK  5 active torsions:
REMARK  status: ('A' for Active; 'I' for Inactive)
REMARK    1  A    between atoms: C_5  and  C_6 
REMARK    2  A    between atoms: C_10  and  C_11 
REMARK       I    between atoms: C_11  and  N_12 
REMARK    3  A    between atoms: N_12  and  C_13 
REMARK    4  A    between atoms: C_13  and  C_14 
REMARK    5  A    between atoms: C_14  and  O_15 
ROOT
HETATM    1  C   UNL     1     -41.130  55.045 -53.829  1.00  0.00     0.068 A 
HETATM    2  N   UNL     1     -40.929  55.942 -52.833  1.00  0.00    -0.248 NA
HETATM    3  C   UNL     1     -41.261  57.232 -53.012  1.00  0.00     0.068 A 
HETATM    4  C   UNL     1     -41.848  57.721 -54.194  1.00  0.00     0.008 A 
HETATM    5  C   UNL     1     -42.107  56.756 -55.191  1.00  0.00     0.046 A 
HETATM    6  C   UNL     1     -41.732  55.422 -55.014  1.00  0.00     0.050 A 
HETATM    7  C   UNL     1     -41.000  58.119 -51.975  1.00  0.00     0.032 A 
HETATM    8  C   UNL     1     -41.283  59.482 -52.077  1.00  0.00     0.002 A 
HETATM    9  C   UNL     1     -41.831  59.983 -53.249  1.00  0.00     0.001 A 
HETATM   10  C   UNL     1     -42.106  59.113 -54.303  1.00  0.00     0.015 A 
ENDROOT
BRANCH   5  11
HETATM   11  C   UNL     1     -42.796  57.038 -56.475  1.00  0.00     0.252 C 
HETATM   12  N   UNL     1     -41.992  57.214 -57.579  1.00  0.00    -0.354 N 
HETATM   13  H   UNL     1     -40.994  57.273 -57.407  1.00  0.00     0.162 HD
HETATM   14  O   UNL     1     -44.012  57.187 -56.481  1.00  0.00    -0.268 OA
BRANCH  12  15
HETATM   15  C   UNL     1     -42.458  57.832 -58.819  1.00  0.00     0.154 C 
BRANCH  15  16
HETATM   16  C   UNL     1     -42.513  56.906 -60.051  1.00  0.00     0.132 C 
HETATM   17  C   UNL     1     -43.324  55.652 -59.754  1.00  0.00     0.041 C 
BRANCH  16  18
HETATM   18  O   UNL     1     -41.202  56.468 -60.411  1.00  0.00    -0.394 OA
HETATM   19  H   UNL     1     -41.313  55.562 -60.778  1.00  0.00     0.210 HD
ENDBRANCH  16  18
ENDBRANCH  15  16
ENDBRANCH  12  15
ENDBRANCH   5  11
BRANCH   1  20
HETATM   20  C   UNL     1     -40.691  53.659 -53.560  1.00  0.00    -0.007 A 
HETATM   21  C   UNL     1     -40.304  53.261 -52.268  1.00  0.00     0.014 A 
HETATM   22  C   UNL     1     -39.905  51.947 -51.993  1.00  0.00     0.007 A 
HETATM   23  C   UNL     1     -39.867  50.992 -53.010  1.00  0.00    -0.062 A 
HETATM   24  C   UNL     1     -39.468  49.575 -52.727  1.00  0.00     0.048 C 
HETATM   25  C   UNL     1     -40.242  51.368 -54.302  1.00  0.00     0.007 A 
HETATM   26  C   UNL     1     -40.640  52.682 -54.572  1.00  0.00     0.014 A 
ENDBRANCH   1  20
TORSDOF 5
ENDMDL
MODEL 2
REMARK VINA RESULT:      -8.3      2.307      5.111
REMARK  5 active torsions:
REMARK  status: ('A' for Active; 'I' for Inactive)
REMARK    1  A    between atoms: C_5  and  C_6 
REMARK    2  A    between atoms: C_10  and  C_11 
REMARK       I    between atoms: C_11  and  N_12 
REMARK    3  A    between atoms: N_12  and  C_13 
REMARK    4  A    between atoms: C_13  and  C_14 
REMARK    5  A    between atoms: C_14  and  O_15 
ROOT
HETATM    1  C   UNL     1     -41.139  54.723 -54.042  1.00  0.00     0.068 A 
HETATM    2  N   UNL     1     -41.714  54.553 -55.257  1.00  0.00    -0.248 NA
HETATM    3  C   UNL     1     -42.235  55.607 -55.910  1.00  0.00     0.068 A 
HETATM    4  C   UNL     1     -42.194  56.921 -55.407  1.00  0.00     0.008 A 
HETATM    5  C   UNL     1     -41.533  57.083 -54.171  1.00  0.00     0.046 A 
HETATM    6  C   UNL     1     -41.021  55.981 -53.482  1.00  0.00     0.050 A 
HETATM    7  C   UNL     1     -42.847  55.374 -57.134  1.00  0.00     0.032 A 
HETATM    8  C   UNL     1     -43.442  56.399 -57.872  1.00  0.00     0.002 A 
HETATM    9  C   UNL     1     -43.439  57.694 -57.374  1.00  0.00     0.001 A 
HETATM   10  C   UNL     1     -42.827  57.955 -56.148  1.00  0.00     0.015 A 
ENDROOT
BRANCH   5  11
HETATM   11  C   UNL     1     -41.301  58.389 -53.506  1.00  0.00     0.252 C 
HETATM   12  N   UNL     1     -41.567  58.448 -52.156  1.00  0.00    -0.354 N 
HETATM   13  H   UNL     1     -42.027  57.642 -51.750  1.00  0.00     0.162 HD
HETATM   14  O   UNL     1     -40.977  59.356 -54.185  1.00  0.00    -0.268 OA
BRANCH  12  15
HETATM   15  C   UNL     1     -41.732  59.705 -51.427  1.00  0.00     0.154 C 
BRANCH  15  16
HETATM   16  C   UNL     1     -40.781  59.916 -50.231  1.00  0.00     0.132 C 
HETATM   17  C   UNL     1     -39.357  59.514 -50.590  1.00  0.00     0.041 C 
BRANCH  16  18
HETATM   18  O   UNL     1     -41.170  59.097 -49.128  1.00  0.00    -0.394 OA
HETATM   19  H   UNL     1     -41.115  59.673 -48.332  1.00  0.00     0.210 HD
ENDBRANCH  16  18
ENDBRANCH  15  16
ENDBRANCH  12  15
ENDBRANCH   5  11
BRANCH   1  20
HETATM   20  C   UNL     1     -40.636  53.501 -53.379  1.00  0.00    -0.007 A 
HETATM   21  C   UNL     1     -40.490  53.445 -51.982  1.00  0.00     0.014 A 
HETATM   22  C   UNL     1     -40.032  52.288 -51.338  1.00  0.00     0.007 A 
HETATM   23  C   UNL     1     -39.693  51.154 -52.077  1.00  0.00    -0.062 A 
HETATM   24  C   UNL     1     -39.228  49.900 -51.400  1.00  0.00     0.048 C 
HETATM   25  C   UNL     1     -39.826  51.191 -53.467  1.00  0.00     0.007 A 
HETATM   26  C   UNL     1     -40.283  52.349 -54.106  1.00  0.00     0.014 A 
ENDBRANCH   1  20
TORSDOF 5
ENDMDL
MODEL 3
REMARK VINA RESULT:      -8.2      2.023      2.371
REMARK  5 active torsions:
REMARK  status: ('A' for Active; 'I' for Inactive)
REMARK    1  A    between atoms: C_5  and  C_6 
REMARK    2  A    between atoms: C_10  and  C_11 
REMARK       I    between atoms: C_11  and  N_12 
REMARK    3  A    between atoms: N_12  and  C_13 
REMARK    4  A    between atoms: C_13  and  C_14 
REMARK    5  A    between atoms: C_14  and  O_15 
ROOT
HETATM    1  C   UNL     1     -42.182  55.028 -54.094  1.00  0.00     0.068 A 
HETATM    2  N   UNL     1     -42.873  55.801 -53.222  1.00  0.00    -0.248 NA
HETATM    3  C   UNL     1     -43.578  56.855 -53.667  1.00  0.00     0.068 A 
HETATM    4  C   UNL     1     -43.671  57.201 -55.029  1.00  0.00     0.008 A 
HETATM    5  C   UNL     1     -42.996  56.342 -55.924  1.00  0.00     0.046 A 
HETATM    6  C   UNL     1     -42.239  55.267 -55.454  1.00  0.00     0.050 A 
HETATM    7  C   UNL     1     -44.238  57.638 -52.729  1.00  0.00     0.032 A 
HETATM    8  C   UNL     1     -44.972  58.769 -53.092  1.00  0.00     0.002 A 
HETATM    9  C   UNL     1     -45.044  59.141 -54.426  1.00  0.00     0.001 A 
HETATM   10  C   UNL     1     -44.394  58.369 -55.389  1.00  0.00     0.015 A 
ENDROOT
BRANCH   5  11
HETATM   11  C   UNL     1     -43.034  56.473 -57.402  1.00  0.00     0.252 C 
HETATM   12  N   UNL     1     -43.749  55.515 -58.086  1.00  0.00    -0.354 N 
HETATM   13  H   UNL     1     -44.076  54.722 -57.545  1.00  0.00     0.162 HD
HETATM   14  O   UNL     1     -42.374  57.352 -57.942  1.00  0.00    -0.268 OA
BRANCH  12  15
HETATM   15  C   UNL     1     -43.608  55.284 -59.523  1.00  0.00     0.154 C 
BRANCH  15  16
HETATM   16  C   UNL     1     -44.798  54.583 -60.210  1.00  0.00     0.132 C 
HETATM   17  C   UNL     1     -45.999  55.515 -60.302  1.00  0.00     0.041 C 
BRANCH  16  18
HETATM   18  O   UNL     1     -45.219  53.448 -59.453  1.00  0.00    -0.394 OA
HETATM   19  H   UNL     1     -44.440  53.177 -58.918  1.00  0.00     0.210 HD
ENDBRANCH  16  18
ENDBRANCH  15  16
ENDBRANCH  12  15
ENDBRANCH   5  11
BRANCH   1  20
HETATM   20  C   UNL     1     -41.398  53.920 -53.509  1.00  0.00    -0.007 A 
HETATM   21  C   UNL     1     -41.155  53.859 -52.126  1.00  0.00     0.014 A 
HETATM   22  C   UNL     1     -40.430  52.806 -51.554  1.00  0.00     0.007 A 
HETATM   23  C   UNL     1     -39.914  51.785 -52.354  1.00  0.00    -0.062 A 
HETATM   24  C   UNL     1     -39.160  50.637 -51.753  1.00  0.00     0.048 C 
HETATM   25  C   UNL     1     -40.141  51.830 -53.731  1.00  0.00     0.007 A 
HETATM   26  C   UNL     1     -40.865  52.884 -54.298  1.00  0.00     0.014 A 
ENDBRANCH   1  20
TORSDOF 5
ENDMDL
MODEL 4
REMARK VINA RESULT:      -8.0      2.310      4.516
REMARK  5 active torsions:
REMARK  status: ('A' for Active; 'I' for Inactive)
REMARK    1  A    between atoms: C_5  and  C_6 
REMARK    2  A    between atoms: C_10  and  C_11 
REMARK       I    between atoms: C_11  and  N_12 
REMARK    3  A    between atoms: N_12  and  C_13 
REMARK    4  A    between atoms: C_13  and  C_14 
REMARK    5  A    between atoms: C_14  and  O_15 
ROOT
HETATM    1  C   UNL     1     -41.210  54.913 -53.965  1.00  0.00     0.068 A 
HETATM    2  N   UNL     1     -41.735  54.756 -55.204  1.00  0.00    -0.248 NA
HETATM    3  C   UNL     1     -42.240  55.814 -55.862  1.00  0.00     0.068 A 
HETATM    4  C   UNL     1     -42.232  57.121 -55.339  1.00  0.00     0.008 A 
HETATM    5  C   UNL     1     -41.622  57.270 -54.075  1.00  0.00     0.046 A 
HETATM    6  C   UNL     1     -41.127  56.163 -53.382  1.00  0.00     0.050 A 
HETATM    7  C   UNL     1     -42.800  55.594 -57.113  1.00  0.00     0.032 A 
HETATM    8  C   UNL     1     -43.375  56.624 -57.859  1.00  0.00     0.002 A 
HETATM    9  C   UNL     1     -43.405  57.911 -57.343  1.00  0.00     0.001 A 
HETATM   10  C   UNL     1     -42.846  58.160 -56.090  1.00  0.00     0.015 A 
ENDROOT
BRANCH   5  11
HETATM   11  C   UNL     1     -41.430  58.569 -53.383  1.00  0.00     0.252 C 
HETATM   12  N   UNL     1     -42.402  58.933 -52.478  1.00  0.00    -0.354 N 
HETATM   13  H   UNL     1     -43.237  58.358 -52.454  1.00  0.00     0.162 HD
HETATM   14  O   UNL     1     -40.487  59.284 -53.702  1.00  0.00    -0.268 OA
BRANCH  12  15
HETATM   15  C   UNL     1     -42.561  60.298 -51.978  1.00  0.00     0.154 C 
BRANCH  15  16
HETATM   16  C   UNL     1     -43.325  61.266 -52.904  1.00  0.00     0.132 C 
HETATM   17  C   UNL     1     -44.498  60.564 -53.577  1.00  0.00     0.041 C 
BRANCH  16  18
HETATM   18  O   UNL     1     -42.477  61.738 -53.951  1.00  0.00    -0.394 OA
HETATM   19  H   UNL     1     -43.072  62.166 -54.607  1.00  0.00     0.210 HD
ENDBRANCH  16  18
ENDBRANCH  15  16
ENDBRANCH  12  15
ENDBRANCH   5  11
BRANCH   1  20
HETATM   20  C   UNL     1     -40.721  53.686 -53.300  1.00  0.00    -0.007 A 
HETATM   21  C   UNL     1     -40.330  52.564 -54.051  1.00  0.00     0.014 A 
HETATM   22  C   UNL     1     -39.847  51.402 -53.437  1.00  0.00     0.007 A 
HETATM   23  C   UNL     1     -39.754  51.323 -52.047  1.00  0.00    -0.062 A 
HETATM   24  C   UNL     1     -39.213  50.096 -51.376  1.00  0.00     0.048 C 
HETATM   25  C   UNL     1     -40.143  52.424 -51.282  1.00  0.00     0.007 A 
HETATM   26  C   UNL     1     -40.625  53.583 -51.900  1.00  0.00     0.014 A 
ENDBRANCH   1  20
TORSDOF 5
ENDMDL
MODEL 5
REMARK VINA RESULT:      -7.6      2.041      2.279
REMARK  5 active torsions:
REMARK  status: ('A' for Active; 'I' for Inactive)
REMARK    1  A    between atoms: C_5  and  C_6 
REMARK    2  A    between atoms: C_10  and  C_11 
REMARK       I    between atoms: C_11  and  N_12 
REMARK    3  A    between atoms: N_12  and  C_13 
REMARK    4  A    between atoms: C_13  and  C_14 
REMARK    5  A    between atoms: C_14  and  O_15 
ROOT
HETATM    1  C   UNL     1     -42.484  55.390 -53.569  1.00  0.00     0.068 A 
HETATM    2  N   UNL     1     -43.127  55.801 -52.449  1.00  0.00    -0.248 NA
HETATM    3  C   UNL     1     -43.845  56.937 -52.463  1.00  0.00     0.068 A 
HETATM    4  C   UNL     1     -44.000  57.737 -53.612  1.00  0.00     0.008 A 
HETATM    5  C   UNL     1     -43.375  57.254 -54.781  1.00  0.00     0.046 A 
HETATM    6  C   UNL     1     -42.603  56.090 -54.754  1.00  0.00     0.050 A 
HETATM    7  C   UNL     1     -44.454  57.335 -51.280  1.00  0.00     0.032 A 
HETATM    8  C   UNL     1     -45.197  58.514 -51.189  1.00  0.00     0.002 A 
HETATM    9  C   UNL     1     -45.329  59.329 -52.303  1.00  0.00     0.001 A 
HETATM   10  C   UNL     1     -44.731  58.950 -53.505  1.00  0.00     0.015 A 
ENDROOT
BRANCH   5  11
HETATM   11  C   UNL     1     -43.482  57.894 -56.116  1.00  0.00     0.252 C 
HETATM   12  N   UNL     1     -44.411  57.360 -56.981  1.00  0.00    -0.354 N 
HETATM   13  H   UNL     1     -44.850  56.492 -56.694  1.00  0.00     0.162 HD
HETATM   14  O   UNL     1     -42.700  58.788 -56.416  1.00  0.00    -0.268 OA
BRANCH  12  15
HETATM   15  C   UNL     1     -44.410  57.623 -58.419  1.00  0.00     0.154 C 
BRANCH  15  16
HETATM   16  C   UNL     1     -43.451  56.755 -59.259  1.00  0.00     0.132 C 
HETATM   17  C   UNL     1     -43.556  55.288 -58.864  1.00  0.00     0.041 C 
BRANCH  16  18
HETATM   18  O   UNL     1     -42.095  57.142 -59.034  1.00  0.00    -0.394 OA
HETATM   19  H   UNL     1     -41.554  56.597 -59.649  1.00  0.00     0.210 HD
ENDBRANCH  16  18
ENDBRANCH  15  16
ENDBRANCH  12  15
ENDBRANCH   5  11
BRANCH   1  20
HETATM   20  C   UNL     1     -41.680  54.155 -53.446  1.00  0.00    -0.007 A 
HETATM   21  C   UNL     1     -41.587  53.244 -54.513  1.00  0.00     0.014 A 
HETATM   22  C   UNL     1     -40.815  52.080 -54.419  1.00  0.00     0.007 A 
HETATM   23  C   UNL     1     -40.121  51.784 -53.245  1.00  0.00    -0.062 A 
HETATM   24  C   UNL     1     -39.269  50.555 -53.138  1.00  0.00     0.048 C 
HETATM   25  C   UNL     1     -40.205  52.673 -52.171  1.00  0.00     0.007 A 
HETATM   26  C   UNL     1     -40.978  53.835 -52.269  1.00  0.00     0.014 A 
ENDBRANCH   1  20
TORSDOF 5
ENDMDL
MODEL 6
REMARK VINA RESULT:      -7.5      2.397      2.783
REMARK  5 active torsions:
REMARK  status: ('A' for Active; 'I' for Inactive)
REMARK    1  A    between atoms: C_5  and  C_6 
REMARK    2  A    between atoms: C_10  and  C_11 
REMARK       I    between atoms: C_11  and  N_12 
REMARK    3  A    between atoms: N_12  and  C_13 
REMARK    4  A    between atoms: C_13  and  C_14 
REMARK    5  A    between atoms: C_14  and  O_15 
ROOT
HETATM    1  C   UNL     1     -41.442  54.909 -52.957  1.00  0.00     0.068 A 
HETATM    2  N   UNL     1     -40.993  55.653 -51.916  1.00  0.00    -0.248 NA
HETATM    3  C   UNL     1     -41.423  56.917 -51.756  1.00  0.00     0.068 A 
HETATM    4  C   UNL     1     -42.361  57.526 -52.612  1.00  0.00     0.008 A 
HETATM    5  C   UNL     1     -42.862  56.710 -53.649  1.00  0.00     0.046 A 
HETATM    6  C   UNL     1     -42.389  55.408 -53.830  1.00  0.00     0.050 A 
HETATM    7  C   UNL     1     -40.905  57.649 -50.697  1.00  0.00     0.032 A 
HETATM    8  C   UNL     1     -41.268  58.977 -50.466  1.00  0.00     0.002 A 
HETATM    9  C   UNL     1     -42.165  59.601 -51.320  1.00  0.00     0.001 A 
HETATM   10  C   UNL     1     -42.703  58.886 -52.390  1.00  0.00     0.015 A 
ENDROOT
BRANCH   5  11
HETATM   11  C   UNL     1     -43.917  57.123 -54.607  1.00  0.00     0.252 C 
HETATM   12  N   UNL     1     -43.495  57.787 -55.737  1.00  0.00    -0.354 N 
HETATM   13  H   UNL     1     -42.520  58.063 -55.763  1.00  0.00     0.162 HD
HETATM   14  O   UNL     1     -45.093  56.940 -54.318  1.00  0.00    -0.268 OA
BRANCH  12  15
HETATM   15  C   UNL     1     -44.393  58.560 -56.594  1.00  0.00     0.154 C 
BRANCH  15  16
HETATM   16  C   UNL     1     -44.763  59.967 -56.082  1.00  0.00     0.132 C 
HETATM   17  C   UNL     1     -43.552  60.660 -55.470  1.00  0.00     0.041 C 
BRANCH  16  18
HETATM   18  O   UNL     1     -45.749  59.885 -55.053  1.00  0.00    -0.394 OA
HETATM   19  H   UNL     1     -45.414  59.218 -54.411  1.00  0.00     0.210 HD
ENDBRANCH  16  18
ENDBRANCH  15  16
ENDBRANCH  12  15
ENDBRANCH   5  11
BRANCH   1  20
HETATM   20  C   UNL     1     -40.879  53.548 -53.079  1.00  0.00    -0.007 A 
HETATM   21  C   UNL     1     -40.196  52.949 -52.006  1.00  0.00     0.014 A 
HETATM   22  C   UNL     1     -39.673  51.653 -52.100  1.00  0.00     0.007 A 
HETATM   23  C   UNL     1     -39.808  50.920 -53.280  1.00  0.00    -0.062 A 
HETATM   24  C   UNL     1     -39.278  49.521 -53.388  1.00  0.00     0.048 C 
HETATM   25  C   UNL     1     -40.477  51.499 -54.360  1.00  0.00     0.007 A 
HETATM   26  C   UNL     1     -40.997  52.794 -54.262  1.00  0.00     0.014 A 
ENDBRANCH   1  20
TORSDOF 5
ENDMDL
MODEL 7
REMARK VINA RESULT:      -7.4      2.936      7.084
REMARK  5 active torsions:
REMARK  status: ('A' for Active; 'I' for Inactive)
REMARK    1  A    between atoms: C_5  and  C_6 
REMARK    2  A    between atoms: C_10  and  C_11 
REMARK       I    between atoms: C_11  and  N_12 
REMARK    3  A    between atoms: N_12  and  C_13 
REMARK    4  A    between atoms: C_13  and  C_14 
REMARK    5  A    between atoms: C_14  and  O_15 
ROOT
HETATM    1  C   UNL     1     -42.186  55.572 -55.436  1.00  0.00     0.068 A 
HETATM    2  N   UNL     1     -41.468  54.425 -55.526  1.00  0.00    -0.248 NA
HETATM    3  C   UNL     1     -41.063  53.795 -54.410  1.00  0.00     0.068 A 
HETATM    4  C   UNL     1     -41.370  54.249 -53.113  1.00  0.00     0.008 A 
HETATM    5  C   UNL     1     -42.172  55.408 -53.046  1.00  0.00     0.046 A 
HETATM    6  C   UNL     1     -42.565  56.077 -54.207  1.00  0.00     0.050 A 
HETATM    7  C   UNL     1     -40.298  52.645 -54.556  1.00  0.00     0.032 A 
HETATM    8  C   UNL     1     -39.807  51.937 -53.457  1.00  0.00     0.002 A 
HETATM    9  C   UNL     1     -40.073  52.391 -52.174  1.00  0.00     0.001 A 
HETATM   10  C   UNL     1     -40.842  53.542 -52.000  1.00  0.00     0.015 A 
ENDROOT
BRANCH   5  11
HETATM   11  C   UNL     1     -42.682  56.004 -51.786  1.00  0.00     0.252 C 
HETATM   12  N   UNL     1     -44.048  56.145 -51.681  1.00  0.00    -0.354 N 
HETATM   13  H   UNL     1     -44.588  55.961 -52.519  1.00  0.00     0.162 HD
HETATM   14  O   UNL     1     -41.883  56.416 -50.953  1.00  0.00    -0.268 OA
BRANCH  12  15
HETATM   15  C   UNL     1     -44.690  57.011 -50.693  1.00  0.00     0.154 C 
BRANCH  15  16
HETATM   16  C   UNL     1     -45.304  58.315 -51.243  1.00  0.00     0.132 C 
HETATM   17  C   UNL     1     -44.224  59.351 -51.521  1.00  0.00     0.041 C 
BRANCH  16  18
HETATM   18  O   UNL     1     -46.190  58.896 -50.285  1.00  0.00    -0.394 OA
HETATM   19  H   UNL     1     -46.351  58.200 -49.609  1.00  0.00     0.210 HD
ENDBRANCH  16  18
ENDBRANCH  15  16
ENDBRANCH  12  15
ENDBRANCH   5  11
BRANCH   1  20
HETATM   20  C   UNL     1     -42.547  56.220 -56.714  1.00  0.00    -0.007 A 
HETATM   21  C   UNL     1     -43.059  55.468 -57.786  1.00  0.00     0.014 A 
HETATM   22  C   UNL     1     -43.424  56.070 -58.997  1.00  0.00     0.007 A 
HETATM   23  C   UNL     1     -43.275  57.446 -59.176  1.00  0.00    -0.062 A 
HETATM   24  C   UNL     1     -43.686  58.109 -60.456  1.00  0.00     0.048 C 
HETATM   25  C   UNL     1     -42.763  58.210 -58.125  1.00  0.00     0.007 A 
HETATM   26  C   UNL     1     -42.399  57.605 -56.918  1.00  0.00     0.014 A 
ENDBRANCH   1  20
TORSDOF 5
ENDMDL
MODEL 8
REMARK VINA RESULT:      -7.4      2.497      3.036
REMARK  5 active torsions:
REMARK  status: ('A' for Active; 'I' for Inactive)
REMARK    1  A    between atoms: C_5  and  C_6 
REMARK    2  A    between atoms: C_10  and  C_11 
REMARK       I    between atoms: C_11  and  N_12 
REMARK    3  A    between atoms: N_12  and  C_13 
REMARK    4  A    between atoms: C_13  and  C_14 
REMARK    5  A    between atoms: C_14  and  O_15 
ROOT
HETATM    1  C   UNL     1     -42.095  55.682 -53.196  1.00  0.00     0.068 A 
HETATM    2  N   UNL     1     -43.053  55.875 -52.257  1.00  0.00    -0.248 NA
HETATM    3  C   UNL     1     -43.668  57.066 -52.157  1.00  0.00     0.068 A 
HETATM    4  C   UNL     1     -43.391  58.150 -53.011  1.00  0.00     0.008 A 
HETATM    5  C   UNL     1     -42.438  57.904 -54.022  1.00  0.00     0.046 A 
HETATM    6  C   UNL     1     -41.778  56.676 -54.102  1.00  0.00     0.050 A 
HETATM    7  C   UNL     1     -44.615  57.225 -51.154  1.00  0.00     0.032 A 
HETATM    8  C   UNL     1     -45.287  58.433 -50.953  1.00  0.00     0.002 A 
HETATM    9  C   UNL     1     -45.000  59.520 -51.766  1.00  0.00     0.001 A 
HETATM   10  C   UNL     1     -44.056  59.385 -52.783  1.00  0.00     0.015 A 
ENDROOT
BRANCH   5  11
HETATM   11  C   UNL     1     -42.062  58.877 -55.078  1.00  0.00     0.252 C 
HETATM   12  N   UNL     1     -42.567  58.643 -56.337  1.00  0.00    -0.354 N 
HETATM   13  H   UNL     1     -43.038  57.756 -56.478  1.00  0.00     0.162 HD
HETATM   14  O   UNL     1     -41.271  59.774 -54.811  1.00  0.00    -0.268 OA
BRANCH  12  15
HETATM   15  C   UNL     1     -42.034  59.274 -57.544  1.00  0.00     0.154 C 
BRANCH  15  16
HETATM   16  C   UNL     1     -42.250  60.797 -57.655  1.00  0.00     0.132 C 
HETATM   17  C   UNL     1     -42.654  61.188 -59.070  1.00  0.00     0.041 C 
BRANCH  16  18
HETATM   18  O   UNL     1     -41.040  61.499 -57.368  1.00  0.00    -0.394 OA
HETATM   19  H   UNL     1     -40.374  60.809 -57.147  1.00  0.00     0.210 HD
ENDBRANCH  16  18
ENDBRANCH  15  16
ENDBRANCH  12  15
ENDBRANCH   5  11
BRANCH   1  20
HETATM   20  C   UNL     1     -41.440  54.356 -53.200  1.00  0.00    -0.007 A 
HETATM   21  C   UNL     1     -41.502  53.524 -54.331  1.00  0.00     0.014 A 
HETATM   22  C   UNL     1     -40.871  52.273 -54.358  1.00  0.00     0.007 A 
HETATM   23  C   UNL     1     -40.168  51.812 -53.244  1.00  0.00    -0.062 A 
HETATM   24  C   UNL     1     -39.465  50.488 -53.266  1.00  0.00     0.048 C 
HETATM   25  C   UNL     1     -40.100  52.621 -52.108  1.00  0.00     0.007 A 
HETATM   26  C   UNL     1     -40.732  53.869 -52.086  1.00  0.00     0.014 A 
ENDBRANCH   1  20
TORSDOF 5
ENDMDL
MODEL 9
REMARK VINA RESULT:      -7.2      2.744      7.036
REMARK  5 active torsions:
REMARK  status: ('A' for Active; 'I' for Inactive)
REMARK    1  A    between atoms: C_5  and  C_6 
REMARK    2  A    between atoms: C_10  and  C_11 
REMARK       I    between atoms: C_11  and  N_12 
REMARK    3  A    between atoms: N_12  and  C_13 
REMARK    4  A    between atoms: C_13  and  C_14 
REMARK    5  A    between atoms: C_14  and  O_15 
ROOT
HETATM    1  C   UNL     1     -41.778  55.194 -54.854  1.00  0.00     0.068 A 
HETATM    2  N   UNL     1     -41.379  53.911 -55.028  1.00  0.00    -0.248 NA
HETATM    3  C   UNL     1     -40.823  53.234 -54.008  1.00  0.00     0.068 A 
HETATM    4  C   UNL     1     -40.649  53.782 -52.723  1.00  0.00     0.008 A 
HETATM    5  C   UNL     1     -41.131  55.097 -52.549  1.00  0.00     0.046 A 
HETATM    6  C   UNL     1     -41.679  55.807 -53.620  1.00  0.00     0.050 A 
HETATM    7  C   UNL     1     -40.397  51.934 -54.248  1.00  0.00     0.032 A 
HETATM    8  C   UNL     1     -39.782  51.162 -53.260  1.00  0.00     0.002 A 
HETATM    9  C   UNL     1     -39.573  51.700 -51.999  1.00  0.00     0.001 A 
HETATM   10  C   UNL     1     -39.996  53.002 -51.731  1.00  0.00     0.015 A 
ENDROOT
BRANCH   5  11
HETATM   11  C   UNL     1     -41.126  55.830 -51.259  1.00  0.00     0.252 C 
HETATM   12  N   UNL     1     -41.514  57.150 -51.300  1.00  0.00    -0.354 N 
HETATM   13  H   UNL     1     -41.639  57.557 -52.220  1.00  0.00     0.162 HD
HETATM   14  O   UNL     1     -40.706  55.269 -50.254  1.00  0.00    -0.268 OA
BRANCH  12  15
HETATM   15  C   UNL     1     -41.240  58.099 -50.222  1.00  0.00     0.154 C 
BRANCH  15  16
HETATM   16  C   UNL     1     -40.777  59.502 -50.665  1.00  0.00     0.132 C 
HETATM   17  C   UNL     1     -41.894  60.524 -50.494  1.00  0.00     0.041 C 
BRANCH  16  18
HETATM   18  O   UNL     1     -40.430  59.504 -52.050  1.00  0.00    -0.394 OA
HETATM   19  H   UNL     1     -40.705  60.384 -52.395  1.00  0.00     0.210 HD
ENDBRANCH  16  18
ENDBRANCH  15  16
ENDBRANCH  12  15
ENDBRANCH   5  11
BRANCH   1  20
HETATM   20  C   UNL     1     -42.335  55.874 -56.043  1.00  0.00    -0.007 A 
HETATM   21  C   UNL     1     -42.326  57.275 -56.144  1.00  0.00     0.014 A 
HETATM   22  C   UNL     1     -42.833  57.933 -57.273  1.00  0.00     0.007 A 
HETATM   23  C   UNL     1     -43.377  57.204 -58.331  1.00  0.00    -0.062 A 
HETATM   24  C   UNL     1     -43.899  57.892 -59.557  1.00  0.00     0.048 C 
HETATM   25  C   UNL     1     -43.401  55.811 -58.247  1.00  0.00     0.007 A 
HETATM   26  C   UNL     1     -42.894  55.158 -57.118  1.00  0.00     0.014 A 
ENDBRANCH   1  20
TORSDOF 5
ENDMDL
MODEL 10
REMARK VINA RESULT:      -7.2     15.237     17.838
REMARK  5 active torsions:
REMARK  status: ('A' for Active; 'I' for Inactive)
REMARK    1  A    between atoms: C_5  and  C_6 
REMARK    2  A    between atoms: C_10  and  C_11 
REMARK       I    between atoms: C_11  and  N_12 
REMARK    3  A    between atoms: N_12  and  C_13 
REMARK    4  A    between atoms: C_13  and  C_14 
REMARK    5  A    between atoms: C_14  and  O_15 
ROOT
HETATM    1  C   UNL     1     -33.217  39.780 -51.396  1.00  0.00     0.068 A 
HETATM    2  N   UNL     1     -32.268  39.548 -52.335  1.00  0.00    -0.248 NA
HETATM    3  C   UNL     1     -32.509  39.846 -53.624  1.00  0.00     0.068 A 
HETATM    4  C   UNL     1     -33.711  40.427 -54.070  1.00  0.00     0.008 A 
HETATM    5  C   UNL     1     -34.658  40.719 -53.064  1.00  0.00     0.046 A 
HETATM    6  C   UNL     1     -34.416  40.379 -51.731  1.00  0.00     0.050 A 
HETATM    7  C   UNL     1     -31.518  39.554 -54.553  1.00  0.00     0.032 A 
HETATM    8  C   UNL     1     -31.686  39.800 -55.917  1.00  0.00     0.002 A 
HETATM    9  C   UNL     1     -32.879  40.341 -56.375  1.00  0.00     0.001 A 
HETATM   10  C   UNL     1     -33.888  40.646 -55.462  1.00  0.00     0.015 A 
ENDROOT
BRANCH   5  11
HETATM   11  C   UNL     1     -35.950  41.408 -53.303  1.00  0.00     0.252 C 
HETATM   12  N   UNL     1     -37.024  40.607 -53.623  1.00  0.00    -0.354 N 
HETATM   13  H   UNL     1     -36.822  39.631 -53.807  1.00  0.00     0.162 HD
HETATM   14  O   UNL     1     -35.987  42.633 -53.290  1.00  0.00    -0.268 OA
BRANCH  12  15
HETATM   15  C   UNL     1     -38.255  41.121 -54.222  1.00  0.00     0.154 C 
BRANCH  15  16
HETATM   16  C   UNL     1     -38.215  41.351 -55.746  1.00  0.00     0.132 C 
HETATM   17  C   UNL     1     -37.494  40.209 -56.451  1.00  0.00     0.041 C 
BRANCH  16  18
HETATM   18  O   UNL     1     -37.492  42.543 -56.056  1.00  0.00    -0.394 OA
HETATM   19  H   UNL     1     -37.676  43.169 -55.320  1.00  0.00     0.210 HD
ENDBRANCH  16  18
ENDBRANCH  15  16
ENDBRANCH  12  15
ENDBRANCH   5  11
BRANCH   1  20
HETATM   20  C   UNL     1     -32.882  39.379 -50.013  1.00  0.00    -0.007 A 
HETATM   21  C   UNL     1     -33.662  38.432 -49.327  1.00  0.00     0.014 A 
HETATM   22  C   UNL     1     -33.346  38.027 -48.024  1.00  0.00     0.007 A 
HETATM   23  C   UNL     1     -32.244  38.570 -47.361  1.00  0.00    -0.062 A 
HETATM   24  C   UNL     1     -31.877  38.128 -45.977  1.00  0.00     0.048 C 
HETATM   25  C   UNL     1     -31.460  39.517 -48.024  1.00  0.00     0.007 A 
HETATM   26  C   UNL     1     -31.779  39.919 -49.325  1.00  0.00     0.014 A 
ENDBRANCH   1  20
TORSDOF 5
ENDMDL
