MODEL 1
REMARK VINA RESULT:      -8.7      0.000      0.000
REMARK  10 active torsions:
REMARK  status: ('A' for Active; 'I' for Inactive)
REMARK    1  A    between atoms: C_3  and  C_4 
REMARK       I    between atoms: C_4  and  N_5 
REMARK    2  A    between atoms: N_5  and  N_6 
REMARK    3  A    between atoms: N_6  and  C_7 
REMARK    4  A    between atoms: C_7  and  C_8 
REMARK    5  A    between atoms: C_8  and  O_9 
REMARK    6  A    between atoms: O_9  and  C_10 
REMARK    7  A    between atoms: C_22  and  O_23 
REMARK    8  A    between atoms: O_23  and  C_24 
REMARK    9  A    between atoms: C_24  and  C_25 
REMARK   10  A    between atoms: N_27  and  C_28 
ROOT
HETATM    1  C   UNL     1     -40.775  57.392 -50.435  1.00  0.00     0.001 A 
HETATM    2  C   UNL     1     -42.090  56.988 -50.668  1.00  0.00     0.020 A 
HETATM    3  C   UNL     1     -42.957  57.844 -51.353  1.00  0.00     0.067 A 
HETATM    4  C   UNL     1     -42.530  59.108 -51.773  1.00  0.00     0.085 A 
HETATM    5  C   UNL     1     -41.208  59.498 -51.555  1.00  0.00     0.038 A 
HETATM    6  C   UNL     1     -40.336  58.641 -50.882  1.00  0.00     0.003 A 
ENDROOT
BRANCH   3   7
HETATM    7  C   UNL     1     -44.350  57.437 -51.590  1.00  0.00     0.272 C 
HETATM    8  N   UNL     1     -44.720  56.903 -52.815  1.00  0.00    -0.264 N 
HETATM    9  H   UNL     1     -45.554  56.318 -52.735  1.00  0.00     0.190 HD
HETATM   10  O   UNL     1     -45.160  57.518 -50.673  1.00  0.00    -0.266 OA
BRANCH   8  11
HETATM   11  N   UNL     1     -43.910  56.710 -53.856  1.00  0.00    -0.285 N 
HETATM   12  H   UNL     1     -43.492  57.533 -54.296  1.00  0.00     0.188 HD
BRANCH  11  13
HETATM   13  C   UNL     1     -43.476  55.524 -54.295  1.00  0.00     0.114 C 
HETATM   14  N   UNL     1     -43.481  55.122 -55.555  1.00  0.00    -0.386 N 
HETATM   15  H   UNL     1     -43.105  54.205 -55.785  1.00  0.00     0.157 HD
HETATM   16  H   UNL     1     -43.815  55.693 -56.325  1.00  0.00     0.157 HD
BRANCH  13  17
HETATM   17  C   UNL     1     -42.990  54.538 -53.265  1.00  0.00     0.253 C 
BRANCH  17  18
HETATM   18  O   UNL     1     -41.559  54.643 -53.159  1.00  0.00    -0.342 OA
BRANCH  18  19
HETATM   19  C   UNL     1     -40.989  53.396 -53.151  1.00  0.00     0.091 A 
HETATM   20  C   UNL     1     -40.260  52.926 -52.049  1.00  0.00     0.069 A 
HETATM   21 CL   UNL     1     -40.089  53.885 -50.624  1.00  0.00    -0.081 Cl
HETATM   22  C   UNL     1     -39.663  51.667 -52.092  1.00  0.00     0.050 A 
HETATM   23  C   UNL     1     -39.780  50.893 -53.245  1.00  0.00     0.035 A 
HETATM   24 CL   UNL     1     -39.047  49.338 -53.308  1.00  0.00    -0.084 Cl
HETATM   25  C   UNL     1     -40.480  51.369 -54.356  1.00  0.00     0.026 A 
HETATM   26  C   UNL     1     -41.080  52.628 -54.313  1.00  0.00     0.040 A 
ENDBRANCH  18  19
ENDBRANCH  17  18
ENDBRANCH  13  17
ENDBRANCH  11  13
ENDBRANCH   8  11
ENDBRANCH   3   7
BRANCH   4  27
HETATM   27  O   UNL     1     -43.376  59.868 -52.537  1.00  0.00    -0.343 OA
BRANCH  27  28
HETATM   28  C   UNL     1     -42.748  60.328 -53.758  1.00  0.00     0.258 C 
BRANCH  28  29
HETATM   29  C   UNL     1     -43.279  59.641 -54.977  1.00  0.00     0.172 A 
HETATM   30  N   UNL     1     -42.510  58.947 -55.832  1.00  0.00    -0.147 NA
HETATM   31  N   UNL     1     -43.413  58.572 -56.783  1.00  0.00    -0.207 N 
HETATM   32  C   UNL     1     -44.658  59.035 -56.444  1.00  0.00     0.239 A 
HETATM   33  N   UNL     1     -44.604  59.705 -55.315  1.00  0.00    -0.223 NA
BRANCH  31  34
HETATM   34  C   UNL     1     -43.072  57.820 -57.938  1.00  0.00     0.153 A 
HETATM   35  N   UNL     1     -43.725  56.649 -58.147  1.00  0.00    -0.217 NA
HETATM   36  C   UNL     1     -43.390  55.957 -59.254  1.00  0.00     0.128 A 
HETATM   37 CL   UNL     1     -44.252  54.491 -59.464  1.00  0.00    -0.062 Cl
HETATM   38  C   UNL     1     -42.433  56.357 -60.169  1.00  0.00     0.044 A 
HETATM   39  C   UNL     1     -41.771  57.558 -59.935  1.00  0.00     0.007 A 
HETATM   40  C   UNL     1     -42.092  58.306 -58.804  1.00  0.00     0.052 A 
ENDBRANCH  31  34
ENDBRANCH  28  29
ENDBRANCH  27  28
ENDBRANCH   4  27
TORSDOF 10
ENDMDL
MODEL 2
REMARK VINA RESULT:      -8.6      0.986      1.439
REMARK  10 active torsions:
REMARK  status: ('A' for Active; 'I' for Inactive)
REMARK    1  A    between atoms: C_3  and  C_4 
REMARK       I    between atoms: C_4  and  N_5 
REMARK    2  A    between atoms: N_5  and  N_6 
REMARK    3  A    between atoms: N_6  and  C_7 
REMARK    4  A    between atoms: C_7  and  C_8 
REMARK    5  A    between atoms: C_8  and  O_9 
REMARK    6  A    between atoms: O_9  and  C_10 
REMARK    7  A    between atoms: C_22  and  O_23 
REMARK    8  A    between atoms: O_23  and  C_24 
REMARK    9  A    between atoms: C_24  and  C_25 
REMARK   10  A    between atoms: N_27  and  C_28 
ROOT
HETATM    1  C   UNL     1     -40.934  57.406 -50.442  1.00  0.00     0.001 A 
HETATM    2  C   UNL     1     -42.234  57.017 -50.766  1.00  0.00     0.020 A 
HETATM    3  C   UNL     1     -43.005  57.835 -51.597  1.00  0.00     0.067 A 
HETATM    4  C   UNL     1     -42.499  59.048 -52.074  1.00  0.00     0.085 A 
HETATM    5  C   UNL     1     -41.192  59.422 -51.764  1.00  0.00     0.038 A 
HETATM    6  C   UNL     1     -40.415  58.603 -50.943  1.00  0.00     0.003 A 
ENDROOT
BRANCH   3   7
HETATM    7  C   UNL     1     -44.383  57.445 -51.932  1.00  0.00     0.272 C 
HETATM    8  N   UNL     1     -44.675  56.933 -53.188  1.00  0.00    -0.264 N 
HETATM    9  H   UNL     1     -45.517  56.354 -53.173  1.00  0.00     0.190 HD
HETATM   10  O   UNL     1     -45.251  57.519 -51.070  1.00  0.00    -0.266 OA
BRANCH   8  11
HETATM   11  N   UNL     1     -43.799  56.748 -54.175  1.00  0.00    -0.285 N 
HETATM   12  H   UNL     1     -43.346  57.574 -54.573  1.00  0.00     0.188 HD
BRANCH  11  13
HETATM   13  C   UNL     1     -43.346  55.565 -54.603  1.00  0.00     0.114 C 
HETATM   14  N   UNL     1     -43.271  55.182 -55.866  1.00  0.00    -0.386 N 
HETATM   15  H   UNL     1     -42.888  54.265 -56.086  1.00  0.00     0.157 HD
HETATM   16  H   UNL     1     -43.549  55.768 -56.648  1.00  0.00     0.157 HD
BRANCH  13  17
HETATM   17  C   UNL     1     -42.937  54.559 -53.559  1.00  0.00     0.253 C 
BRANCH  17  18
HETATM   18  O   UNL     1     -41.516  54.651 -53.355  1.00  0.00    -0.342 OA
BRANCH  18  19
HETATM   19  C   UNL     1     -40.966  53.399 -53.259  1.00  0.00     0.091 A 
HETATM   20  C   UNL     1     -40.309  52.970 -52.096  1.00  0.00     0.069 A 
HETATM   21 CL   UNL     1     -40.207  53.990 -50.707  1.00  0.00    -0.081 Cl
HETATM   22  C   UNL     1     -39.730  51.703 -52.049  1.00  0.00     0.050 A 
HETATM   23  C   UNL     1     -39.791  50.879 -53.172  1.00  0.00     0.035 A 
HETATM   24 CL   UNL     1     -39.079  49.315 -53.123  1.00  0.00    -0.084 Cl
HETATM   25  C   UNL     1     -40.419  51.314 -54.342  1.00  0.00     0.026 A 
HETATM   26  C   UNL     1     -41.001  52.581 -54.390  1.00  0.00     0.040 A 
ENDBRANCH  18  19
ENDBRANCH  17  18
ENDBRANCH  13  17
ENDBRANCH  11  13
ENDBRANCH   8  11
ENDBRANCH   3   7
BRANCH   4  27
HETATM   27  O   UNL     1     -43.246  59.763 -52.974  1.00  0.00    -0.343 OA
BRANCH  27  28
HETATM   28  C   UNL     1     -42.422  60.428 -53.963  1.00  0.00     0.258 C 
BRANCH  28  29
HETATM   29  C   UNL     1     -42.641  59.902 -55.347  1.00  0.00     0.172 A 
HETATM   30  N   UNL     1     -43.742  59.229 -55.721  1.00  0.00    -0.147 NA
HETATM   31  N   UNL     1     -43.455  58.916 -57.017  1.00  0.00    -0.207 N 
HETATM   32  C   UNL     1     -42.229  59.428 -57.354  1.00  0.00     0.239 A 
HETATM   33  N   UNL     1     -41.697  60.052 -56.327  1.00  0.00    -0.223 NA
BRANCH  31  34
HETATM   34  C   UNL     1     -44.324  58.170 -57.855  1.00  0.00     0.153 A 
HETATM   35  N   UNL     1     -43.835  57.041 -58.430  1.00  0.00    -0.217 NA
HETATM   36  C   UNL     1     -44.681  56.345 -59.215  1.00  0.00     0.128 A 
HETATM   37 CL   UNL     1     -44.008  54.930 -59.906  1.00  0.00    -0.062 Cl
HETATM   38  C   UNL     1     -45.991  56.708 -59.471  1.00  0.00     0.044 A 
HETATM   39  C   UNL     1     -46.473  57.870 -58.876  1.00  0.00     0.007 A 
HETATM   40  C   UNL     1     -45.631  58.616 -58.053  1.00  0.00     0.052 A 
ENDBRANCH  31  34
ENDBRANCH  28  29
ENDBRANCH  27  28
ENDBRANCH   4  27
TORSDOF 10
ENDMDL
MODEL 3
REMARK VINA RESULT:      -8.4      1.903      2.472
REMARK  10 active torsions:
REMARK  status: ('A' for Active; 'I' for Inactive)
REMARK    1  A    between atoms: C_3  and  C_4 
REMARK       I    between atoms: C_4  and  N_5 
REMARK    2  A    between atoms: N_5  and  N_6 
REMARK    3  A    between atoms: N_6  and  C_7 
REMARK    4  A    between atoms: C_7  and  C_8 
REMARK    5  A    between atoms: C_8  and  O_9 
REMARK    6  A    between atoms: O_9  and  C_10 
REMARK    7  A    between atoms: C_22  and  O_23 
REMARK    8  A    between atoms: O_23  and  C_24 
REMARK    9  A    between atoms: C_24  and  C_25 
REMARK   10  A    between atoms: N_27  and  C_28 
ROOT
HETATM    1  C   UNL     1     -39.846  59.512 -50.315  1.00  0.00     0.001 A 
HETATM    2  C   UNL     1     -41.234  59.628 -50.236  1.00  0.00     0.020 A 
HETATM    3  C   UNL     1     -42.007  59.378 -51.375  1.00  0.00     0.067 A 
HETATM    4  C   UNL     1     -41.401  59.051 -52.592  1.00  0.00     0.085 A 
HETATM    5  C   UNL     1     -40.014  58.916 -52.659  1.00  0.00     0.038 A 
HETATM    6  C   UNL     1     -39.240  59.154 -51.522  1.00  0.00     0.003 A 
ENDROOT
BRANCH   3   7
HETATM    7  C   UNL     1     -43.470  59.514 -51.309  1.00  0.00     0.272 C 
HETATM    8  N   UNL     1     -44.255  58.419 -50.983  1.00  0.00    -0.264 N 
HETATM    9  H   UNL     1     -45.155  58.704 -50.591  1.00  0.00     0.190 HD
HETATM   10  O   UNL     1     -43.976  60.617 -51.484  1.00  0.00    -0.266 OA
BRANCH   8  11
HETATM   11  N   UNL     1     -43.807  57.194 -50.709  1.00  0.00    -0.285 N 
HETATM   12  H   UNL     1     -43.843  56.878 -49.737  1.00  0.00     0.188 HD
BRANCH  11  13
HETATM   13  C   UNL     1     -43.444  56.277 -51.613  1.00  0.00     0.114 C 
HETATM   14  N   UNL     1     -43.978  56.128 -52.813  1.00  0.00    -0.386 N 
HETATM   15  H   UNL     1     -43.611  55.411 -53.435  1.00  0.00     0.157 HD
HETATM   16  H   UNL     1     -44.725  56.715 -53.172  1.00  0.00     0.157 HD
BRANCH  13  17
HETATM   17  C   UNL     1     -42.375  55.294 -51.213  1.00  0.00     0.253 C 
BRANCH  17  18
HETATM   18  O   UNL     1     -41.203  55.530 -52.014  1.00  0.00    -0.342 OA
BRANCH  18  19
HETATM   19  C   UNL     1     -40.765  54.358 -52.575  1.00  0.00     0.091 A 
HETATM   20  C   UNL     1     -40.725  54.177 -53.966  1.00  0.00     0.069 A 
HETATM   21 CL   UNL     1     -41.184  55.448 -55.040  1.00  0.00    -0.081 Cl
HETATM   22  C   UNL     1     -40.309  52.959 -54.499  1.00  0.00     0.050 A 
HETATM   23  C   UNL     1     -39.955  51.920 -53.639  1.00  0.00     0.035 A 
HETATM   24 CL   UNL     1     -39.440  50.413 -54.288  1.00  0.00    -0.084 Cl
HETATM   25  C   UNL     1     -40.021  52.086 -52.254  1.00  0.00     0.026 A 
HETATM   26  C   UNL     1     -40.435  53.307 -51.719  1.00  0.00     0.040 A 
ENDBRANCH  18  19
ENDBRANCH  17  18
ENDBRANCH  13  17
ENDBRANCH  11  13
ENDBRANCH   8  11
ENDBRANCH   3   7
BRANCH   4  27
HETATM   27  O   UNL     1     -42.199  58.706 -53.651  1.00  0.00    -0.343 OA
BRANCH  27  28
HETATM   28  C   UNL     1     -42.221  59.730 -54.676  1.00  0.00     0.258 C 
BRANCH  28  29
HETATM   29  C   UNL     1     -42.417  59.169 -56.050  1.00  0.00     0.172 A 
HETATM   30  N   UNL     1     -43.319  58.218 -56.343  1.00  0.00    -0.147 NA
HETATM   31  N   UNL     1     -43.083  58.003 -57.668  1.00  0.00    -0.207 N 
HETATM   32  C   UNL     1     -42.084  58.837 -58.100  1.00  0.00     0.239 A 
HETATM   33  N   UNL     1     -41.650  59.580 -57.107  1.00  0.00    -0.223 NA
BRANCH  31  34
HETATM   34  C   UNL     1     -43.788  57.048 -58.447  1.00  0.00     0.153 A 
HETATM   35  N   UNL     1     -44.958  57.432 -59.016  1.00  0.00    -0.217 NA
HETATM   36  C   UNL     1     -45.604  56.509 -59.758  1.00  0.00     0.128 A 
HETATM   37 CL   UNL     1     -47.071  57.056 -60.453  1.00  0.00    -0.062 Cl
HETATM   38  C   UNL     1     -45.157  55.217 -59.964  1.00  0.00     0.044 A 
HETATM   39  C   UNL     1     -43.957  54.840 -59.369  1.00  0.00     0.007 A 
HETATM   40  C   UNL     1     -43.256  55.766 -58.598  1.00  0.00     0.052 A 
ENDBRANCH  31  34
ENDBRANCH  28  29
ENDBRANCH  27  28
ENDBRANCH   4  27
TORSDOF 10
ENDMDL
MODEL 4
REMARK VINA RESULT:      -8.3      2.723      6.346
REMARK  10 active torsions:
REMARK  status: ('A' for Active; 'I' for Inactive)
REMARK    1  A    between atoms: C_3  and  C_4 
REMARK       I    between atoms: C_4  and  N_5 
REMARK    2  A    between atoms: N_5  and  N_6 
REMARK    3  A    between atoms: N_6  and  C_7 
REMARK    4  A    between atoms: C_7  and  C_8 
REMARK    5  A    between atoms: C_8  and  O_9 
REMARK    6  A    between atoms: O_9  and  C_10 
REMARK    7  A    between atoms: C_22  and  O_23 
REMARK    8  A    between atoms: O_23  and  C_24 
REMARK    9  A    between atoms: C_24  and  C_25 
REMARK   10  A    between atoms: N_27  and  C_28 
ROOT
HETATM    1  C   UNL     1     -46.380  55.804 -60.468  1.00  0.00     0.001 A 
HETATM    2  C   UNL     1     -45.033  55.540 -60.220  1.00  0.00     0.020 A 
HETATM    3  C   UNL     1     -44.323  56.371 -59.349  1.00  0.00     0.067 A 
HETATM    4  C   UNL     1     -44.938  57.478 -58.755  1.00  0.00     0.085 A 
HETATM    5  C   UNL     1     -46.291  57.724 -58.991  1.00  0.00     0.038 A 
HETATM    6  C   UNL     1     -47.006  56.891 -59.852  1.00  0.00     0.003 A 
ENDROOT
BRANCH   3   7
HETATM    7  C   UNL     1     -42.897  56.114 -59.093  1.00  0.00     0.272 C 
HETATM    8  N   UNL     1     -42.478  55.719 -57.831  1.00  0.00    -0.264 N 
HETATM    9  H   UNL     1     -41.594  55.207 -57.870  1.00  0.00     0.190 HD
HETATM   10  O   UNL     1     -42.100  56.192 -60.021  1.00  0.00    -0.266 OA
BRANCH   8  11
HETATM   11  N   UNL     1     -43.265  55.539 -56.770  1.00  0.00    -0.285 N 
HETATM   12  H   UNL     1     -44.232  55.868 -56.831  1.00  0.00     0.188 HD
BRANCH  11  13
HETATM   13  C   UNL     1     -42.950  54.836 -55.677  1.00  0.00     0.114 C 
HETATM   14  N   UNL     1     -43.806  54.414 -54.762  1.00  0.00    -0.386 N 
HETATM   15  H   UNL     1     -43.464  53.865 -53.977  1.00  0.00     0.157 HD
HETATM   16  H   UNL     1     -44.807  54.581 -54.810  1.00  0.00     0.157 HD
BRANCH  13  17
HETATM   17  C   UNL     1     -41.492  54.545 -55.435  1.00  0.00     0.253 C 
BRANCH  17  18
HETATM   18  O   UNL     1     -41.175  54.865 -54.069  1.00  0.00    -0.342 OA
BRANCH  18  19
HETATM   19  C   UNL     1     -40.740  53.747 -53.405  1.00  0.00     0.091 A 
HETATM   20  C   UNL     1     -40.594  53.728 -52.011  1.00  0.00     0.069 A 
HETATM   21 CL   UNL     1     -41.002  55.107 -51.057  1.00  0.00    -0.081 Cl
HETATM   22  C   UNL     1     -40.114  52.584 -51.375  1.00  0.00     0.050 A 
HETATM   23  C   UNL     1     -39.764  51.471 -52.139  1.00  0.00     0.035 A 
HETATM   24 CL   UNL     1     -39.172  50.055 -51.363  1.00  0.00    -0.084 Cl
HETATM   25  C   UNL     1     -39.881  51.496 -53.530  1.00  0.00     0.026 A 
HETATM   26  C   UNL     1     -40.363  52.640 -54.168  1.00  0.00     0.040 A 
ENDBRANCH  18  19
ENDBRANCH  17  18
ENDBRANCH  13  17
ENDBRANCH  11  13
ENDBRANCH   8  11
ENDBRANCH   3   7
BRANCH   4  27
HETATM   27  O   UNL     1     -44.238  58.198 -57.823  1.00  0.00    -0.343 OA
BRANCH  27  28
HETATM   28  C   UNL     1     -45.110  58.853 -56.869  1.00  0.00     0.258 C 
BRANCH  28  29
HETATM   29  C   UNL     1     -44.704  58.605 -55.450  1.00  0.00     0.172 A 
HETATM   30  N   UNL     1     -43.912  59.434 -54.749  1.00  0.00    -0.147 NA
HETATM   31  N   UNL     1     -43.785  58.769 -53.565  1.00  0.00    -0.207 N 
HETATM   32  C   UNL     1     -44.512  57.607 -53.609  1.00  0.00     0.239 A 
HETATM   33  N   UNL     1     -45.100  57.481 -54.777  1.00  0.00    -0.223 NA
BRANCH  31  34
HETATM   34  C   UNL     1     -43.005  59.242 -52.477  1.00  0.00     0.153 A 
HETATM   35  N   UNL     1     -43.304  60.463 -51.967  1.00  0.00    -0.217 NA
HETATM   36  C   UNL     1     -42.555  60.887 -50.929  1.00  0.00     0.128 A 
HETATM   37 CL   UNL     1     -42.984  62.432 -50.327  1.00  0.00    -0.062 Cl
HETATM   38  C   UNL     1     -41.515  60.168 -50.368  1.00  0.00     0.044 A 
HETATM   39  C   UNL     1     -41.221  58.920 -50.908  1.00  0.00     0.007 A 
HETATM   40  C   UNL     1     -41.975  58.443 -51.979  1.00  0.00     0.052 A 
ENDBRANCH  31  34
ENDBRANCH  28  29
ENDBRANCH  27  28
ENDBRANCH   4  27
TORSDOF 10
ENDMDL
MODEL 5
REMARK VINA RESULT:      -8.2      1.954      2.821
REMARK  10 active torsions:
REMARK  status: ('A' for Active; 'I' for Inactive)
REMARK    1  A    between atoms: C_3  and  C_4 
REMARK       I    between atoms: C_4  and  N_5 
REMARK    2  A    between atoms: N_5  and  N_6 
REMARK    3  A    between atoms: N_6  and  C_7 
REMARK    4  A    between atoms: C_7  and  C_8 
REMARK    5  A    between atoms: C_8  and  O_9 
REMARK    6  A    between atoms: O_9  and  C_10 
REMARK    7  A    between atoms: C_22  and  O_23 
REMARK    8  A    between atoms: O_23  and  C_24 
REMARK    9  A    between atoms: C_24  and  C_25 
REMARK   10  A    between atoms: N_27  and  C_28 
ROOT
HETATM    1  C   UNL     1     -43.015  61.187 -50.836  1.00  0.00     0.001 A 
HETATM    2  C   UNL     1     -42.103  60.180 -51.152  1.00  0.00     0.020 A 
HETATM    3  C   UNL     1     -41.802  59.928 -52.494  1.00  0.00     0.067 A 
HETATM    4  C   UNL     1     -42.429  60.649 -53.515  1.00  0.00     0.085 A 
HETATM    5  C   UNL     1     -43.324  61.668 -53.191  1.00  0.00     0.038 A 
HETATM    6  C   UNL     1     -43.619  61.930 -51.852  1.00  0.00     0.003 A 
ENDROOT
BRANCH   3   7
HETATM    7  C   UNL     1     -40.855  58.857 -52.842  1.00  0.00     0.272 C 
HETATM    8  N   UNL     1     -41.298  57.548 -52.955  1.00  0.00    -0.264 N 
HETATM    9  H   UNL     1     -40.688  56.994 -53.559  1.00  0.00     0.190 HD
HETATM   10  O   UNL     1     -39.690  59.147 -53.091  1.00  0.00    -0.266 OA
BRANCH   8  11
HETATM   11  N   UNL     1     -42.551  57.132 -52.772  1.00  0.00    -0.285 N 
HETATM   12  H   UNL     1     -43.218  57.274 -53.534  1.00  0.00     0.188 HD
BRANCH  11  13
HETATM   13  C   UNL     1     -42.989  56.412 -51.733  1.00  0.00     0.114 C 
HETATM   14  N   UNL     1     -43.773  56.856 -50.766  1.00  0.00    -0.386 N 
HETATM   15  H   UNL     1     -44.068  56.217 -50.031  1.00  0.00     0.157 HD
HETATM   16  H   UNL     1     -44.131  57.806 -50.726  1.00  0.00     0.157 HD
BRANCH  13  17
HETATM   17  C   UNL     1     -42.507  54.989 -51.623  1.00  0.00     0.253 C 
BRANCH  17  18
HETATM   18  O   UNL     1     -41.083  54.963 -51.827  1.00  0.00    -0.342 OA
BRANCH  18  19
HETATM   19  C   UNL     1     -40.702  53.767 -52.379  1.00  0.00     0.091 A 
HETATM   20  C   UNL     1     -40.240  52.705 -51.589  1.00  0.00     0.069 A 
HETATM   21 CL   UNL     1     -40.175  52.841 -49.869  1.00  0.00    -0.081 Cl
HETATM   22  C   UNL     1     -39.827  51.516 -52.189  1.00  0.00     0.050 A 
HETATM   23  C   UNL     1     -39.858  51.404 -53.578  1.00  0.00     0.035 A 
HETATM   24 CL   UNL     1     -39.350  49.941 -54.327  1.00  0.00    -0.084 Cl
HETATM   25  C   UNL     1     -40.290  52.469 -54.371  1.00  0.00     0.026 A 
HETATM   26  C   UNL     1     -40.707  53.659 -53.771  1.00  0.00     0.040 A 
ENDBRANCH  18  19
ENDBRANCH  17  18
ENDBRANCH  13  17
ENDBRANCH  11  13
ENDBRANCH   8  11
ENDBRANCH   3   7
BRANCH   4  27
HETATM   27  O   UNL     1     -42.022  60.447 -54.808  1.00  0.00    -0.343 OA
BRANCH  27  28
HETATM   28  C   UNL     1     -43.138  60.394 -55.731  1.00  0.00     0.258 C 
BRANCH  28  29
HETATM   29  C   UNL     1     -43.382  59.018 -56.266  1.00  0.00     0.172 A 
HETATM   30  N   UNL     1     -43.773  58.770 -57.527  1.00  0.00    -0.147 NA
HETATM   31  N   UNL     1     -43.915  57.414 -57.517  1.00  0.00    -0.207 N 
HETATM   32  C   UNL     1     -43.587  56.925 -56.279  1.00  0.00     0.239 A 
HETATM   33  N   UNL     1     -43.247  57.908 -55.476  1.00  0.00    -0.223 NA
BRANCH  31  34
HETATM   34  C   UNL     1     -44.344  56.660 -58.641  1.00  0.00     0.153 A 
HETATM   35  N   UNL     1     -45.545  56.971 -59.192  1.00  0.00    -0.217 NA
HETATM   36  C   UNL     1     -45.926  56.247 -60.263  1.00  0.00     0.128 A 
HETATM   37 CL   UNL     1     -47.447  56.690 -60.915  1.00  0.00    -0.062 Cl
HETATM   38  C   UNL     1     -45.185  55.221 -60.821  1.00  0.00     0.044 A 
HETATM   39  C   UNL     1     -43.958  54.915 -60.240  1.00  0.00     0.007 A 
HETATM   40  C   UNL     1     -43.525  55.643 -59.133  1.00  0.00     0.052 A 
ENDBRANCH  31  34
ENDBRANCH  28  29
ENDBRANCH  27  28
ENDBRANCH   4  27
TORSDOF 10
ENDMDL
MODEL 6
REMARK VINA RESULT:      -8.2      2.383      3.249
REMARK  10 active torsions:
REMARK  status: ('A' for Active; 'I' for Inactive)
REMARK    1  A    between atoms: C_3  and  C_4 
REMARK       I    between atoms: C_4  and  N_5 
REMARK    2  A    between atoms: N_5  and  N_6 
REMARK    3  A    between atoms: N_6  and  C_7 
REMARK    4  A    between atoms: C_7  and  C_8 
REMARK    5  A    between atoms: C_8  and  O_9 
REMARK    6  A    between atoms: O_9  and  C_10 
REMARK    7  A    between atoms: C_22  and  O_23 
REMARK    8  A    between atoms: O_23  and  C_24 
REMARK    9  A    between atoms: C_24  and  C_25 
REMARK   10  A    between atoms: N_27  and  C_28 
ROOT
HETATM    1  C   UNL     1     -43.552  61.297 -49.980  1.00  0.00     0.001 A 
HETATM    2  C   UNL     1     -42.344  60.707 -50.350  1.00  0.00     0.020 A 
HETATM    3  C   UNL     1     -42.359  59.481 -51.023  1.00  0.00     0.067 A 
HETATM    4  C   UNL     1     -43.566  58.829 -51.293  1.00  0.00     0.085 A 
HETATM    5  C   UNL     1     -44.772  59.434 -50.938  1.00  0.00     0.038 A 
HETATM    6  C   UNL     1     -44.762  60.663 -50.277  1.00  0.00     0.003 A 
ENDROOT
BRANCH   3   7
HETATM    7  C   UNL     1     -41.091  58.841 -51.403  1.00  0.00     0.272 C 
HETATM    8  N   UNL     1     -40.717  57.639 -50.821  1.00  0.00    -0.264 N 
HETATM    9  H   UNL     1     -40.070  57.117 -51.416  1.00  0.00     0.190 HD
HETATM   10  O   UNL     1     -40.405  59.350 -52.283  1.00  0.00    -0.266 OA
BRANCH   8  11
HETATM   11  N   UNL     1     -41.416  56.967 -49.907  1.00  0.00    -0.285 N 
HETATM   12  H   UNL     1     -42.073  57.493 -49.326  1.00  0.00     0.188 HD
BRANCH  11  13
HETATM   13  C   UNL     1     -41.445  55.636 -49.771  1.00  0.00     0.114 C 
HETATM   14  N   UNL     1     -41.061  54.965 -48.699  1.00  0.00    -0.386 N 
HETATM   15  H   UNL     1     -41.146  53.951 -48.691  1.00  0.00     0.157 HD
HETATM   16  H   UNL     1     -40.708  55.408 -47.856  1.00  0.00     0.157 HD
BRANCH  13  17
HETATM   17  C   UNL     1     -41.902  54.828 -50.957  1.00  0.00     0.253 C 
BRANCH  17  18
HETATM   18  O   UNL     1     -41.021  55.088 -52.065  1.00  0.00    -0.342 OA
BRANCH  18  19
HETATM   19  C   UNL     1     -40.595  53.910 -52.622  1.00  0.00     0.091 A 
HETATM   20  C   UNL     1     -40.601  53.707 -54.010  1.00  0.00     0.069 A 
HETATM   21 CL   UNL     1     -41.105  54.957 -55.087  1.00  0.00    -0.081 Cl
HETATM   22  C   UNL     1     -40.194  52.482 -54.538  1.00  0.00     0.050 A 
HETATM   23  C   UNL     1     -39.804  51.460 -53.674  1.00  0.00     0.035 A 
HETATM   24 CL   UNL     1     -39.300  49.946 -54.317  1.00  0.00    -0.084 Cl
HETATM   25  C   UNL     1     -39.823  51.649 -52.290  1.00  0.00     0.026 A 
HETATM   26  C   UNL     1     -40.228  52.875 -51.761  1.00  0.00     0.040 A 
ENDBRANCH  18  19
ENDBRANCH  17  18
ENDBRANCH  13  17
ENDBRANCH  11  13
ENDBRANCH   8  11
ENDBRANCH   3   7
BRANCH   4  27
HETATM   27  O   UNL     1     -43.541  57.688 -52.051  1.00  0.00    -0.343 OA
BRANCH  27  28
HETATM   28  C   UNL     1     -44.499  57.730 -53.137  1.00  0.00     0.258 C 
BRANCH  28  29
HETATM   29  C   UNL     1     -43.870  58.080 -54.450  1.00  0.00     0.172 A 
HETATM   30  N   UNL     1     -43.928  57.290 -55.535  1.00  0.00    -0.147 NA
HETATM   31  N   UNL     1     -43.181  57.991 -56.434  1.00  0.00    -0.207 N 
HETATM   32  C   UNL     1     -42.739  59.155 -55.859  1.00  0.00     0.239 A 
HETATM   33  N   UNL     1     -43.158  59.237 -54.616  1.00  0.00    -0.223 NA
BRANCH  31  34
HETATM   34  C   UNL     1     -42.921  57.545 -57.757  1.00  0.00     0.153 A 
HETATM   35  N   UNL     1     -42.506  58.464 -58.665  1.00  0.00    -0.217 NA
HETATM   36  C   UNL     1     -42.258  58.015 -59.912  1.00  0.00     0.128 A 
HETATM   37 CL   UNL     1     -41.734  59.220 -61.010  1.00  0.00    -0.062 Cl
HETATM   38  C   UNL     1     -42.404  56.699 -60.315  1.00  0.00     0.044 A 
HETATM   39  C   UNL     1     -42.833  55.773 -59.370  1.00  0.00     0.007 A 
HETATM   40  C   UNL     1     -43.097  56.197 -58.068  1.00  0.00     0.052 A 
ENDBRANCH  31  34
ENDBRANCH  28  29
ENDBRANCH  27  28
ENDBRANCH   4  27
TORSDOF 10
ENDMDL
MODEL 7
REMARK VINA RESULT:      -8.0      1.996      2.855
REMARK  10 active torsions:
REMARK  status: ('A' for Active; 'I' for Inactive)
REMARK    1  A    between atoms: C_3  and  C_4 
REMARK       I    between atoms: C_4  and  N_5 
REMARK    2  A    between atoms: N_5  and  N_6 
REMARK    3  A    between atoms: N_6  and  C_7 
REMARK    4  A    between atoms: C_7  and  C_8 
REMARK    5  A    between atoms: C_8  and  O_9 
REMARK    6  A    between atoms: O_9  and  C_10 
REMARK    7  A    between atoms: C_22  and  O_23 
REMARK    8  A    between atoms: O_23  and  C_24 
REMARK    9  A    between atoms: C_24  and  C_25 
REMARK   10  A    between atoms: N_27  and  C_28 
ROOT
HETATM    1  C   UNL     1     -42.441  58.045 -50.734  1.00  0.00     0.001 A 
HETATM    2  C   UNL     1     -43.540  57.888 -51.578  1.00  0.00     0.020 A 
HETATM    3  C   UNL     1     -43.338  57.838 -52.961  1.00  0.00     0.067 A 
HETATM    4  C   UNL     1     -42.057  57.980 -53.502  1.00  0.00     0.085 A 
HETATM    5  C   UNL     1     -40.959  58.117 -52.651  1.00  0.00     0.038 A 
HETATM    6  C   UNL     1     -41.155  58.155 -51.270  1.00  0.00     0.003 A 
ENDROOT
BRANCH   3   7
HETATM    7  C   UNL     1     -44.491  57.690 -53.863  1.00  0.00     0.272 C 
HETATM    8  N   UNL     1     -44.782  56.454 -54.421  1.00  0.00    -0.264 N 
HETATM    9  H   UNL     1     -45.767  56.381 -54.681  1.00  0.00     0.190 HD
HETATM   10  O   UNL     1     -45.221  58.654 -54.063  1.00  0.00    -0.266 OA
BRANCH   8  11
HETATM   11  N   UNL     1     -44.096  55.329 -54.221  1.00  0.00    -0.285 N 
HETATM   12  H   UNL     1     -44.323  54.772 -53.393  1.00  0.00     0.188 HD
BRANCH  11  13
HETATM   13  C   UNL     1     -43.230  54.781 -55.080  1.00  0.00     0.114 C 
HETATM   14  N   UNL     1     -43.484  54.486 -56.343  1.00  0.00    -0.386 N 
HETATM   15  H   UNL     1     -42.744  54.090 -56.920  1.00  0.00     0.157 HD
HETATM   16  H   UNL     1     -44.378  54.660 -56.792  1.00  0.00     0.157 HD
BRANCH  13  17
HETATM   17  C   UNL     1     -41.867  54.416 -54.553  1.00  0.00     0.253 C 
BRANCH  17  18
HETATM   18  O   UNL     1     -41.976  53.214 -53.771  1.00  0.00    -0.342 OA
BRANCH  18  19
HETATM   19  C   UNL     1     -41.504  53.426 -52.501  1.00  0.00     0.091 A 
HETATM   20  C   UNL     1     -40.355  52.779 -52.025  1.00  0.00     0.069 A 
HETATM   21 CL   UNL     1     -39.451  51.715 -53.040  1.00  0.00    -0.081 Cl
HETATM   22  C   UNL     1     -39.925  52.992 -50.716  1.00  0.00     0.050 A 
HETATM   23  C   UNL     1     -40.660  53.835 -49.883  1.00  0.00     0.035 A 
HETATM   24 CL   UNL     1     -40.138  54.103 -48.266  1.00  0.00    -0.084 Cl
HETATM   25  C   UNL     1     -41.821  54.459 -50.344  1.00  0.00     0.026 A 
HETATM   26  C   UNL     1     -42.250  54.248 -51.655  1.00  0.00     0.040 A 
ENDBRANCH  18  19
ENDBRANCH  17  18
ENDBRANCH  13  17
ENDBRANCH  11  13
ENDBRANCH   8  11
ENDBRANCH   3   7
BRANCH   4  27
HETATM   27  O   UNL     1     -41.891  57.814 -54.852  1.00  0.00    -0.343 OA
BRANCH  27  28
HETATM   28  C   UNL     1     -42.123  59.041 -55.587  1.00  0.00     0.258 C 
BRANCH  28  29
HETATM   29  C   UNL     1     -42.941  58.829 -56.823  1.00  0.00     0.172 A 
HETATM   30  N   UNL     1     -43.294  57.616 -57.281  1.00  0.00    -0.147 NA
HETATM   31  N   UNL     1     -43.960  57.931 -58.428  1.00  0.00    -0.207 N 
HETATM   32  C   UNL     1     -43.991  59.292 -58.585  1.00  0.00     0.239 A 
HETATM   33  N   UNL     1     -43.362  59.880 -57.592  1.00  0.00    -0.223 NA
BRANCH  31  34
HETATM   34  C   UNL     1     -44.519  56.962 -59.303  1.00  0.00     0.153 A 
HETATM   35  N   UNL     1     -45.742  57.219 -59.833  1.00  0.00    -0.217 NA
HETATM   36  C   UNL     1     -46.249  56.288 -60.666  1.00  0.00     0.128 A 
HETATM   37 CL   UNL     1     -47.791  56.670 -61.306  1.00  0.00    -0.062 Cl
HETATM   38  C   UNL     1     -45.612  55.106 -61.003  1.00  0.00     0.044 A 
HETATM   39  C   UNL     1     -44.361  54.860 -60.446  1.00  0.00     0.007 A 
HETATM   40  C   UNL     1     -43.800  55.800 -59.582  1.00  0.00     0.052 A 
ENDBRANCH  31  34
ENDBRANCH  28  29
ENDBRANCH  27  28
ENDBRANCH   4  27
TORSDOF 10
ENDMDL
MODEL 8
REMARK VINA RESULT:      -7.8      2.627      7.280
REMARK  10 active torsions:
REMARK  status: ('A' for Active; 'I' for Inactive)
REMARK    1  A    between atoms: C_3  and  C_4 
REMARK       I    between atoms: C_4  and  N_5 
REMARK    2  A    between atoms: N_5  and  N_6 
REMARK    3  A    between atoms: N_6  and  C_7 
REMARK    4  A    between atoms: C_7  and  C_8 
REMARK    5  A    between atoms: C_8  and  O_9 
REMARK    6  A    between atoms: O_9  and  C_10 
REMARK    7  A    between atoms: C_22  and  O_23 
REMARK    8  A    between atoms: O_23  and  C_24 
REMARK    9  A    between atoms: C_24  and  C_25 
REMARK   10  A    between atoms: N_27  and  C_28 
ROOT
HETATM    1  C   UNL     1     -45.635  60.489 -53.056  1.00  0.00     0.001 A 
HETATM    2  C   UNL     1     -44.439  60.266 -53.739  1.00  0.00     0.020 A 
HETATM    3  C   UNL     1     -43.428  59.522 -53.123  1.00  0.00     0.067 A 
HETATM    4  C   UNL     1     -43.591  59.034 -51.823  1.00  0.00     0.085 A 
HETATM    5  C   UNL     1     -44.796  59.242 -51.153  1.00  0.00     0.038 A 
HETATM    6  C   UNL     1     -45.812  59.975 -51.769  1.00  0.00     0.003 A 
ENDROOT
BRANCH   3   7
HETATM    7  C   UNL     1     -42.156  59.296 -53.827  1.00  0.00     0.272 C 
HETATM    8  N   UNL     1     -41.852  58.037 -54.325  1.00  0.00    -0.264 N 
HETATM    9  H   UNL     1     -41.183  58.088 -55.095  1.00  0.00     0.190 HD
HETATM   10  O   UNL     1     -41.402  60.243 -54.019  1.00  0.00    -0.266 OA
BRANCH   8  11
HETATM   11  N   UNL     1     -42.625  56.956 -54.230  1.00  0.00    -0.285 N 
HETATM   12  H   UNL     1     -42.401  56.270 -53.504  1.00  0.00     0.188 HD
BRANCH  11  13
HETATM   13  C   UNL     1     -43.760  56.747 -54.906  1.00  0.00     0.114 C 
HETATM   14  N   UNL     1     -44.807  56.073 -54.462  1.00  0.00    -0.386 N 
HETATM   15  H   UNL     1     -45.633  55.993 -55.050  1.00  0.00     0.157 HD
HETATM   16  H   UNL     1     -44.851  55.649 -53.540  1.00  0.00     0.157 HD
BRANCH  13  17
HETATM   17  C   UNL     1     -43.836  57.277 -56.315  1.00  0.00     0.253 C 
BRANCH  17  18
HETATM   18  O   UNL     1     -42.587  57.013 -56.978  1.00  0.00    -0.342 OA
BRANCH  18  19
HETATM   19  C   UNL     1     -42.424  57.862 -58.043  1.00  0.00     0.091 A 
HETATM   20  C   UNL     1     -42.486  57.403 -59.367  1.00  0.00     0.069 A 
HETATM   21 CL   UNL     1     -42.819  55.746 -59.717  1.00  0.00    -0.081 Cl
HETATM   22  C   UNL     1     -42.279  58.289 -60.423  1.00  0.00     0.050 A 
HETATM   23  C   UNL     1     -41.991  59.626 -60.150  1.00  0.00     0.035 A 
HETATM   24 CL   UNL     1     -41.735  60.726 -61.446  1.00  0.00    -0.084 Cl
HETATM   25  C   UNL     1     -41.900  60.081 -58.832  1.00  0.00     0.026 A 
HETATM   26  C   UNL     1     -42.109  59.195 -57.774  1.00  0.00     0.040 A 
ENDBRANCH  18  19
ENDBRANCH  17  18
ENDBRANCH  13  17
ENDBRANCH  11  13
ENDBRANCH   8  11
ENDBRANCH   3   7
BRANCH   4  27
HETATM   27  O   UNL     1     -42.621  58.218 -51.302  1.00  0.00    -0.343 OA
BRANCH  27  28
HETATM   28  C   UNL     1     -43.164  56.967 -50.811  1.00  0.00     0.258 C 
BRANCH  28  29
HETATM   29  C   UNL     1     -42.150  55.866 -50.788  1.00  0.00     0.172 A 
HETATM   30  N   UNL     1     -41.996  54.978 -51.784  1.00  0.00    -0.147 NA
HETATM   31  N   UNL     1     -41.021  54.163 -51.287  1.00  0.00    -0.207 N 
HETATM   32  C   UNL     1     -40.633  54.610 -50.051  1.00  0.00     0.239 A 
HETATM   33  N   UNL     1     -41.323  55.677 -49.714  1.00  0.00    -0.223 NA
BRANCH  31  34
HETATM   34  C   UNL     1     -40.515  53.032 -51.979  1.00  0.00     0.153 A 
HETATM   35  N   UNL     1     -40.085  51.978 -51.240  1.00  0.00    -0.217 NA
HETATM   36  C   UNL     1     -39.617  50.912 -51.920  1.00  0.00     0.128 A 
HETATM   37 CL   UNL     1     -39.094  49.613 -50.932  1.00  0.00    -0.062 Cl
HETATM   38  C   UNL     1     -39.543  50.831 -53.299  1.00  0.00     0.044 A 
HETATM   39  C   UNL     1     -39.985  51.923 -54.038  1.00  0.00     0.007 A 
HETATM   40  C   UNL     1     -40.481  53.044 -53.373  1.00  0.00     0.052 A 
ENDBRANCH  31  34
ENDBRANCH  28  29
ENDBRANCH  27  28
ENDBRANCH   4  27
TORSDOF 10
ENDMDL
MODEL 9
REMARK VINA RESULT:      -7.6      2.610      6.954
REMARK  10 active torsions:
REMARK  status: ('A' for Active; 'I' for Inactive)
REMARK    1  A    between atoms: C_3  and  C_4 
REMARK       I    between atoms: C_4  and  N_5 
REMARK    2  A    between atoms: N_5  and  N_6 
REMARK    3  A    between atoms: N_6  and  C_7 
REMARK    4  A    between atoms: C_7  and  C_8 
REMARK    5  A    between atoms: C_8  and  O_9 
REMARK    6  A    between atoms: O_9  and  C_10 
REMARK    7  A    between atoms: C_22  and  O_23 
REMARK    8  A    between atoms: O_23  and  C_24 
REMARK    9  A    between atoms: C_24  and  C_25 
REMARK   10  A    between atoms: N_27  and  C_28 
ROOT
HETATM    1  C   UNL     1     -45.319  60.758 -49.850  1.00  0.00     0.001 A 
HETATM    2  C   UNL     1     -45.528  59.456 -50.303  1.00  0.00     0.020 A 
HETATM    3  C   UNL     1     -44.491  58.785 -50.958  1.00  0.00     0.067 A 
HETATM    4  C   UNL     1     -43.266  59.418 -51.192  1.00  0.00     0.085 A 
HETATM    5  C   UNL     1     -43.056  60.713 -50.718  1.00  0.00     0.038 A 
HETATM    6  C   UNL     1     -44.085  61.382 -50.054  1.00  0.00     0.003 A 
ENDROOT
BRANCH   3   7
HETATM    7  C   UNL     1     -44.704  57.418 -51.456  1.00  0.00     0.272 C 
HETATM    8  N   UNL     1     -44.779  57.179 -52.820  1.00  0.00    -0.264 N 
HETATM    9  H   UNL     1     -44.533  56.213 -53.048  1.00  0.00     0.190 HD
HETATM   10  O   UNL     1     -44.752  56.491 -50.655  1.00  0.00    -0.266 OA
BRANCH   8  11
HETATM   11  N   UNL     1     -44.675  58.099 -53.778  1.00  0.00    -0.285 N 
HETATM   12  H   UNL     1     -45.275  58.925 -53.715  1.00  0.00     0.188 HD
BRANCH  11  13
HETATM   13  C   UNL     1     -43.752  58.115 -54.746  1.00  0.00     0.114 C 
HETATM   14  N   UNL     1     -42.708  58.925 -54.800  1.00  0.00    -0.386 N 
HETATM   15  H   UNL     1     -42.051  58.838 -55.572  1.00  0.00     0.157 HD
HETATM   16  H   UNL     1     -42.500  59.620 -54.089  1.00  0.00     0.157 HD
BRANCH  13  17
HETATM   17  C   UNL     1     -43.944  57.171 -55.904  1.00  0.00     0.253 C 
BRANCH  17  18
HETATM   18  O   UNL     1     -43.720  57.887 -57.131  1.00  0.00    -0.342 OA
BRANCH  18  19
HETATM   19  C   UNL     1     -44.634  57.505 -58.080  1.00  0.00     0.091 A 
HETATM   20  C   UNL     1     -44.302  56.603 -59.101  1.00  0.00     0.069 A 
HETATM   21 CL   UNL     1     -42.731  55.893 -59.182  1.00  0.00    -0.081 Cl
HETATM   22  C   UNL     1     -45.247  56.267 -60.070  1.00  0.00     0.050 A 
HETATM   23  C   UNL     1     -46.513  56.850 -60.024  1.00  0.00     0.035 A 
HETATM   24 CL   UNL     1     -47.685  56.441 -61.214  1.00  0.00    -0.084 Cl
HETATM   25  C   UNL     1     -46.838  57.771 -59.025  1.00  0.00     0.026 A 
HETATM   26  C   UNL     1     -45.894  58.106 -58.053  1.00  0.00     0.040 A 
ENDBRANCH  18  19
ENDBRANCH  17  18
ENDBRANCH  13  17
ENDBRANCH  11  13
ENDBRANCH   8  11
ENDBRANCH   3   7
BRANCH   4  27
HETATM   27  O   UNL     1     -42.242  58.688 -51.736  1.00  0.00    -0.343 OA
BRANCH  27  28
HETATM   28  C   UNL     1     -41.303  58.229 -50.734  1.00  0.00     0.258 C 
BRANCH  28  29
HETATM   29  C   UNL     1     -41.143  56.740 -50.728  1.00  0.00     0.172 A 
HETATM   30  N   UNL     1     -40.746  56.032 -51.798  1.00  0.00    -0.147 NA
HETATM   31  N   UNL     1     -40.810  54.753 -51.329  1.00  0.00    -0.207 N 
HETATM   32  C   UNL     1     -41.213  54.762 -50.019  1.00  0.00     0.239 A 
HETATM   33  N   UNL     1     -41.427  55.994 -49.616  1.00  0.00    -0.223 NA
BRANCH  31  34
HETATM   34  C   UNL     1     -40.499  53.612 -52.115  1.00  0.00     0.153 A 
HETATM   35  N   UNL     1     -40.113  52.484 -51.468  1.00  0.00    -0.217 NA
HETATM   36  C   UNL     1     -39.831  51.411 -52.235  1.00  0.00     0.128 A 
HETATM   37 CL   UNL     1     -39.354  50.018 -51.360  1.00  0.00    -0.062 Cl
HETATM   38  C   UNL     1     -39.904  51.394 -53.616  1.00  0.00     0.044 A 
HETATM   39  C   UNL     1     -40.299  52.562 -54.261  1.00  0.00     0.007 A 
HETATM   40  C   UNL     1     -40.603  53.692 -53.504  1.00  0.00     0.052 A 
ENDBRANCH  31  34
ENDBRANCH  28  29
ENDBRANCH  27  28
ENDBRANCH   4  27
TORSDOF 10
ENDMDL
MODEL 10
REMARK VINA RESULT:      -7.6      1.850      2.515
REMARK  10 active torsions:
REMARK  status: ('A' for Active; 'I' for Inactive)
REMARK    1  A    between atoms: C_3  and  C_4 
REMARK       I    between atoms: C_4  and  N_5 
REMARK    2  A    between atoms: N_5  and  N_6 
REMARK    3  A    between atoms: N_6  and  C_7 
REMARK    4  A    between atoms: C_7  and  C_8 
REMARK    5  A    between atoms: C_8  and  O_9 
REMARK    6  A    between atoms: O_9  and  C_10 
REMARK    7  A    between atoms: C_22  and  O_23 
REMARK    8  A    between atoms: O_23  and  C_24 
REMARK    9  A    between atoms: C_24  and  C_25 
REMARK   10  A    between atoms: N_27  and  C_28 
ROOT
HETATM    1  C   UNL     1     -43.472  62.041 -50.310  1.00  0.00     0.001 A 
HETATM    2  C   UNL     1     -44.068  60.816 -50.010  1.00  0.00     0.020 A 
HETATM    3  C   UNL     1     -44.640  60.064 -51.041  1.00  0.00     0.067 A 
HETATM    4  C   UNL     1     -44.651  60.544 -52.354  1.00  0.00     0.085 A 
HETATM    5  C   UNL     1     -44.036  61.760 -52.651  1.00  0.00     0.038 A 
HETATM    6  C   UNL     1     -43.454  62.509 -51.626  1.00  0.00     0.003 A 
ENDROOT
BRANCH   3   7
HETATM    7  C   UNL     1     -45.286  58.778 -50.736  1.00  0.00     0.272 C 
HETATM    8  N   UNL     1     -44.551  57.604 -50.776  1.00  0.00    -0.264 N 
HETATM    9  H   UNL     1     -44.966  56.878 -50.190  1.00  0.00     0.190 HD
HETATM   10  O   UNL     1     -46.462  58.769 -50.386  1.00  0.00    -0.266 OA
BRANCH   8  11
HETATM   11  N   UNL     1     -43.256  57.506 -51.078  1.00  0.00    -0.285 N 
HETATM   12  H   UNL     1     -42.581  57.558 -50.311  1.00  0.00     0.188 HD
BRANCH  11  13
HETATM   13  C   UNL     1     -42.757  57.203 -52.282  1.00  0.00     0.114 C 
HETATM   14  N   UNL     1     -42.452  58.074 -53.229  1.00  0.00    -0.386 N 
HETATM   15  H   UNL     1     -42.056  57.739 -54.104  1.00  0.00     0.157 HD
HETATM   16  H   UNL     1     -42.563  59.078 -53.125  1.00  0.00     0.157 HD
BRANCH  13  17
HETATM   17  C   UNL     1     -42.577  55.744 -52.611  1.00  0.00     0.253 C 
BRANCH  17  18
HETATM   18  O   UNL     1     -41.561  55.196 -51.753  1.00  0.00    -0.342 OA
BRANCH  18  19
HETATM   19  C   UNL     1     -41.057  54.039 -52.290  1.00  0.00     0.091 A 
HETATM   20  C   UNL     1     -40.247  53.171 -51.542  1.00  0.00     0.069 A 
HETATM   21 CL   UNL     1     -39.886  53.500 -49.887  1.00  0.00    -0.081 Cl
HETATM   22  C   UNL     1     -39.723  52.023 -52.133  1.00  0.00     0.050 A 
HETATM   23  C   UNL     1     -39.993  51.759 -53.475  1.00  0.00     0.035 A 
HETATM   24 CL   UNL     1     -39.351  50.344 -54.213  1.00  0.00    -0.084 Cl
HETATM   25  C   UNL     1     -40.775  52.635 -54.231  1.00  0.00     0.026 A 
HETATM   26  C   UNL     1     -41.303  53.784 -53.640  1.00  0.00     0.040 A 
ENDBRANCH  18  19
ENDBRANCH  17  18
ENDBRANCH  13  17
ENDBRANCH  11  13
ENDBRANCH   8  11
ENDBRANCH   3   7
BRANCH   4  27
HETATM   27  O   UNL     1     -45.122  59.727 -53.349  1.00  0.00    -0.343 OA
BRANCH  27  28
HETATM   28  C   UNL     1     -45.150  60.391 -54.636  1.00  0.00     0.258 C 
BRANCH  28  29
HETATM   29  C   UNL     1     -44.481  59.594 -55.713  1.00  0.00     0.172 A 
HETATM   30  N   UNL     1     -45.132  58.733 -56.512  1.00  0.00    -0.147 NA
HETATM   31  N   UNL     1     -44.115  58.224 -57.266  1.00  0.00    -0.207 N 
HETATM   32  C   UNL     1     -42.932  58.813 -56.900  1.00  0.00     0.239 A 
HETATM   33  N   UNL     1     -43.132  59.677 -55.931  1.00  0.00    -0.223 NA
BRANCH  31  34
HETATM   34  C   UNL     1     -44.298  57.233 -58.266  1.00  0.00     0.153 A 
HETATM   35  N   UNL     1     -45.492  57.197 -58.911  1.00  0.00    -0.217 NA
HETATM   36  C   UNL     1     -45.638  56.252 -59.862  1.00  0.00     0.128 A 
HETATM   37 CL   UNL     1     -47.163  56.260 -60.642  1.00  0.00    -0.062 Cl
HETATM   38  C   UNL     1     -44.665  55.331 -60.209  1.00  0.00     0.044 A 
HETATM   39  C   UNL     1     -43.450  55.383 -59.533  1.00  0.00     0.007 A 
HETATM   40  C   UNL     1     -43.257  56.348 -58.546  1.00  0.00     0.052 A 
ENDBRANCH  31  34
ENDBRANCH  28  29
ENDBRANCH  27  28
ENDBRANCH   4  27
TORSDOF 10
ENDMDL
