MODEL 1
REMARK VINA RESULT:      -8.4      0.000      0.000
REMARK  5 active torsions:
REMARK  status: ('A' for Active; 'I' for Inactive)
REMARK    1  A    between atoms: C_5  and  O_6 
REMARK    2  A    between atoms: O_6  and  C_7 
REMARK    3  A    between atoms: C_7  and  C_8 
REMARK       I    between atoms: C_8  and  N_9 
REMARK    4  A    between atoms: N_9  and  N_10 
REMARK    5  A    between atoms: C_11  and  C_12 
ROOT
HETATM    1  C   UNL     1     -42.635  55.034 -52.672  1.00  0.00     0.261 C 
HETATM    2  N   UNL     1     -42.770  54.635 -53.996  1.00  0.00    -0.246 N 
HETATM    3  O   UNL     1     -42.996  56.111 -52.198  1.00  0.00    -0.269 OA
HETATM    4  H   UNL     1     -42.206  53.838 -54.286  1.00  0.00     0.192 HD
ENDROOT
BRANCH   2   5
HETATM    5  N   UNL     1     -43.215  55.421 -55.036  1.00  0.00    -0.184 NA
HETATM    6  C   UNL     1     -42.392  55.696 -55.998  1.00  0.00     0.152 C 
BRANCH   6   7
HETATM    7  C   UNL     1     -42.842  56.472 -57.136  1.00  0.00     0.011 A 
HETATM    8  C   UNL     1     -43.495  55.969 -58.308  1.00  0.00     0.004 A 
HETATM    9  C   UNL     1     -43.745  57.054 -59.148  1.00  0.00     0.043 A 
HETATM   10  C   UNL     1     -43.908  54.685 -58.729  1.00  0.00     0.014 A 
HETATM   11  C   UNL     1     -44.380  56.922 -60.389  1.00  0.00     0.030 A 
HETATM   12  N   UNL     1     -43.265  58.176 -58.511  1.00  0.00    -0.364 N 
HETATM   13  C   UNL     1     -44.777  55.640 -60.782  1.00  0.00     0.002 A 
HETATM   14  C   UNL     1     -44.547  54.537 -59.965  1.00  0.00     0.001 A 
HETATM   15  H   UNL     1     -43.315  59.113 -58.888  1.00  0.00     0.165 HD
HETATM   16  C   UNL     1     -42.727  57.840 -57.299  1.00  0.00     0.102 A 
ENDBRANCH   6   7
ENDBRANCH   2   5
BRANCH   1  17
HETATM   17  C   UNL     1     -42.029  53.955 -51.778  1.00  0.00     0.280 C 
BRANCH  17  18
HETATM   18  O   UNL     1     -40.607  53.876 -51.918  1.00  0.00    -0.342 OA
BRANCH  18  19
HETATM   19  C   UNL     1     -40.242  52.554 -51.998  1.00  0.00     0.075 A 
HETATM   20  C   UNL     1     -39.998  51.946 -53.241  1.00  0.00    -0.023 A 
HETATM   21  C   UNL     1     -39.722  50.562 -53.268  1.00  0.00    -0.053 A 
HETATM   22  C   UNL     1     -40.086  52.746 -54.513  1.00  0.00     0.052 C 
HETATM   23  C   UNL     1     -39.510  49.821 -54.561  1.00  0.00     0.049 C 
HETATM   24  C   UNL     1     -39.610  49.854 -52.059  1.00  0.00     0.007 A 
HETATM   25  C   UNL     1     -39.791  50.493 -50.833  1.00  0.00     0.003 A 
HETATM   26  C   UNL     1     -40.106  51.846 -50.801  1.00  0.00     0.037 A 
ENDBRANCH  18  19
ENDBRANCH  17  18
ENDBRANCH   1  17
TORSDOF 5
ENDMDL
MODEL 2
REMARK VINA RESULT:      -8.4      2.140      8.589
REMARK  5 active torsions:
REMARK  status: ('A' for Active; 'I' for Inactive)
REMARK    1  A    between atoms: C_5  and  O_6 
REMARK    2  A    between atoms: O_6  and  C_7 
REMARK    3  A    between atoms: C_7  and  C_8 
REMARK       I    between atoms: C_8  and  N_9 
REMARK    4  A    between atoms: N_9  and  N_10 
REMARK    5  A    between atoms: C_11  and  C_12 
ROOT
HETATM    1  C   UNL     1     -42.478  57.197 -56.072  1.00  0.00     0.261 C 
HETATM    2  N   UNL     1     -41.706  56.044 -55.990  1.00  0.00    -0.246 N 
HETATM    3  O   UNL     1     -42.783  57.934 -55.135  1.00  0.00    -0.269 OA
HETATM    4  H   UNL     1     -41.752  55.414 -56.789  1.00  0.00     0.192 HD
ENDROOT
BRANCH   2   5
HETATM    5  N   UNL     1     -41.253  55.455 -54.831  1.00  0.00    -0.184 NA
HETATM    6  C   UNL     1     -41.263  54.163 -54.750  1.00  0.00     0.152 C 
BRANCH   6   7
HETATM    7  C   UNL     1     -40.740  53.507 -53.568  1.00  0.00     0.011 A 
HETATM    8  C   UNL     1     -40.353  52.131 -53.455  1.00  0.00     0.004 A 
HETATM    9  C   UNL     1     -39.915  51.925 -52.147  1.00  0.00     0.043 A 
HETATM   10  C   UNL     1     -40.326  51.041 -54.353  1.00  0.00     0.014 A 
HETATM   11  C   UNL     1     -39.458  50.683 -51.689  1.00  0.00     0.030 A 
HETATM   12  N   UNL     1     -40.027  53.128 -51.489  1.00  0.00    -0.364 N 
HETATM   13  C   UNL     1     -39.443  49.620 -52.598  1.00  0.00     0.002 A 
HETATM   14  C   UNL     1     -39.868  49.795 -53.912  1.00  0.00     0.001 A 
HETATM   15  H   UNL     1     -39.776  53.276 -50.521  1.00  0.00     0.165 HD
HETATM   16  C   UNL     1     -40.515  54.087 -52.334  1.00  0.00     0.102 A 
ENDBRANCH   6   7
ENDBRANCH   2   5
BRANCH   1  17
HETATM   17  C   UNL     1     -42.894  57.541 -57.500  1.00  0.00     0.280 C 
BRANCH  17  18
HETATM   18  O   UNL     1     -44.316  57.604 -57.646  1.00  0.00    -0.342 OA
BRANCH  18  19
HETATM   19  C   UNL     1     -44.682  56.869 -58.748  1.00  0.00     0.075 A 
HETATM   20  C   UNL     1     -45.877  57.144 -59.434  1.00  0.00    -0.023 A 
HETATM   21  C   UNL     1     -46.249  56.295 -60.498  1.00  0.00    -0.053 A 
HETATM   22  C   UNL     1     -46.760  58.285 -59.004  1.00  0.00     0.052 C 
HETATM   23  C   UNL     1     -47.543  56.482 -61.246  1.00  0.00     0.049 C 
HETATM   24  C   UNL     1     -45.383  55.262 -60.897  1.00  0.00     0.007 A 
HETATM   25  C   UNL     1     -44.170  55.050 -60.243  1.00  0.00     0.003 A 
HETATM   26  C   UNL     1     -43.817  55.855 -59.166  1.00  0.00     0.037 A 
ENDBRANCH  18  19
ENDBRANCH  17  18
ENDBRANCH   1  17
TORSDOF 5
ENDMDL
MODEL 3
REMARK VINA RESULT:      -8.0      2.100      8.254
REMARK  5 active torsions:
REMARK  status: ('A' for Active; 'I' for Inactive)
REMARK    1  A    between atoms: C_5  and  O_6 
REMARK    2  A    between atoms: O_6  and  C_7 
REMARK    3  A    between atoms: C_7  and  C_8 
REMARK       I    between atoms: C_8  and  N_9 
REMARK    4  A    between atoms: N_9  and  N_10 
REMARK    5  A    between atoms: C_11  and  C_12 
ROOT
HETATM    1  C   UNL     1     -43.637  56.748 -54.601  1.00  0.00     0.261 C 
HETATM    2  N   UNL     1     -42.351  56.264 -54.394  1.00  0.00    -0.246 N 
HETATM    3  O   UNL     1     -44.632  56.473 -53.932  1.00  0.00    -0.269 OA
HETATM    4  H   UNL     1     -41.697  56.378 -55.167  1.00  0.00     0.192 HD
ENDROOT
BRANCH   2   5
HETATM    5  N   UNL     1     -41.988  55.295 -53.485  1.00  0.00    -0.184 NA
HETATM    6  C   UNL     1     -40.982  54.530 -53.767  1.00  0.00     0.152 C 
BRANCH   6   7
HETATM    7  C   UNL     1     -40.536  53.538 -52.809  1.00  0.00     0.011 A 
HETATM    8  C   UNL     1     -40.234  52.163 -53.081  1.00  0.00     0.004 A 
HETATM    9  C   UNL     1     -39.849  51.572 -51.877  1.00  0.00     0.043 A 
HETATM   10  C   UNL     1     -40.245  51.367 -54.247  1.00  0.00     0.014 A 
HETATM   11  C   UNL     1     -39.481  50.225 -51.778  1.00  0.00     0.030 A 
HETATM   12  N   UNL     1     -39.910  52.549 -50.910  1.00  0.00    -0.364 N 
HETATM   13  C   UNL     1     -39.502  49.459 -52.948  1.00  0.00     0.002 A 
HETATM   14  C   UNL     1     -39.876  50.020 -54.166  1.00  0.00     0.001 A 
HETATM   15  H   UNL     1     -39.680  52.406 -49.936  1.00  0.00     0.165 HD
HETATM   16  C   UNL     1     -40.314  53.736 -51.459  1.00  0.00     0.102 A 
ENDBRANCH   6   7
ENDBRANCH   2   5
BRANCH   1  17
HETATM   17  C   UNL     1     -43.723  57.754 -55.745  1.00  0.00     0.280 C 
BRANCH  17  18
HETATM   18  O   UNL     1     -42.434  58.079 -56.274  1.00  0.00    -0.342 OA
BRANCH  18  19
HETATM   19  C   UNL     1     -42.434  57.835 -57.626  1.00  0.00     0.075 A 
HETATM   20  C   UNL     1     -42.076  58.841 -58.540  1.00  0.00    -0.023 A 
HETATM   21  C   UNL     1     -42.189  58.563 -59.920  1.00  0.00    -0.053 A 
HETATM   22  C   UNL     1     -41.636  60.195 -58.054  1.00  0.00     0.052 C 
HETATM   23  C   UNL     1     -41.884  59.603 -60.965  1.00  0.00     0.049 C 
HETATM   24  C   UNL     1     -42.565  57.275 -60.339  1.00  0.00     0.007 A 
HETATM   25  C   UNL     1     -42.851  56.274 -59.413  1.00  0.00     0.003 A 
HETATM   26  C   UNL     1     -42.785  56.553 -58.053  1.00  0.00     0.037 A 
ENDBRANCH  18  19
ENDBRANCH  17  18
ENDBRANCH   1  17
TORSDOF 5
ENDMDL
MODEL 4
REMARK VINA RESULT:      -7.9      1.656      2.556
REMARK  5 active torsions:
REMARK  status: ('A' for Active; 'I' for Inactive)
REMARK    1  A    between atoms: C_5  and  O_6 
REMARK    2  A    between atoms: O_6  and  C_7 
REMARK    3  A    between atoms: C_7  and  C_8 
REMARK       I    between atoms: C_8  and  N_9 
REMARK    4  A    between atoms: N_9  and  N_10 
REMARK    5  A    between atoms: C_11  and  C_12 
ROOT
HETATM    1  C   UNL     1     -41.090  55.666 -54.882  1.00  0.00     0.261 C 
HETATM    2  N   UNL     1     -41.956  55.537 -55.962  1.00  0.00    -0.246 N 
HETATM    3  O   UNL     1     -40.983  56.650 -54.152  1.00  0.00    -0.269 OA
HETATM    4  H   UNL     1     -41.754  54.780 -56.613  1.00  0.00     0.192 HD
ENDROOT
BRANCH   2   5
HETATM    5  N   UNL     1     -42.755  56.532 -56.481  1.00  0.00    -0.184 NA
HETATM    6  C   UNL     1     -43.132  56.438 -57.717  1.00  0.00     0.152 C 
BRANCH   6   7
HETATM    7  C   UNL     1     -44.019  57.436 -58.281  1.00  0.00     0.011 A 
HETATM    8  C   UNL     1     -45.102  57.200 -59.189  1.00  0.00     0.004 A 
HETATM    9  C   UNL     1     -45.683  58.435 -59.478  1.00  0.00     0.043 A 
HETATM   10  C   UNL     1     -45.650  56.043 -59.786  1.00  0.00     0.014 A 
HETATM   11  C   UNL     1     -46.779  58.574 -60.339  1.00  0.00     0.030 A 
HETATM   12  N   UNL     1     -44.984  59.386 -58.772  1.00  0.00    -0.364 N 
HETATM   13  C   UNL     1     -47.301  57.412 -60.919  1.00  0.00     0.002 A 
HETATM   14  C   UNL     1     -46.747  56.164 -60.646  1.00  0.00     0.001 A 
HETATM   15  H   UNL     1     -45.189  60.376 -58.786  1.00  0.00     0.165 HD
HETATM   16  C   UNL     1     -43.987  58.797 -58.043  1.00  0.00     0.102 A 
ENDBRANCH   6   7
ENDBRANCH   2   5
BRANCH   1  17
HETATM   17  C   UNL     1     -40.278  54.403 -54.610  1.00  0.00     0.280 C 
BRANCH  17  18
HETATM   18  O   UNL     1     -40.420  53.952 -53.259  1.00  0.00    -0.342 OA
BRANCH  18  19
HETATM   19  C   UNL     1     -40.221  52.593 -53.222  1.00  0.00     0.075 A 
HETATM   20  C   UNL     1     -39.984  51.933 -52.004  1.00  0.00    -0.023 A 
HETATM   21  C   UNL     1     -39.689  50.553 -52.037  1.00  0.00    -0.053 A 
HETATM   22  C   UNL     1     -39.992  52.695 -50.706  1.00  0.00     0.052 C 
HETATM   23  C   UNL     1     -39.363  49.782 -50.785  1.00  0.00     0.049 C 
HETATM   24  C   UNL     1     -39.727  49.864 -53.262  1.00  0.00     0.007 A 
HETATM   25  C   UNL     1     -40.030  50.529 -54.449  1.00  0.00     0.003 A 
HETATM   26  C   UNL     1     -40.279  51.896 -54.430  1.00  0.00     0.037 A 
ENDBRANCH  18  19
ENDBRANCH  17  18
ENDBRANCH   1  17
TORSDOF 5
ENDMDL
MODEL 5
REMARK VINA RESULT:      -7.9      2.405      8.151
REMARK  5 active torsions:
REMARK  status: ('A' for Active; 'I' for Inactive)
REMARK    1  A    between atoms: C_5  and  O_6 
REMARK    2  A    between atoms: O_6  and  C_7 
REMARK    3  A    between atoms: C_7  and  C_8 
REMARK       I    between atoms: C_8  and  N_9 
REMARK    4  A    between atoms: N_9  and  N_10 
REMARK    5  A    between atoms: C_11  and  C_12 
ROOT
HETATM    1  C   UNL     1     -41.096  58.676 -53.924  1.00  0.00     0.261 C 
HETATM    2  N   UNL     1     -41.363  57.317 -54.046  1.00  0.00    -0.246 N 
HETATM    3  O   UNL     1     -40.214  59.183 -53.232  1.00  0.00    -0.269 OA
HETATM    4  H   UNL     1     -42.266  57.070 -54.446  1.00  0.00     0.192 HD
ENDROOT
BRANCH   2   5
HETATM    5  N   UNL     1     -40.770  56.308 -53.319  1.00  0.00    -0.184 NA
HETATM    6  C   UNL     1     -41.466  55.249 -53.054  1.00  0.00     0.152 C 
BRANCH   6   7
HETATM    7  C   UNL     1     -40.858  54.143 -52.341  1.00  0.00     0.011 A 
HETATM    8  C   UNL     1     -40.513  52.863 -52.885  1.00  0.00     0.004 A 
HETATM    9  C   UNL     1     -39.960  52.104 -51.853  1.00  0.00     0.043 A 
HETATM   10  C   UNL     1     -40.611  52.280 -54.168  1.00  0.00     0.014 A 
HETATM   11  C   UNL     1     -39.508  50.791 -52.036  1.00  0.00     0.030 A 
HETATM   12  N   UNL     1     -39.965  52.892 -50.725  1.00  0.00    -0.364 N 
HETATM   13  C   UNL     1     -39.619  50.239 -53.316  1.00  0.00     0.002 A 
HETATM   14  C   UNL     1     -40.161  50.971 -54.368  1.00  0.00     0.001 A 
HETATM   15  H   UNL     1     -39.617  52.601 -49.821  1.00  0.00     0.165 HD
HETATM   16  C   UNL     1     -40.495  54.121 -51.007  1.00  0.00     0.102 A 
ENDBRANCH   6   7
ENDBRANCH   2   5
BRANCH   1  17
HETATM   17  C   UNL     1     -41.986  59.544 -54.809  1.00  0.00     0.280 C 
BRANCH  17  18
HETATM   18  O   UNL     1     -42.925  58.765 -55.557  1.00  0.00    -0.342 OA
BRANCH  18  19
HETATM   19  C   UNL     1     -42.646  58.899 -56.896  1.00  0.00     0.075 A 
HETATM   20  C   UNL     1     -42.620  57.778 -57.743  1.00  0.00    -0.023 A 
HETATM   21  C   UNL     1     -42.232  57.963 -59.088  1.00  0.00    -0.053 A 
HETATM   22  C   UNL     1     -42.947  56.409 -57.210  1.00  0.00     0.052 C 
HETATM   23  C   UNL     1     -42.119  56.808 -60.047  1.00  0.00     0.049 C 
HETATM   24  C   UNL     1     -41.971  59.261 -59.562  1.00  0.00     0.007 A 
HETATM   25  C   UNL     1     -42.068  60.366 -58.718  1.00  0.00     0.003 A 
HETATM   26  C   UNL     1     -42.407  60.186 -57.382  1.00  0.00     0.037 A 
ENDBRANCH  18  19
ENDBRANCH  17  18
ENDBRANCH   1  17
TORSDOF 5
ENDMDL
MODEL 6
REMARK VINA RESULT:      -7.8      1.282      2.152
REMARK  5 active torsions:
REMARK  status: ('A' for Active; 'I' for Inactive)
REMARK    1  A    between atoms: C_5  and  O_6 
REMARK    2  A    between atoms: O_6  and  C_7 
REMARK    3  A    between atoms: C_7  and  C_8 
REMARK       I    between atoms: C_8  and  N_9 
REMARK    4  A    between atoms: N_9  and  N_10 
REMARK    5  A    between atoms: C_11  and  C_12 
ROOT
HETATM    1  C   UNL     1     -42.738  55.534 -53.484  1.00  0.00     0.261 C 
HETATM    2  N   UNL     1     -42.861  55.014 -54.767  1.00  0.00    -0.246 N 
HETATM    3  O   UNL     1     -43.061  56.666 -53.126  1.00  0.00    -0.269 OA
HETATM    4  H   UNL     1     -42.327  54.169 -54.963  1.00  0.00     0.192 HD
ENDROOT
BRANCH   2   5
HETATM    5  N   UNL     1     -43.244  55.713 -55.890  1.00  0.00    -0.184 NA
HETATM    6  C   UNL     1     -42.770  55.347 -57.037  1.00  0.00     0.152 C 
BRANCH   6   7
HETATM    7  C   UNL     1     -43.196  56.023 -58.247  1.00  0.00     0.011 A 
HETATM    8  C   UNL     1     -42.864  57.361 -58.639  1.00  0.00     0.004 A 
HETATM    9  C   UNL     1     -43.487  57.606 -59.863  1.00  0.00     0.043 A 
HETATM   10  C   UNL     1     -42.081  58.387 -58.067  1.00  0.00     0.014 A 
HETATM   11  C   UNL     1     -43.373  58.825 -60.541  1.00  0.00     0.030 A 
HETATM   12  N   UNL     1     -44.169  56.460 -60.206  1.00  0.00    -0.364 N 
HETATM   13  C   UNL     1     -42.592  59.825 -59.952  1.00  0.00     0.002 A 
HETATM   14  C   UNL     1     -41.953  59.611 -58.734  1.00  0.00     0.001 A 
HETATM   15  H   UNL     1     -44.711  56.348 -61.051  1.00  0.00     0.165 HD
HETATM   16  C   UNL     1     -43.995  55.500 -59.246  1.00  0.00     0.102 A 
ENDBRANCH   6   7
ENDBRANCH   2   5
BRANCH   1  17
HETATM   17  C   UNL     1     -42.204  54.522 -52.474  1.00  0.00     0.280 C 
BRANCH  17  18
HETATM   18  O   UNL     1     -40.774  54.467 -52.472  1.00  0.00    -0.342 OA
BRANCH  18  19
HETATM   19  C   UNL     1     -40.380  53.160 -52.313  1.00  0.00     0.075 A 
HETATM   20  C   UNL     1     -40.066  52.362 -53.425  1.00  0.00    -0.023 A 
HETATM   21  C   UNL     1     -39.762  51.000 -53.208  1.00  0.00    -0.053 A 
HETATM   22  C   UNL     1     -40.107  52.936 -54.816  1.00  0.00     0.052 C 
HETATM   23  C   UNL     1     -39.474  50.060 -54.349  1.00  0.00     0.049 C 
HETATM   24  C   UNL     1     -39.694  50.506 -51.894  1.00  0.00     0.007 A 
HETATM   25  C   UNL     1     -39.946  51.335 -50.802  1.00  0.00     0.003 A 
HETATM   26  C   UNL     1     -40.288  52.666 -51.011  1.00  0.00     0.037 A 
ENDBRANCH  18  19
ENDBRANCH  17  18
ENDBRANCH   1  17
TORSDOF 5
ENDMDL
MODEL 7
REMARK VINA RESULT:      -7.7      1.892      3.161
REMARK  5 active torsions:
REMARK  status: ('A' for Active; 'I' for Inactive)
REMARK    1  A    between atoms: C_5  and  O_6 
REMARK    2  A    between atoms: O_6  and  C_7 
REMARK    3  A    between atoms: C_7  and  C_8 
REMARK       I    between atoms: C_8  and  N_9 
REMARK    4  A    between atoms: N_9  and  N_10 
REMARK    5  A    between atoms: C_11  and  C_12 
ROOT
HETATM    1  C   UNL     1     -41.722  54.962 -55.041  1.00  0.00     0.261 C 
HETATM    2  N   UNL     1     -42.745  54.714 -55.949  1.00  0.00    -0.246 N 
HETATM    3  O   UNL     1     -40.852  55.825 -55.146  1.00  0.00    -0.269 OA
HETATM    4  H   UNL     1     -43.225  53.821 -55.854  1.00  0.00     0.192 HD
ENDROOT
BRANCH   2   5
HETATM    5  N   UNL     1     -42.889  55.305 -57.185  1.00  0.00    -0.184 NA
HETATM    6  C   UNL     1     -43.465  56.463 -57.251  1.00  0.00     0.152 C 
BRANCH   6   7
HETATM    7  C   UNL     1     -43.583  57.141 -58.527  1.00  0.00     0.011 A 
HETATM    8  C   UNL     1     -42.975  58.386 -58.892  1.00  0.00     0.004 A 
HETATM    9  C   UNL     1     -43.356  58.671 -60.204  1.00  0.00     0.043 A 
HETATM   10  C   UNL     1     -42.123  59.297 -58.228  1.00  0.00     0.014 A 
HETATM   11  C   UNL     1     -42.935  59.821 -60.883  1.00  0.00     0.030 A 
HETATM   12  N   UNL     1     -44.162  57.638 -60.623  1.00  0.00    -0.364 N 
HETATM   13  C   UNL     1     -42.094  60.706 -60.201  1.00  0.00     0.002 A 
HETATM   14  C   UNL     1     -41.691  60.449 -58.893  1.00  0.00     0.001 A 
HETATM   15  H   UNL     1     -44.582  57.575 -61.540  1.00  0.00     0.165 HD
HETATM   16  C   UNL     1     -44.300  56.710 -59.627  1.00  0.00     0.102 A 
ENDBRANCH   6   7
ENDBRANCH   2   5
BRANCH   1  17
HETATM   17  C   UNL     1     -41.795  54.078 -53.799  1.00  0.00     0.280 C 
BRANCH  17  18
HETATM   18  O   UNL     1     -40.507  53.862 -53.215  1.00  0.00    -0.342 OA
BRANCH  18  19
HETATM   19  C   UNL     1     -40.262  52.511 -53.168  1.00  0.00     0.075 A 
HETATM   20  C   UNL     1     -40.038  51.861 -51.942  1.00  0.00    -0.023 A 
HETATM   21  C   UNL     1     -39.695  50.492 -51.963  1.00  0.00    -0.053 A 
HETATM   22  C   UNL     1     -40.111  52.624 -50.648  1.00  0.00     0.052 C 
HETATM   23  C   UNL     1     -39.380  49.734 -50.700  1.00  0.00     0.049 C 
HETATM   24  C   UNL     1     -39.674  49.800 -53.187  1.00  0.00     0.007 A 
HETATM   25  C   UNL     1     -39.965  50.452 -54.384  1.00  0.00     0.003 A 
HETATM   26  C   UNL     1     -40.261  51.810 -54.376  1.00  0.00     0.037 A 
ENDBRANCH  18  19
ENDBRANCH  17  18
ENDBRANCH   1  17
TORSDOF 5
ENDMDL
MODEL 8
REMARK VINA RESULT:      -7.3      4.131      8.278
REMARK  5 active torsions:
REMARK  status: ('A' for Active; 'I' for Inactive)
REMARK    1  A    between atoms: C_5  and  O_6 
REMARK    2  A    between atoms: O_6  and  C_7 
REMARK    3  A    between atoms: C_7  and  C_8 
REMARK       I    between atoms: C_8  and  N_9 
REMARK    4  A    between atoms: N_9  and  N_10 
REMARK    5  A    between atoms: C_11  and  C_12 
ROOT
HETATM    1  C   UNL     1     -40.930  59.075 -50.647  1.00  0.00     0.261 C 
HETATM    2  N   UNL     1     -41.538  57.880 -50.278  1.00  0.00    -0.246 N 
HETATM    3  O   UNL     1     -39.820  59.195 -51.165  1.00  0.00    -0.269 OA
HETATM    4  H   UNL     1     -42.330  57.956 -49.642  1.00  0.00     0.192 HD
ENDROOT
BRANCH   2   5
HETATM    5  N   UNL     1     -40.954  56.633 -50.309  1.00  0.00    -0.184 NA
HETATM    6  C   UNL     1     -41.647  55.639 -50.767  1.00  0.00     0.152 C 
BRANCH   6   7
HETATM    7  C   UNL     1     -41.046  54.324 -50.868  1.00  0.00     0.011 A 
HETATM    8  C   UNL     1     -40.681  53.642 -52.075  1.00  0.00     0.004 A 
HETATM    9  C   UNL     1     -40.145  52.406 -51.713  1.00  0.00     0.043 A 
HETATM   10  C   UNL     1     -40.749  53.969 -53.448  1.00  0.00     0.014 A 
HETATM   11  C   UNL     1     -39.680  51.478 -52.652  1.00  0.00     0.030 A 
HETATM   12  N   UNL     1     -40.179  52.338 -50.339  1.00  0.00    -0.364 N 
HETATM   13  C   UNL     1     -39.760  51.825 -54.004  1.00  0.00     0.002 A 
HETATM   14  C   UNL     1     -40.285  53.053 -54.398  1.00  0.00     0.001 A 
HETATM   15  H   UNL     1     -39.848  51.553 -49.796  1.00  0.00     0.165 HD
HETATM   16  C   UNL     1     -40.711  53.487 -49.820  1.00  0.00     0.102 A 
ENDBRANCH   6   7
ENDBRANCH   2   5
BRANCH   1  17
HETATM   17  C   UNL     1     -41.815  60.296 -50.411  1.00  0.00     0.280 C 
BRANCH  17  18
HETATM   18  O   UNL     1     -43.200  60.005 -50.619  1.00  0.00    -0.342 OA
BRANCH  18  19
HETATM   19  C   UNL     1     -43.479  60.106 -51.961  1.00  0.00     0.075 A 
HETATM   20  C   UNL     1     -44.185  59.091 -52.629  1.00  0.00    -0.023 A 
HETATM   21  C   UNL     1     -44.356  59.202 -54.025  1.00  0.00    -0.053 A 
HETATM   22  C   UNL     1     -44.694  57.891 -51.876  1.00  0.00     0.052 C 
HETATM   23  C   UNL     1     -45.046  58.130 -54.827  1.00  0.00     0.049 C 
HETATM   24  C   UNL     1     -43.901  60.354 -54.691  1.00  0.00     0.007 A 
HETATM   25  C   UNL     1     -43.262  61.379 -53.995  1.00  0.00     0.003 A 
HETATM   26  C   UNL     1     -43.051  61.256 -52.627  1.00  0.00     0.037 A 
ENDBRANCH  18  19
ENDBRANCH  17  18
ENDBRANCH   1  17
TORSDOF 5
ENDMDL
MODEL 9
REMARK VINA RESULT:      -7.3      5.910      9.457
REMARK  5 active torsions:
REMARK  status: ('A' for Active; 'I' for Inactive)
REMARK    1  A    between atoms: C_5  and  O_6 
REMARK    2  A    between atoms: O_6  and  C_7 
REMARK    3  A    between atoms: C_7  and  C_8 
REMARK       I    between atoms: C_8  and  N_9 
REMARK    4  A    between atoms: N_9  and  N_10 
REMARK    5  A    between atoms: C_11  and  C_12 
ROOT
HETATM    1  C   UNL     1     -42.034  59.582 -51.748  1.00  0.00     0.261 C 
HETATM    2  N   UNL     1     -42.502  58.273 -51.760  1.00  0.00    -0.246 N 
HETATM    3  O   UNL     1     -41.406  60.136 -52.649  1.00  0.00    -0.269 OA
HETATM    4  H   UNL     1     -42.776  57.885 -50.859  1.00  0.00     0.192 HD
ENDROOT
BRANCH   2   5
HETATM    5  N   UNL     1     -42.237  57.328 -52.726  1.00  0.00    -0.184 NA
HETATM    6  C   UNL     1     -41.276  56.486 -52.518  1.00  0.00     0.152 C 
BRANCH   6   7
HETATM    7  C   UNL     1     -41.006  55.441 -53.486  1.00  0.00     0.011 A 
HETATM    8  C   UNL     1     -40.587  54.100 -53.201  1.00  0.00     0.004 A 
HETATM    9  C   UNL     1     -40.438  53.440 -54.421  1.00  0.00     0.043 A 
HETATM   10  C   UNL     1     -40.331  53.382 -52.013  1.00  0.00     0.014 A 
HETATM   11  C   UNL     1     -40.038  52.101 -54.514  1.00  0.00     0.030 A 
HETATM   12  N   UNL     1     -40.756  54.342 -55.410  1.00  0.00    -0.364 N 
HETATM   13  C   UNL     1     -39.789  51.414 -53.321  1.00  0.00     0.002 A 
HETATM   14  C   UNL     1     -39.934  52.042 -52.088  1.00  0.00     0.001 A 
HETATM   15  H   UNL     1     -40.740  54.136 -56.400  1.00  0.00     0.165 HD
HETATM   16  C   UNL     1     -41.105  55.545 -54.861  1.00  0.00     0.102 A 
ENDBRANCH   6   7
ENDBRANCH   2   5
BRANCH   1  17
HETATM   17  C   UNL     1     -42.432  60.351 -50.491  1.00  0.00     0.280 C 
BRANCH  17  18
HETATM   18  O   UNL     1     -43.714  60.971 -50.624  1.00  0.00    -0.342 OA
BRANCH  18  19
HETATM   19  C   UNL     1     -43.713  62.149 -49.916  1.00  0.00     0.075 A 
HETATM   20  C   UNL     1     -44.505  62.300 -48.765  1.00  0.00    -0.023 A 
HETATM   21  C   UNL     1     -44.538  63.563 -48.135  1.00  0.00    -0.053 A 
HETATM   22  C   UNL     1     -45.336  61.155 -48.254  1.00  0.00     0.052 C 
HETATM   23  C   UNL     1     -45.406  63.827 -46.934  1.00  0.00     0.049 C 
HETATM   24  C   UNL     1     -43.719  64.600 -48.616  1.00  0.00     0.007 A 
HETATM   25  C   UNL     1     -42.891  64.405 -49.721  1.00  0.00     0.003 A 
HETATM   26  C   UNL     1     -42.886  63.178 -50.372  1.00  0.00     0.037 A 
ENDBRANCH  18  19
ENDBRANCH  17  18
ENDBRANCH   1  17
TORSDOF 5
ENDMDL
MODEL 10
REMARK VINA RESULT:      -7.2      2.036      3.156
REMARK  5 active torsions:
REMARK  status: ('A' for Active; 'I' for Inactive)
REMARK    1  A    between atoms: C_5  and  O_6 
REMARK    2  A    between atoms: O_6  and  C_7 
REMARK    3  A    between atoms: C_7  and  C_8 
REMARK       I    between atoms: C_8  and  N_9 
REMARK    4  A    between atoms: N_9  and  N_10 
REMARK    5  A    between atoms: C_11  and  C_12 
ROOT
HETATM    1  C   UNL     1     -43.223  56.553 -54.618  1.00  0.00     0.261 C 
HETATM    2  N   UNL     1     -43.061  57.067 -55.900  1.00  0.00    -0.246 N 
HETATM    3  O   UNL     1     -44.033  55.692 -54.278  1.00  0.00    -0.269 OA
HETATM    4  H   UNL     1     -42.537  57.937 -55.974  1.00  0.00     0.192 HD
ENDROOT
BRANCH   2   5
HETATM    5  N   UNL     1     -43.864  56.796 -56.986  1.00  0.00    -0.184 NA
HETATM    6  C   UNL     1     -43.368  56.105 -57.962  1.00  0.00     0.152 C 
BRANCH   6   7
HETATM    7  C   UNL     1     -44.200  55.752 -59.096  1.00  0.00     0.011 A 
HETATM    8  C   UNL     1     -45.316  56.496 -59.600  1.00  0.00     0.004 A 
HETATM    9  C   UNL     1     -45.829  55.796 -60.692  1.00  0.00     0.043 A 
HETATM   10  C   UNL     1     -45.934  57.712 -59.233  1.00  0.00     0.014 A 
HETATM   11  C   UNL     1     -46.930  56.244 -61.431  1.00  0.00     0.030 A 
HETATM   12  N   UNL     1     -45.053  54.669 -60.849  1.00  0.00    -0.364 N 
HETATM   13  C   UNL     1     -47.524  57.450 -61.044  1.00  0.00     0.002 A 
HETATM   14  C   UNL     1     -47.034  58.176 -59.963  1.00  0.00     0.001 A 
HETATM   15  H   UNL     1     -45.193  53.975 -61.570  1.00  0.00     0.165 HD
HETATM   16  C   UNL     1     -44.068  54.636 -59.901  1.00  0.00     0.102 A 
ENDBRANCH   6   7
ENDBRANCH   2   5
BRANCH   1  17
HETATM   17  C   UNL     1     -42.221  57.118 -53.615  1.00  0.00     0.280 C 
BRANCH  17  18
HETATM   18  O   UNL     1     -40.913  56.564 -53.789  1.00  0.00    -0.342 OA
BRANCH  18  19
HETATM   19  C   UNL     1     -40.840  55.375 -53.104  1.00  0.00     0.075 A 
HETATM   20  C   UNL     1     -40.454  54.191 -53.754  1.00  0.00    -0.023 A 
HETATM   21  C   UNL     1     -40.491  52.983 -53.023  1.00  0.00    -0.053 A 
HETATM   22  C   UNL     1     -40.063  54.208 -55.207  1.00  0.00     0.052 C 
HETATM   23  C   UNL     1     -40.151  51.661 -53.660  1.00  0.00     0.049 C 
HETATM   24  C   UNL     1     -40.823  53.008 -51.658  1.00  0.00     0.007 A 
HETATM   25  C   UNL     1     -41.139  54.207 -51.018  1.00  0.00     0.003 A 
HETATM   26  C   UNL     1     -41.147  55.393 -51.742  1.00  0.00     0.037 A 
ENDBRANCH  18  19
ENDBRANCH  17  18
ENDBRANCH   1  17
TORSDOF 5
ENDMDL
