MODEL 1
REMARK VINA RESULT:      -8.0      0.000      0.000
REMARK  6 active torsions:
REMARK  status: ('A' for Active; 'I' for Inactive)
REMARK    1  A    between atoms: C_3  and  C_4 
REMARK    2  A    between atoms: C_4  and  C_5 
REMARK       I    between atoms: C_5  and  N_6 
REMARK    3  A    between atoms: N_6  and  C_7 
REMARK    4  A    between atoms: C_9  and  C_10 
REMARK    5  A    between atoms: C_11  and  C_12 
REMARK    6  A    between atoms: C_22  and  O_23 
ROOT
HETATM    1  C   UNL     1     -42.354  57.670 -55.798  1.00  0.00     0.036 A 
HETATM    2  C   UNL     1     -41.981  56.352 -55.525  1.00  0.00     0.050 A 
HETATM    3  C   UNL     1     -41.302  56.037 -54.341  1.00  0.00     0.020 A 
HETATM    4  C   UNL     1     -40.983  57.042 -53.428  1.00  0.00     0.021 A 
HETATM    5  C   UNL     1     -41.348  58.361 -53.693  1.00  0.00     0.004 A 
HETATM    6  C   UNL     1     -42.034  58.671 -54.870  1.00  0.00     0.029 A 
ENDROOT
BRANCH   1   7
HETATM    7  N   UNL     1     -43.078  58.063 -56.945  1.00  0.00    -0.327 N 
HETATM    8  C   UNL     1     -42.562  58.469 -58.162  1.00  0.00     0.226 C 
HETATM    9  O   UNL     1     -41.381  58.693 -58.420  1.00  0.00    -0.273 OA
HETATM   10  H   UNL     1     -44.084  58.086 -56.844  1.00  0.00     0.169 HD
BRANCH   8  11
HETATM   11  C   UNL     1     -43.616  58.651 -59.241  1.00  0.00     0.144 C 
BRANCH  11  12
HETATM   12  C   UNL     1     -44.257  57.356 -59.676  1.00  0.00    -0.016 A 
HETATM   13  C   UNL     1     -45.660  57.259 -59.692  1.00  0.00     0.010 A 
HETATM   14  C   UNL     1     -46.293  56.057 -60.019  1.00  0.00     0.001 A 
HETATM   15  C   UNL     1     -45.535  54.932 -60.326  1.00  0.00     0.003 A 
HETATM   16  C   UNL     1     -44.144  55.010 -60.315  1.00  0.00     0.037 A 
HETATM   17  C   UNL     1     -43.513  56.213 -60.003  1.00  0.00     0.072 A 
BRANCH  17  18
HETATM   18  O   UNL     1     -42.147  56.189 -60.013  1.00  0.00    -0.360 OA
HETATM   19  H   UNL     1     -41.830  55.409 -60.514  1.00  0.00     0.217 HD
ENDBRANCH  17  18
ENDBRANCH  11  12
ENDBRANCH   8  11
ENDBRANCH   1   7
BRANCH   3  20
HETATM   20  C   UNL     1     -40.957  54.677 -54.060  1.00  0.00    -0.060 C 
HETATM   21  C   UNL     1     -40.654  53.545 -53.796  1.00  0.00    -0.041 C 
BRANCH  21  22
HETATM   22  C   UNL     1     -40.281  52.210 -53.456  1.00  0.00     0.110 A 
HETATM   23  N   UNL     1     -39.880  52.042 -52.178  1.00  0.00    -0.252 NA
HETATM   24  C   UNL     1     -39.510  50.794 -51.818  1.00  0.00     0.118 A 
HETATM   25  C   UNL     1     -39.520  49.708 -52.680  1.00  0.00     0.019 A 
HETATM   26  C   UNL     1     -39.937  49.912 -53.992  1.00  0.00     0.004 A 
HETATM   27  C   UNL     1     -40.327  51.188 -54.393  1.00  0.00     0.041 A 
ENDBRANCH  21  22
ENDBRANCH   3  20
TORSDOF 6
ENDMDL
MODEL 2
REMARK VINA RESULT:      -7.5      1.648      2.323
REMARK  6 active torsions:
REMARK  status: ('A' for Active; 'I' for Inactive)
REMARK    1  A    between atoms: C_3  and  C_4 
REMARK    2  A    between atoms: C_4  and  C_5 
REMARK       I    between atoms: C_5  and  N_6 
REMARK    3  A    between atoms: N_6  and  C_7 
REMARK    4  A    between atoms: C_9  and  C_10 
REMARK    5  A    between atoms: C_11  and  C_12 
REMARK    6  A    between atoms: C_22  and  O_23 
ROOT
HETATM    1  C   UNL     1     -42.343  57.681 -54.158  1.00  0.00     0.036 A 
HETATM    2  C   UNL     1     -41.861  56.375 -54.040  1.00  0.00     0.050 A 
HETATM    3  C   UNL     1     -41.375  55.906 -52.813  1.00  0.00     0.020 A 
HETATM    4  C   UNL     1     -41.360  56.745 -51.698  1.00  0.00     0.021 A 
HETATM    5  C   UNL     1     -41.836  58.050 -51.807  1.00  0.00     0.004 A 
HETATM    6  C   UNL     1     -42.329  58.513 -53.029  1.00  0.00     0.029 A 
ENDROOT
BRANCH   1   7
HETATM    7  N   UNL     1     -42.889  58.216 -55.345  1.00  0.00    -0.327 N 
HETATM    8  C   UNL     1     -42.395  59.269 -56.093  1.00  0.00     0.226 C 
HETATM    9  O   UNL     1     -41.471  60.018 -55.784  1.00  0.00    -0.273 OA
HETATM   10  H   UNL     1     -43.759  57.803 -55.655  1.00  0.00     0.169 HD
BRANCH   8  11
HETATM   11  C   UNL     1     -43.123  59.475 -57.411  1.00  0.00     0.144 C 
BRANCH  11  12
HETATM   12  C   UNL     1     -43.139  58.245 -58.283  1.00  0.00    -0.016 A 
HETATM   13  C   UNL     1     -42.085  58.034 -59.190  1.00  0.00     0.010 A 
HETATM   14  C   UNL     1     -42.097  56.947 -60.066  1.00  0.00     0.001 A 
HETATM   15  C   UNL     1     -43.166  56.056 -60.057  1.00  0.00     0.003 A 
HETATM   16  C   UNL     1     -44.219  56.250 -59.166  1.00  0.00     0.037 A 
HETATM   17  C   UNL     1     -44.200  57.327 -58.282  1.00  0.00     0.072 A 
BRANCH  17  18
HETATM   18  O   UNL     1     -45.279  57.435 -57.451  1.00  0.00    -0.360 OA
HETATM   19  H   UNL     1     -44.998  57.793 -56.582  1.00  0.00     0.217 HD
ENDBRANCH  17  18
ENDBRANCH  11  12
ENDBRANCH   8  11
ENDBRANCH   1   7
BRANCH   3  20
HETATM   20  C   UNL     1     -40.917  54.555 -52.700  1.00  0.00    -0.060 C 
HETATM   21  C   UNL     1     -40.556  53.412 -52.627  1.00  0.00    -0.041 C 
BRANCH  21  22
HETATM   22  C   UNL     1     -40.149  52.045 -52.560  1.00  0.00     0.110 A 
HETATM   23  N   UNL     1     -40.113  51.406 -53.749  1.00  0.00    -0.252 NA
HETATM   24  C   UNL     1     -39.741  50.108 -53.728  1.00  0.00     0.118 A 
HETATM   25  C   UNL     1     -39.405  49.421 -52.572  1.00  0.00     0.019 A 
HETATM   26  C   UNL     1     -39.452  50.106 -51.361  1.00  0.00     0.004 A 
HETATM   27  C   UNL     1     -39.831  51.446 -51.351  1.00  0.00     0.041 A 
ENDBRANCH  21  22
ENDBRANCH   3  20
TORSDOF 6
ENDMDL
MODEL 3
REMARK VINA RESULT:      -7.2      3.091      5.441
REMARK  6 active torsions:
REMARK  status: ('A' for Active; 'I' for Inactive)
REMARK    1  A    between atoms: C_3  and  C_4 
REMARK    2  A    between atoms: C_4  and  C_5 
REMARK       I    between atoms: C_5  and  N_6 
REMARK    3  A    between atoms: N_6  and  C_7 
REMARK    4  A    between atoms: C_9  and  C_10 
REMARK    5  A    between atoms: C_11  and  C_12 
REMARK    6  A    between atoms: C_22  and  O_23 
ROOT
HETATM    1  C   UNL     1     -43.536  57.596 -59.437  1.00  0.00     0.036 A 
HETATM    2  C   UNL     1     -43.109  57.034 -58.231  1.00  0.00     0.050 A 
HETATM    3  C   UNL     1     -43.276  55.664 -57.988  1.00  0.00     0.020 A 
HETATM    4  C   UNL     1     -43.880  54.851 -58.948  1.00  0.00     0.021 A 
HETATM    5  C   UNL     1     -44.311  55.404 -60.152  1.00  0.00     0.004 A 
HETATM    6  C   UNL     1     -44.135  56.768 -60.396  1.00  0.00     0.029 A 
ENDROOT
BRANCH   1   7
HETATM    7  N   UNL     1     -43.365  58.956 -59.776  1.00  0.00    -0.327 N 
HETATM    8  C   UNL     1     -42.450  59.489 -60.665  1.00  0.00     0.226 C 
HETATM    9  O   UNL     1     -41.529  58.890 -61.216  1.00  0.00    -0.273 OA
HETATM   10  H   UNL     1     -43.955  59.611 -59.279  1.00  0.00     0.169 HD
BRANCH   8  11
HETATM   11  C   UNL     1     -42.651  60.971 -60.933  1.00  0.00     0.144 C 
BRANCH  11  12
HETATM   12  C   UNL     1     -41.503  61.826 -60.458  1.00  0.00    -0.016 A 
HETATM   13  C   UNL     1     -40.678  62.453 -61.409  1.00  0.00     0.010 A 
HETATM   14  C   UNL     1     -39.561  63.194 -61.013  1.00  0.00     0.001 A 
HETATM   15  C   UNL     1     -39.247  63.314 -59.663  1.00  0.00     0.003 A 
HETATM   16  C   UNL     1     -40.054  62.699 -58.708  1.00  0.00     0.037 A 
HETATM   17  C   UNL     1     -41.175  61.972 -59.102  1.00  0.00     0.072 A 
BRANCH  17  18
HETATM   18  O   UNL     1     -41.900  61.402 -58.094  1.00  0.00    -0.360 OA
HETATM   19  H   UNL     1     -42.483  62.074 -57.680  1.00  0.00     0.217 HD
ENDBRANCH  17  18
ENDBRANCH  11  12
ENDBRANCH   8  11
ENDBRANCH   1   7
BRANCH   3  20
HETATM   20  C   UNL     1     -42.803  55.098 -56.763  1.00  0.00    -0.060 C 
HETATM   21  C   UNL     1     -42.377  54.639 -55.737  1.00  0.00    -0.041 C 
BRANCH  21  22
HETATM   22  C   UNL     1     -41.846  54.110 -54.523  1.00  0.00     0.110 A 
HETATM   23  N   UNL     1     -42.484  54.512 -53.403  1.00  0.00    -0.252 NA
HETATM   24  C   UNL     1     -42.006  54.041 -52.231  1.00  0.00     0.118 A 
HETATM   25  C   UNL     1     -40.919  53.187 -52.129  1.00  0.00     0.019 A 
HETATM   26  C   UNL     1     -40.280  52.790 -53.300  1.00  0.00     0.004 A 
HETATM   27  C   UNL     1     -40.751  53.259 -54.525  1.00  0.00     0.041 A 
ENDBRANCH  21  22
ENDBRANCH   3  20
TORSDOF 6
ENDMDL
MODEL 4
REMARK VINA RESULT:      -7.2      1.831      2.609
REMARK  6 active torsions:
REMARK  status: ('A' for Active; 'I' for Inactive)
REMARK    1  A    between atoms: C_3  and  C_4 
REMARK    2  A    between atoms: C_4  and  C_5 
REMARK       I    between atoms: C_5  and  N_6 
REMARK    3  A    between atoms: N_6  and  C_7 
REMARK    4  A    between atoms: C_9  and  C_10 
REMARK    5  A    between atoms: C_11  and  C_12 
REMARK    6  A    between atoms: C_22  and  O_23 
ROOT
HETATM    1  C   UNL     1     -42.196  58.010 -53.840  1.00  0.00     0.036 A 
HETATM    2  C   UNL     1     -41.748  56.689 -53.913  1.00  0.00     0.050 A 
HETATM    3  C   UNL     1     -41.342  56.012 -52.756  1.00  0.00     0.020 A 
HETATM    4  C   UNL     1     -41.374  56.657 -51.519  1.00  0.00     0.021 A 
HETATM    5  C   UNL     1     -41.817  57.976 -51.437  1.00  0.00     0.004 A 
HETATM    6  C   UNL     1     -42.230  58.646 -52.591  1.00  0.00     0.029 A 
ENDROOT
BRANCH   1   7
HETATM    7  N   UNL     1     -42.663  58.747 -54.950  1.00  0.00    -0.327 N 
HETATM    8  C   UNL     1     -43.969  58.863 -55.389  1.00  0.00     0.226 C 
HETATM    9  O   UNL     1     -44.941  58.235 -54.973  1.00  0.00    -0.273 OA
HETATM   10  H   UNL     1     -41.951  59.205 -55.505  1.00  0.00     0.169 HD
BRANCH   8  11
HETATM   11  C   UNL     1     -44.149  59.876 -56.507  1.00  0.00     0.144 C 
BRANCH  11  12
HETATM   12  C   UNL     1     -43.707  59.362 -57.855  1.00  0.00    -0.016 A 
HETATM   13  C   UNL     1     -44.643  58.715 -58.681  1.00  0.00     0.010 A 
HETATM   14  C   UNL     1     -44.259  58.161 -59.905  1.00  0.00     0.001 A 
HETATM   15  C   UNL     1     -42.933  58.239 -60.320  1.00  0.00     0.003 A 
HETATM   16  C   UNL     1     -41.993  58.877 -59.514  1.00  0.00     0.037 A 
HETATM   17  C   UNL     1     -42.379  59.441 -58.299  1.00  0.00     0.072 A 
BRANCH  17  18
HETATM   18  O   UNL     1     -41.386  60.040 -57.578  1.00  0.00    -0.360 OA
HETATM   19  H   UNL     1     -41.324  60.989 -57.818  1.00  0.00     0.217 HD
ENDBRANCH  17  18
ENDBRANCH  11  12
ENDBRANCH   8  11
ENDBRANCH   1   7
BRANCH   3  20
HETATM   20  C   UNL     1     -40.918  54.649 -52.842  1.00  0.00    -0.060 C 
HETATM   21  C   UNL     1     -40.592  53.496 -52.928  1.00  0.00    -0.041 C 
BRANCH  21  22
HETATM   22  C   UNL     1     -40.232  52.119 -53.039  1.00  0.00     0.110 A 
HETATM   23  N   UNL     1     -39.819  51.546 -51.889  1.00  0.00    -0.252 NA
HETATM   24  C   UNL     1     -39.461  50.246 -51.953  1.00  0.00     0.118 A 
HETATM   25  C   UNL     1     -39.496  49.494 -53.117  1.00  0.00     0.019 A 
HETATM   26  C   UNL     1     -39.925  50.111 -54.288  1.00  0.00     0.004 A 
HETATM   27  C   UNL     1     -40.303  51.451 -54.253  1.00  0.00     0.041 A 
ENDBRANCH  21  22
ENDBRANCH   3  20
TORSDOF 6
ENDMDL
MODEL 5
REMARK VINA RESULT:      -7.0      3.960      6.523
REMARK  6 active torsions:
REMARK  status: ('A' for Active; 'I' for Inactive)
REMARK    1  A    between atoms: C_3  and  C_4 
REMARK    2  A    between atoms: C_4  and  C_5 
REMARK       I    between atoms: C_5  and  N_6 
REMARK    3  A    between atoms: N_6  and  C_7 
REMARK    4  A    between atoms: C_9  and  C_10 
REMARK    5  A    between atoms: C_11  and  C_12 
REMARK    6  A    between atoms: C_22  and  O_23 
ROOT
HETATM    1  C   UNL     1     -44.113  57.057 -54.862  1.00  0.00     0.036 A 
HETATM    2  C   UNL     1     -43.436  55.953 -54.337  1.00  0.00     0.050 A 
HETATM    3  C   UNL     1     -42.624  55.162 -55.159  1.00  0.00     0.020 A 
HETATM    4  C   UNL     1     -42.493  55.464 -56.515  1.00  0.00     0.021 A 
HETATM    5  C   UNL     1     -43.168  56.561 -57.048  1.00  0.00     0.004 A 
HETATM    6  C   UNL     1     -43.969  57.355 -56.224  1.00  0.00     0.029 A 
ENDROOT
BRANCH   1   7
HETATM    7  N   UNL     1     -44.915  57.929 -54.093  1.00  0.00    -0.327 N 
HETATM    8  C   UNL     1     -44.501  58.761 -53.068  1.00  0.00     0.226 C 
HETATM    9  O   UNL     1     -43.387  58.788 -52.551  1.00  0.00    -0.273 OA
HETATM   10  H   UNL     1     -45.906  57.907 -54.293  1.00  0.00     0.169 HD
BRANCH   8  11
HETATM   11  C   UNL     1     -45.587  59.699 -52.570  1.00  0.00     0.144 C 
BRANCH  11  12
HETATM   12  C   UNL     1     -45.122  60.618 -51.466  1.00  0.00    -0.016 A 
HETATM   13  C   UNL     1     -44.506  61.836 -51.804  1.00  0.00     0.010 A 
HETATM   14  C   UNL     1     -43.997  62.682 -50.815  1.00  0.00     0.001 A 
HETATM   15  C   UNL     1     -44.088  62.320 -49.475  1.00  0.00     0.003 A 
HETATM   16  C   UNL     1     -44.695  61.117 -49.123  1.00  0.00     0.037 A 
HETATM   17  C   UNL     1     -45.216  60.281 -50.108  1.00  0.00     0.072 A 
BRANCH  17  18
HETATM   18  O   UNL     1     -45.787  59.122 -49.665  1.00  0.00    -0.360 OA
HETATM   19  H   UNL     1     -46.285  58.694 -50.393  1.00  0.00     0.217 HD
ENDBRANCH  17  18
ENDBRANCH  11  12
ENDBRANCH   8  11
ENDBRANCH   1   7
BRANCH   3  20
HETATM   20  C   UNL     1     -41.910  54.056 -54.598  1.00  0.00    -0.060 C 
HETATM   21  C   UNL     1     -41.314  53.111 -54.157  1.00  0.00    -0.041 C 
BRANCH  21  22
HETATM   22  C   UNL     1     -40.611  51.973 -53.658  1.00  0.00     0.110 A 
HETATM   23  N   UNL     1     -40.151  52.100 -52.395  1.00  0.00    -0.252 NA
HETATM   24  C   UNL     1     -39.473  51.049 -51.888  1.00  0.00     0.118 A 
HETATM   25  C   UNL     1     -39.232  49.877 -52.588  1.00  0.00     0.019 A 
HETATM   26  C   UNL     1     -39.717  49.775 -53.889  1.00  0.00     0.004 A 
HETATM   27  C   UNL     1     -40.423  50.843 -54.439  1.00  0.00     0.041 A 
ENDBRANCH  21  22
ENDBRANCH   3  20
TORSDOF 6
ENDMDL
MODEL 6
REMARK VINA RESULT:      -6.9      3.191      8.226
REMARK  6 active torsions:
REMARK  status: ('A' for Active; 'I' for Inactive)
REMARK    1  A    between atoms: C_3  and  C_4 
REMARK    2  A    between atoms: C_4  and  C_5 
REMARK       I    between atoms: C_5  and  N_6 
REMARK    3  A    between atoms: N_6  and  C_7 
REMARK    4  A    between atoms: C_9  and  C_10 
REMARK    5  A    between atoms: C_11  and  C_12 
REMARK    6  A    between atoms: C_22  and  O_23 
ROOT
HETATM    1  C   UNL     1     -41.755  57.803 -52.358  1.00  0.00     0.036 A 
HETATM    2  C   UNL     1     -41.777  57.971 -53.745  1.00  0.00     0.050 A 
HETATM    3  C   UNL     1     -41.960  59.242 -54.303  1.00  0.00     0.020 A 
HETATM    4  C   UNL     1     -42.130  60.353 -53.477  1.00  0.00     0.021 A 
HETATM    5  C   UNL     1     -42.112  60.195 -52.092  1.00  0.00     0.004 A 
HETATM    6  C   UNL     1     -41.920  58.927 -51.537  1.00  0.00     0.029 A 
ENDROOT
BRANCH   1   7
HETATM    7  N   UNL     1     -41.533  56.564 -51.717  1.00  0.00    -0.327 N 
HETATM    8  C   UNL     1     -42.485  55.720 -51.177  1.00  0.00     0.226 C 
HETATM    9  O   UNL     1     -43.682  55.960 -51.034  1.00  0.00    -0.273 OA
HETATM   10  H   UNL     1     -40.565  56.291 -51.610  1.00  0.00     0.169 HD
BRANCH   8  11
HETATM   11  C   UNL     1     -41.926  54.383 -50.721  1.00  0.00     0.144 C 
BRANCH  11  12
HETATM   12  C   UNL     1     -41.378  53.547 -51.851  1.00  0.00    -0.016 A 
HETATM   13  C   UNL     1     -40.236  52.757 -51.626  1.00  0.00     0.010 A 
HETATM   14  C   UNL     1     -39.654  52.025 -52.663  1.00  0.00     0.001 A 
HETATM   15  C   UNL     1     -40.198  52.076 -53.943  1.00  0.00     0.003 A 
HETATM   16  C   UNL     1     -41.328  52.853 -54.183  1.00  0.00     0.037 A 
HETATM   17  C   UNL     1     -41.917  53.573 -53.145  1.00  0.00     0.072 A 
BRANCH  17  18
HETATM   18  O   UNL     1     -43.018  54.308 -53.480  1.00  0.00    -0.360 OA
HETATM   19  H   UNL     1     -43.192  54.984 -52.791  1.00  0.00     0.217 HD
ENDBRANCH  17  18
ENDBRANCH  11  12
ENDBRANCH   8  11
ENDBRANCH   1   7
BRANCH   3  20
HETATM   20  C   UNL     1     -41.946  59.402 -55.725  1.00  0.00    -0.060 C 
HETATM   21  C   UNL     1     -41.947  59.505 -56.922  1.00  0.00    -0.041 C 
BRANCH  21  22
HETATM   22  C   UNL     1     -41.958  59.599 -58.346  1.00  0.00     0.110 A 
HETATM   23  N   UNL     1     -42.046  58.416 -58.991  1.00  0.00    -0.252 NA
HETATM   24  C   UNL     1     -42.050  58.461 -60.341  1.00  0.00     0.118 A 
HETATM   25  C   UNL     1     -41.970  59.635 -61.073  1.00  0.00     0.019 A 
HETATM   26  C   UNL     1     -41.880  60.839 -60.382  1.00  0.00     0.004 A 
HETATM   27  C   UNL     1     -41.874  60.825 -58.988  1.00  0.00     0.041 A 
ENDBRANCH  21  22
ENDBRANCH   3  20
TORSDOF 6
ENDMDL
MODEL 7
REMARK VINA RESULT:      -6.9      2.978      8.585
REMARK  6 active torsions:
REMARK  status: ('A' for Active; 'I' for Inactive)
REMARK    1  A    between atoms: C_3  and  C_4 
REMARK    2  A    between atoms: C_4  and  C_5 
REMARK       I    between atoms: C_5  and  N_6 
REMARK    3  A    between atoms: N_6  and  C_7 
REMARK    4  A    between atoms: C_9  and  C_10 
REMARK    5  A    between atoms: C_11  and  C_12 
REMARK    6  A    between atoms: C_22  and  O_23 
ROOT
HETATM    1  C   UNL     1     -43.923  57.209 -53.497  1.00  0.00     0.036 A 
HETATM    2  C   UNL     1     -44.553  57.125 -54.742  1.00  0.00     0.050 A 
HETATM    3  C   UNL     1     -45.054  58.277 -55.362  1.00  0.00     0.020 A 
HETATM    4  C   UNL     1     -44.936  59.518 -54.736  1.00  0.00     0.021 A 
HETATM    5  C   UNL     1     -44.313  59.610 -53.493  1.00  0.00     0.004 A 
HETATM    6  C   UNL     1     -43.805  58.462 -52.881  1.00  0.00     0.029 A 
ENDROOT
BRANCH   1   7
HETATM    7  N   UNL     1     -43.354  56.104 -52.827  1.00  0.00    -0.327 N 
HETATM    8  C   UNL     1     -42.009  55.818 -52.678  1.00  0.00     0.226 C 
HETATM    9  O   UNL     1     -41.071  56.399 -53.221  1.00  0.00    -0.273 OA
HETATM   10  H   UNL     1     -44.009  55.432 -52.451  1.00  0.00     0.169 HD
BRANCH   8  11
HETATM   11  C   UNL     1     -41.734  54.648 -51.748  1.00  0.00     0.144 C 
BRANCH  11  12
HETATM   12  C   UNL     1     -41.078  53.478 -52.437  1.00  0.00    -0.016 A 
HETATM   13  C   UNL     1     -40.094  52.744 -51.751  1.00  0.00     0.010 A 
HETATM   14  C   UNL     1     -39.410  51.699 -52.378  1.00  0.00     0.001 A 
HETATM   15  C   UNL     1     -39.694  51.375 -53.701  1.00  0.00     0.003 A 
HETATM   16  C   UNL     1     -40.666  52.091 -54.395  1.00  0.00     0.037 A 
HETATM   17  C   UNL     1     -41.358  53.125 -53.765  1.00  0.00     0.072 A 
BRANCH  17  18
HETATM   18  O   UNL     1     -42.288  53.771 -54.529  1.00  0.00    -0.360 OA
HETATM   19  H   UNL     1     -42.997  54.134 -53.957  1.00  0.00     0.217 HD
ENDBRANCH  17  18
ENDBRANCH  11  12
ENDBRANCH   8  11
ENDBRANCH   1   7
BRANCH   3  20
HETATM   20  C   UNL     1     -45.665  58.179 -56.652  1.00  0.00    -0.060 C 
HETATM   21  C   UNL     1     -46.158  58.073 -57.743  1.00  0.00    -0.041 C 
BRANCH  21  22
HETATM   22  C   UNL     1     -46.722  57.925 -59.045  1.00  0.00     0.110 A 
HETATM   23  N   UNL     1     -47.182  59.068 -59.596  1.00  0.00    -0.252 NA
HETATM   24  C   UNL     1     -47.732  58.970 -60.825  1.00  0.00     0.118 A 
HETATM   25  C   UNL     1     -47.844  57.780 -61.527  1.00  0.00     0.019 A 
HETATM   26  C   UNL     1     -47.362  56.617 -60.934  1.00  0.00     0.004 A 
HETATM   27  C   UNL     1     -46.787  56.687 -59.666  1.00  0.00     0.041 A 
ENDBRANCH  21  22
ENDBRANCH   3  20
TORSDOF 6
ENDMDL
MODEL 8
REMARK VINA RESULT:      -6.9      4.672      8.737
REMARK  6 active torsions:
REMARK  status: ('A' for Active; 'I' for Inactive)
REMARK    1  A    between atoms: C_3  and  C_4 
REMARK    2  A    between atoms: C_4  and  C_5 
REMARK       I    between atoms: C_5  and  N_6 
REMARK    3  A    between atoms: N_6  and  C_7 
REMARK    4  A    between atoms: C_9  and  C_10 
REMARK    5  A    between atoms: C_11  and  C_12 
REMARK    6  A    between atoms: C_22  and  O_23 
ROOT
HETATM    1  C   UNL     1     -43.200  57.424 -54.480  1.00  0.00     0.036 A 
HETATM    2  C   UNL     1     -43.353  58.138 -53.289  1.00  0.00     0.050 A 
HETATM    3  C   UNL     1     -44.377  59.085 -53.155  1.00  0.00     0.020 A 
HETATM    4  C   UNL     1     -45.248  59.330 -54.217  1.00  0.00     0.021 A 
HETATM    5  C   UNL     1     -45.101  58.625 -55.410  1.00  0.00     0.004 A 
HETATM    6  C   UNL     1     -44.086  57.674 -55.538  1.00  0.00     0.029 A 
ENDROOT
BRANCH   1   7
HETATM    7  N   UNL     1     -42.224  56.424 -54.680  1.00  0.00    -0.327 N 
HETATM    8  C   UNL     1     -42.407  55.054 -54.632  1.00  0.00     0.226 C 
HETATM    9  O   UNL     1     -43.422  54.463 -54.271  1.00  0.00    -0.273 OA
HETATM   10  H   UNL     1     -41.281  56.755 -54.835  1.00  0.00     0.169 HD
BRANCH   8  11
HETATM   11  C   UNL     1     -41.188  54.260 -55.070  1.00  0.00     0.144 C 
BRANCH  11  12
HETATM   12  C   UNL     1     -40.608  53.402 -53.973  1.00  0.00    -0.016 A 
HETATM   13  C   UNL     1     -40.167  52.103 -54.283  1.00  0.00     0.010 A 
HETATM   14  C   UNL     1     -39.691  51.248 -53.285  1.00  0.00     0.001 A 
HETATM   15  C   UNL     1     -39.656  51.676 -51.961  1.00  0.00     0.003 A 
HETATM   16  C   UNL     1     -40.089  52.959 -51.637  1.00  0.00     0.037 A 
HETATM   17  C   UNL     1     -40.550  53.816 -52.635  1.00  0.00     0.072 A 
BRANCH  17  18
HETATM   18  O   UNL     1     -40.957  55.051 -52.218  1.00  0.00    -0.360 OA
HETATM   19  H   UNL     1     -40.417  55.746 -52.651  1.00  0.00     0.217 HD
ENDBRANCH  17  18
ENDBRANCH  11  12
ENDBRANCH   8  11
ENDBRANCH   1   7
BRANCH   3  20
HETATM   20  C   UNL     1     -44.541  59.783 -51.917  1.00  0.00    -0.060 C 
HETATM   21  C   UNL     1     -44.705  60.349 -50.870  1.00  0.00    -0.041 C 
BRANCH  21  22
HETATM   22  C   UNL     1     -44.923  61.003 -49.620  1.00  0.00     0.110 A 
HETATM   23  N   UNL     1     -45.644  60.292 -48.727  1.00  0.00    -0.252 NA
HETATM   24  C   UNL     1     -45.881  60.880 -47.535  1.00  0.00     0.118 A 
HETATM   25  C   UNL     1     -45.430  62.146 -47.197  1.00  0.00     0.019 A 
HETATM   26  C   UNL     1     -44.691  62.856 -48.138  1.00  0.00     0.004 A 
HETATM   27  C   UNL     1     -44.429  62.276 -49.377  1.00  0.00     0.041 A 
ENDBRANCH  21  22
ENDBRANCH   3  20
TORSDOF 6
ENDMDL
MODEL 9
REMARK VINA RESULT:      -6.8      2.342      2.713
REMARK  6 active torsions:
REMARK  status: ('A' for Active; 'I' for Inactive)
REMARK    1  A    between atoms: C_3  and  C_4 
REMARK    2  A    between atoms: C_4  and  C_5 
REMARK       I    between atoms: C_5  and  N_6 
REMARK    3  A    between atoms: N_6  and  C_7 
REMARK    4  A    between atoms: C_9  and  C_10 
REMARK    5  A    between atoms: C_11  and  C_12 
REMARK    6  A    between atoms: C_22  and  O_23 
ROOT
HETATM    1  C   UNL     1     -44.846  58.087 -53.931  1.00  0.00     0.036 A 
HETATM    2  C   UNL     1     -44.005  56.972 -53.966  1.00  0.00     0.050 A 
HETATM    3  C   UNL     1     -43.425  56.483 -52.789  1.00  0.00     0.020 A 
HETATM    4  C   UNL     1     -43.676  57.113 -51.569  1.00  0.00     0.021 A 
HETATM    5  C   UNL     1     -44.511  58.228 -51.525  1.00  0.00     0.004 A 
HETATM    6  C   UNL     1     -45.096  58.708 -52.700  1.00  0.00     0.029 A 
ENDROOT
BRANCH   1   7
HETATM    7  N   UNL     1     -45.502  58.616 -55.064  1.00  0.00    -0.327 N 
HETATM    8  C   UNL     1     -44.942  59.366 -56.082  1.00  0.00     0.226 C 
HETATM    9  O   UNL     1     -43.802  59.824 -56.113  1.00  0.00    -0.273 OA
HETATM   10  H   UNL     1     -46.500  58.457 -55.108  1.00  0.00     0.169 HD
BRANCH   8  11
HETATM   11  C   UNL     1     -45.889  59.624 -57.241  1.00  0.00     0.144 C 
BRANCH  11  12
HETATM   12  C   UNL     1     -45.769  58.608 -58.350  1.00  0.00    -0.016 A 
HETATM   13  C   UNL     1     -46.830  57.712 -58.573  1.00  0.00     0.010 A 
HETATM   14  C   UNL     1     -46.731  56.708 -59.541  1.00  0.00     0.001 A 
HETATM   15  C   UNL     1     -45.568  56.580 -60.295  1.00  0.00     0.003 A 
HETATM   16  C   UNL     1     -44.509  57.460 -60.086  1.00  0.00     0.037 A 
HETATM   17  C   UNL     1     -44.613  58.469 -59.131  1.00  0.00     0.072 A 
BRANCH  17  18
HETATM   18  O   UNL     1     -43.521  59.278 -58.997  1.00  0.00    -0.360 OA
HETATM   19  H   UNL     1     -42.936  58.937 -58.287  1.00  0.00     0.217 HD
ENDBRANCH  17  18
ENDBRANCH  11  12
ENDBRANCH   8  11
ENDBRANCH   1   7
BRANCH   3  20
HETATM   20  C   UNL     1     -42.594  55.319 -52.837  1.00  0.00    -0.060 C 
HETATM   21  C   UNL     1     -41.898  54.343 -52.910  1.00  0.00    -0.041 C 
BRANCH  21  22
HETATM   22  C   UNL     1     -41.073  53.184 -53.028  1.00  0.00     0.110 A 
HETATM   23  N   UNL     1     -41.166  52.541 -54.211  1.00  0.00    -0.252 NA
HETATM   24  C   UNL     1     -40.408  51.434 -54.360  1.00  0.00     0.118 A 
HETATM   25  C   UNL     1     -39.562  50.941 -53.379  1.00  0.00     0.019 A 
HETATM   26  C   UNL     1     -39.487  51.624 -52.169  1.00  0.00     0.004 A 
HETATM   27  C   UNL     1     -40.257  52.771 -51.986  1.00  0.00     0.041 A 
ENDBRANCH  21  22
ENDBRANCH   3  20
TORSDOF 6
ENDMDL
MODEL 10
REMARK VINA RESULT:      -6.8      2.959      9.071
REMARK  6 active torsions:
REMARK  status: ('A' for Active; 'I' for Inactive)
REMARK    1  A    between atoms: C_3  and  C_4 
REMARK    2  A    between atoms: C_4  and  C_5 
REMARK       I    between atoms: C_5  and  N_6 
REMARK    3  A    between atoms: N_6  and  C_7 
REMARK    4  A    between atoms: C_9  and  C_10 
REMARK    5  A    between atoms: C_11  and  C_12 
REMARK    6  A    between atoms: C_22  and  O_23 
ROOT
HETATM    1  C   UNL     1     -42.038  55.732 -54.544  1.00  0.00     0.036 A 
HETATM    2  C   UNL     1     -42.178  56.470 -55.722  1.00  0.00     0.050 A 
HETATM    3  C   UNL     1     -43.160  57.464 -55.824  1.00  0.00     0.020 A 
HETATM    4  C   UNL     1     -44.014  57.719 -54.750  1.00  0.00     0.021 A 
HETATM    5  C   UNL     1     -43.884  56.985 -53.572  1.00  0.00     0.004 A 
HETATM    6  C   UNL     1     -42.898  56.001 -53.469  1.00  0.00     0.029 A 
ENDROOT
BRANCH   1   7
HETATM    7  N   UNL     1     -41.049  54.744 -54.345  1.00  0.00    -0.327 N 
HETATM    8  C   UNL     1     -41.188  53.377 -54.498  1.00  0.00     0.226 C 
HETATM    9  O   UNL     1     -42.235  52.765 -54.699  1.00  0.00    -0.273 OA
HETATM   10  H   UNL     1     -40.153  55.080 -54.016  1.00  0.00     0.169 HD
BRANCH   8  11
HETATM   11  C   UNL     1     -39.880  52.614 -54.379  1.00  0.00     0.144 C 
BRANCH  11  12
HETATM   12  C   UNL     1     -39.863  51.630 -53.236  1.00  0.00    -0.016 A 
HETATM   13  C   UNL     1     -39.902  52.114 -51.916  1.00  0.00     0.010 A 
HETATM   14  C   UNL     1     -39.816  51.241 -50.828  1.00  0.00     0.001 A 
HETATM   15  C   UNL     1     -39.681  49.873 -51.041  1.00  0.00     0.003 A 
HETATM   16  C   UNL     1     -39.641  49.377 -52.342  1.00  0.00     0.037 A 
HETATM   17  C   UNL     1     -39.741  50.246 -53.427  1.00  0.00     0.072 A 
BRANCH  17  18
HETATM   18  O   UNL     1     -39.687  49.665 -54.662  1.00  0.00    -0.360 OA
HETATM   19  H   UNL     1     -40.510  49.857 -55.159  1.00  0.00     0.217 HD
ENDBRANCH  17  18
ENDBRANCH  11  12
ENDBRANCH   8  11
ENDBRANCH   1   7
BRANCH   3  20
HETATM   20  C   UNL     1     -43.268  58.235 -57.024  1.00  0.00    -0.060 C 
HETATM   21  C   UNL     1     -43.333  58.901 -58.022  1.00  0.00    -0.041 C 
BRANCH  21  22
HETATM   22  C   UNL     1     -43.387  59.709 -59.197  1.00  0.00     0.110 A 
HETATM   23  N   UNL     1     -42.656  60.843 -59.139  1.00  0.00    -0.252 NA
HETATM   24  C   UNL     1     -42.688  61.641 -60.228  1.00  0.00     0.118 A 
HETATM   25  C   UNL     1     -43.419  61.357 -61.370  1.00  0.00     0.019 A 
HETATM   26  C   UNL     1     -44.164  60.182 -61.401  1.00  0.00     0.004 A 
HETATM   27  C   UNL     1     -44.150  59.337 -60.293  1.00  0.00     0.041 A 
ENDBRANCH  21  22
ENDBRANCH   3  20
TORSDOF 6
ENDMDL
