MODEL 1
REMARK VINA RESULT:      -9.1      0.000      0.000
REMARK  3 active torsions:
REMARK  status: ('A' for Active; 'I' for Inactive)
REMARK    1  A    between atoms: O_2  and  C_3 
REMARK    2  A    between atoms: C_4  and  N_5 
REMARK       I    between atoms: N_5  and  C_6 
REMARK       I    between atoms: C_6  and  N_7 
REMARK    3  A    between atoms: C_8  and  C_9 
ROOT
HETATM    1  N   UNL     1     -42.383  56.603 -55.275  1.00  0.00    -0.306 N 
HETATM    2  C   UNL     1     -43.204  55.974 -54.373  1.00  0.00     0.323 C 
HETATM    3  N   UNL     1     -42.629  55.783 -53.117  1.00  0.00    -0.324 N 
HETATM    4  C   UNL     1     -41.180  55.623 -52.888  1.00  0.00     0.139 C 
HETATM    5  C   UNL     1     -40.784  56.248 -51.541  1.00  0.00     0.032 C 
HETATM    6  C   UNL     1     -41.654  55.758 -50.382  1.00  0.00     0.004 C 
HETATM    7  C   UNL     1     -43.133  55.942 -50.704  1.00  0.00     0.020 C 
HETATM    8  C   UNL     1     -43.501  55.307 -52.040  1.00  0.00     0.128 C 
HETATM    9  O   UNL     1     -44.344  55.595 -54.627  1.00  0.00    -0.247 OA
HETATM   10  H   UNL     1     -41.686  57.225 -54.888  1.00  0.00     0.171 HD
ENDROOT
BRANCH   4  11
HETATM   11  C   UNL     1     -40.800  54.166 -53.023  1.00  0.00     0.033 A 
HETATM   12  N   UNL     1     -40.375  53.424 -51.940  1.00  0.00    -0.357 N 
HETATM   13  H   UNL     1     -40.251  53.788 -51.004  1.00  0.00     0.166 HD
HETATM   14  C   UNL     1     -40.090  52.131 -52.310  1.00  0.00     0.042 A 
HETATM   15  C   UNL     1     -40.358  52.027 -53.672  1.00  0.00    -0.007 A 
HETATM   16  C   UNL     1     -39.616  51.057 -51.547  1.00  0.00     0.030 A 
HETATM   17  C   UNL     1     -40.817  53.300 -54.104  1.00  0.00     0.041 A 
HETATM   18  C   UNL     1     -40.144  50.792 -54.313  1.00  0.00     0.014 A 
HETATM   19  C   UNL     1     -39.668  49.707 -53.568  1.00  0.00     0.001 A 
HETATM   20  C   UNL     1     -39.408  49.841 -52.205  1.00  0.00     0.002 A 
ENDBRANCH   4  11
BRANCH   1  21
HETATM   21  C   UNL     1     -42.597  56.800 -56.657  1.00  0.00     0.072 A 
HETATM   22  C   UNL     1     -42.454  58.116 -57.139  1.00  0.00     0.095 A 
HETATM   23  C   UNL     1     -42.668  58.410 -58.489  1.00  0.00     0.042 A 
HETATM   24  C   UNL     1     -42.977  57.378 -59.373  1.00  0.00     0.045 A 
HETATM   25  C   UNL     1     -43.078  56.073 -58.900  1.00  0.00     0.118 A 
HETATM   26  C   UNL     1     -42.894  55.774 -57.553  1.00  0.00     0.074 A 
HETATM   27  F   UNL     1     -43.364  55.088 -59.760  1.00  0.00    -0.206 F 
BRANCH  22  28
HETATM   28  O   UNL     1     -42.167  59.095 -56.215  1.00  0.00    -0.354 OA
HETATM   29  C   UNL     1     -42.117  60.399 -56.793  1.00  0.00     0.210 C 
ENDBRANCH  22  28
ENDBRANCH   1  21
TORSDOF 3
ENDMDL
MODEL 2
REMARK VINA RESULT:      -8.7      1.426      1.562
REMARK  3 active torsions:
REMARK  status: ('A' for Active; 'I' for Inactive)
REMARK    1  A    between atoms: O_2  and  C_3 
REMARK    2  A    between atoms: C_4  and  N_5 
REMARK       I    between atoms: N_5  and  C_6 
REMARK       I    between atoms: C_6  and  N_7 
REMARK    3  A    between atoms: C_8  and  C_9 
ROOT
HETATM    1  N   UNL     1     -43.036  56.982 -56.137  1.00  0.00    -0.306 N 
HETATM    2  C   UNL     1     -43.629  56.615 -54.955  1.00  0.00     0.323 C 
HETATM    3  N   UNL     1     -42.801  56.739 -53.840  1.00  0.00    -0.324 N 
HETATM    4  C   UNL     1     -41.331  56.619 -53.886  1.00  0.00     0.139 C 
HETATM    5  C   UNL     1     -40.690  57.559 -52.852  1.00  0.00     0.032 C 
HETATM    6  C   UNL     1     -41.284  57.392 -51.452  1.00  0.00     0.004 C 
HETATM    7  C   UNL     1     -42.803  57.512 -51.494  1.00  0.00     0.020 C 
HETATM    8  C   UNL     1     -43.415  56.565 -52.520  1.00  0.00     0.128 C 
HETATM    9  O   UNL     1     -44.781  56.202 -54.862  1.00  0.00    -0.247 OA
HETATM   10  H   UNL     1     -42.298  57.670 -56.072  1.00  0.00     0.171 HD
ENDROOT
BRANCH   4  11
HETATM   11  C   UNL     1     -40.932  55.170 -53.726  1.00  0.00     0.033 A 
HETATM   12  N   UNL     1     -40.615  54.636 -52.494  1.00  0.00    -0.357 N 
HETATM   13  H   UNL     1     -40.589  55.159 -51.628  1.00  0.00     0.166 HD
HETATM   14  C   UNL     1     -40.288  53.305 -52.603  1.00  0.00     0.042 A 
HETATM   15  C   UNL     1     -40.416  52.961 -53.946  1.00  0.00    -0.007 A 
HETATM   16  C   UNL     1     -39.887  52.390 -51.622  1.00  0.00     0.030 A 
HETATM   17  C   UNL     1     -40.835  54.131 -54.636  1.00  0.00     0.041 A 
HETATM   18  C   UNL     1     -40.132  51.640 -54.338  1.00  0.00     0.014 A 
HETATM   19  C   UNL     1     -39.728  50.711 -53.371  1.00  0.00     0.001 A 
HETATM   20  C   UNL     1     -39.608  51.083 -52.034  1.00  0.00     0.002 A 
ENDBRANCH   4  11
BRANCH   1  21
HETATM   21  C   UNL     1     -43.536  56.825 -57.447  1.00  0.00     0.072 A 
HETATM   22  C   UNL     1     -44.153  57.951 -58.029  1.00  0.00     0.095 A 
HETATM   23  C   UNL     1     -44.697  57.883 -59.314  1.00  0.00     0.042 A 
HETATM   24  C   UNL     1     -44.583  56.702 -60.045  1.00  0.00     0.045 A 
HETATM   25  C   UNL     1     -43.938  55.605 -59.482  1.00  0.00     0.118 A 
HETATM   26  C   UNL     1     -43.416  55.653 -58.192  1.00  0.00     0.074 A 
HETATM   27  F   UNL     1     -43.823  54.478 -60.197  1.00  0.00    -0.206 F 
BRANCH  22  28
HETATM   28  O   UNL     1     -44.253  59.082 -57.251  1.00  0.00    -0.354 OA
HETATM   29  C   UNL     1     -45.607  59.448 -56.987  1.00  0.00     0.210 C 
ENDBRANCH  22  28
ENDBRANCH   1  21
TORSDOF 3
ENDMDL
MODEL 3
REMARK VINA RESULT:      -8.6      2.629      6.986
REMARK  3 active torsions:
REMARK  status: ('A' for Active; 'I' for Inactive)
REMARK    1  A    between atoms: O_2  and  C_3 
REMARK    2  A    between atoms: C_4  and  N_5 
REMARK       I    between atoms: N_5  and  C_6 
REMARK       I    between atoms: C_6  and  N_7 
REMARK    3  A    between atoms: C_8  and  C_9 
ROOT
HETATM    1  N   UNL     1     -42.144  55.103 -52.652  1.00  0.00    -0.306 N 
HETATM    2  C   UNL     1     -41.788  56.427 -52.720  1.00  0.00     0.323 C 
HETATM    3  N   UNL     1     -42.796  57.264 -53.197  1.00  0.00    -0.324 N 
HETATM    4  C   UNL     1     -43.854  56.833 -54.132  1.00  0.00     0.139 C 
HETATM    5  C   UNL     1     -45.164  57.577 -53.829  1.00  0.00     0.032 C 
HETATM    6  C   UNL     1     -44.980  59.094 -53.755  1.00  0.00     0.004 C 
HETATM    7  C   UNL     1     -43.862  59.454 -52.783  1.00  0.00     0.020 C 
HETATM    8  C   UNL     1     -42.572  58.709 -53.109  1.00  0.00     0.128 C 
HETATM    9  O   UNL     1     -40.683  56.860 -52.406  1.00  0.00    -0.247 OA
HETATM   10  H   UNL     1     -43.128  54.911 -52.519  1.00  0.00     0.171 HD
ENDROOT
BRANCH   4  11
HETATM   11  C   UNL     1     -43.372  56.994 -55.555  1.00  0.00     0.033 A 
HETATM   12  N   UNL     1     -43.615  56.035 -56.517  1.00  0.00    -0.357 N 
HETATM   13  H   UNL     1     -44.087  55.156 -56.349  1.00  0.00     0.166 HD
HETATM   14  C   UNL     1     -43.082  56.406 -57.729  1.00  0.00     0.042 A 
HETATM   15  C   UNL     1     -42.494  57.655 -57.552  1.00  0.00    -0.007 A 
HETATM   16  C   UNL     1     -43.075  55.733 -58.957  1.00  0.00     0.030 A 
HETATM   17  C   UNL     1     -42.695  58.020 -56.194  1.00  0.00     0.041 A 
HETATM   18  C   UNL     1     -41.864  58.270 -58.650  1.00  0.00     0.014 A 
HETATM   19  C   UNL     1     -41.844  57.612 -59.885  1.00  0.00     0.001 A 
HETATM   20  C   UNL     1     -42.441  56.361 -60.033  1.00  0.00     0.002 A 
ENDBRANCH   4  11
BRANCH   1  21
HETATM   21  C   UNL     1     -41.318  53.993 -52.371  1.00  0.00     0.072 A 
HETATM   22  C   UNL     1     -41.247  53.580 -51.026  1.00  0.00     0.095 A 
HETATM   23  C   UNL     1     -40.439  52.504 -50.650  1.00  0.00     0.042 A 
HETATM   24  C   UNL     1     -39.734  51.803 -51.628  1.00  0.00     0.045 A 
HETATM   25  C   UNL     1     -39.838  52.190 -52.960  1.00  0.00     0.118 A 
HETATM   26  C   UNL     1     -40.619  53.277 -53.342  1.00  0.00     0.074 A 
HETATM   27  F   UNL     1     -39.166  51.503 -53.893  1.00  0.00    -0.206 F 
BRANCH  22  28
HETATM   28  O   UNL     1     -41.949  54.323 -50.104  1.00  0.00    -0.354 OA
HETATM   29  C   UNL     1     -41.119  54.829 -49.059  1.00  0.00     0.210 C 
ENDBRANCH  22  28
ENDBRANCH   1  21
TORSDOF 3
ENDMDL
MODEL 4
REMARK VINA RESULT:      -8.4      1.931      2.982
REMARK  3 active torsions:
REMARK  status: ('A' for Active; 'I' for Inactive)
REMARK    1  A    between atoms: O_2  and  C_3 
REMARK    2  A    between atoms: C_4  and  N_5 
REMARK       I    between atoms: N_5  and  C_6 
REMARK       I    between atoms: C_6  and  N_7 
REMARK    3  A    between atoms: C_8  and  C_9 
ROOT
HETATM    1  N   UNL     1     -43.246  57.632 -55.793  1.00  0.00    -0.306 N 
HETATM    2  C   UNL     1     -43.967  57.438 -54.642  1.00  0.00     0.323 C 
HETATM    3  N   UNL     1     -43.292  57.804 -53.478  1.00  0.00    -0.324 N 
HETATM    4  C   UNL     1     -41.824  57.771 -53.331  1.00  0.00     0.139 C 
HETATM    5  C   UNL     1     -41.357  58.913 -52.414  1.00  0.00     0.032 C 
HETATM    6  C   UNL     1     -42.115  58.953 -51.086  1.00  0.00     0.004 C 
HETATM    7  C   UNL     1     -43.620  58.968 -51.325  1.00  0.00     0.020 C 
HETATM    8  C   UNL     1     -44.058  57.822 -52.230  1.00  0.00     0.128 C 
HETATM    9  O   UNL     1     -45.104  56.975 -54.611  1.00  0.00    -0.247 OA
HETATM   10  H   UNL     1     -42.551  58.367 -55.768  1.00  0.00     0.171 HD
ENDROOT
BRANCH   4  11
HETATM   11  C   UNL     1     -41.388  56.399 -52.870  1.00  0.00     0.033 A 
HETATM   12  N   UNL     1     -41.027  55.413 -53.766  1.00  0.00    -0.357 N 
HETATM   13  H   UNL     1     -41.057  55.509 -54.772  1.00  0.00     0.166 HD
HETATM   14  C   UNL     1     -40.671  54.258 -53.110  1.00  0.00     0.042 A 
HETATM   15  C   UNL     1     -40.784  54.511 -51.746  1.00  0.00    -0.007 A 
HETATM   16  C   UNL     1     -40.263  53.019 -53.620  1.00  0.00     0.030 A 
HETATM   17  C   UNL     1     -41.218  55.857 -51.607  1.00  0.00     0.041 A 
HETATM   18  C   UNL     1     -40.478  53.480 -50.838  1.00  0.00     0.014 A 
HETATM   19  C   UNL     1     -40.070  52.234 -51.328  1.00  0.00     0.001 A 
HETATM   20  C   UNL     1     -39.966  52.010 -52.700  1.00  0.00     0.002 A 
ENDBRANCH   4  11
BRANCH   1  21
HETATM   21  C   UNL     1     -43.571  57.221 -57.104  1.00  0.00     0.072 A 
HETATM   22  C   UNL     1     -43.180  55.920 -57.475  1.00  0.00     0.095 A 
HETATM   23  C   UNL     1     -43.440  55.434 -58.760  1.00  0.00     0.042 A 
HETATM   24  C   UNL     1     -44.138  56.231 -59.665  1.00  0.00     0.045 A 
HETATM   25  C   UNL     1     -44.557  57.502 -59.281  1.00  0.00     0.118 A 
HETATM   26  C   UNL     1     -44.280  58.006 -58.013  1.00  0.00     0.074 A 
HETATM   27  F   UNL     1     -45.237  58.255 -60.154  1.00  0.00    -0.206 F 
BRANCH  22  28
HETATM   28  O   UNL     1     -42.477  55.187 -56.546  1.00  0.00    -0.354 OA
HETATM   29  C   UNL     1     -43.250  54.129 -55.981  1.00  0.00     0.210 C 
ENDBRANCH  22  28
ENDBRANCH   1  21
TORSDOF 3
ENDMDL
MODEL 5
REMARK VINA RESULT:      -8.3      3.085      7.084
REMARK  3 active torsions:
REMARK  status: ('A' for Active; 'I' for Inactive)
REMARK    1  A    between atoms: O_2  and  C_3 
REMARK    2  A    between atoms: C_4  and  N_5 
REMARK       I    between atoms: N_5  and  C_6 
REMARK       I    between atoms: C_6  and  N_7 
REMARK    3  A    between atoms: C_8  and  C_9 
ROOT
HETATM    1  N   UNL     1     -42.085  56.589 -52.290  1.00  0.00    -0.306 N 
HETATM    2  C   UNL     1     -41.616  57.805 -52.721  1.00  0.00     0.323 C 
HETATM    3  N   UNL     1     -42.575  58.593 -53.355  1.00  0.00    -0.324 N 
HETATM    4  C   UNL     1     -43.731  58.051 -54.095  1.00  0.00     0.139 C 
HETATM    5  C   UNL     1     -44.944  58.982 -53.941  1.00  0.00     0.032 C 
HETATM    6  C   UNL     1     -44.619  60.439 -54.276  1.00  0.00     0.004 C 
HETATM    7  C   UNL     1     -43.406  60.916 -53.484  1.00  0.00     0.020 C 
HETATM    8  C   UNL     1     -42.215  59.980 -53.661  1.00  0.00     0.128 C 
HETATM    9  O   UNL     1     -40.457  58.185 -52.581  1.00  0.00    -0.247 OA
HETATM   10  H   UNL     1     -43.070  56.543 -52.068  1.00  0.00     0.171 HD
ENDROOT
BRANCH   4  11
HETATM   11  C   UNL     1     -43.339  57.789 -55.531  1.00  0.00     0.033 A 
HETATM   12  N   UNL     1     -43.714  56.634 -56.188  1.00  0.00    -0.357 N 
HETATM   13  H   UNL     1     -44.234  55.875 -55.767  1.00  0.00     0.166 HD
HETATM   14  C   UNL     1     -43.242  56.625 -57.479  1.00  0.00     0.042 A 
HETATM   15  C   UNL     1     -42.556  57.821 -57.671  1.00  0.00    -0.007 A 
HETATM   16  C   UNL     1     -43.367  55.653 -58.479  1.00  0.00     0.030 A 
HETATM   17  C   UNL     1     -42.637  58.548 -56.453  1.00  0.00     0.041 A 
HETATM   18  C   UNL     1     -41.962  58.068 -58.923  1.00  0.00     0.014 A 
HETATM   19  C   UNL     1     -42.074  57.108 -59.936  1.00  0.00     0.001 A 
HETATM   20  C   UNL     1     -42.767  55.919 -59.714  1.00  0.00     0.002 A 
ENDBRANCH   4  11
BRANCH   1  21
HETATM   21  C   UNL     1     -41.345  55.507 -51.765  1.00  0.00     0.072 A 
HETATM   22  C   UNL     1     -41.051  54.451 -52.650  1.00  0.00     0.095 A 
HETATM   23  C   UNL     1     -40.343  53.329 -52.213  1.00  0.00     0.042 A 
HETATM   24  C   UNL     1     -39.881  53.279 -50.899  1.00  0.00     0.045 A 
HETATM   25  C   UNL     1     -40.140  54.342 -50.039  1.00  0.00     0.118 A 
HETATM   26  C   UNL     1     -40.868  55.453 -50.456  1.00  0.00     0.074 A 
HETATM   27  F   UNL     1     -39.682  54.290 -48.782  1.00  0.00    -0.206 F 
BRANCH  22  28
HETATM   28  O   UNL     1     -41.551  54.548 -53.929  1.00  0.00    -0.354 OA
HETATM   29  C   UNL     1     -40.529  54.759 -54.904  1.00  0.00     0.210 C 
ENDBRANCH  22  28
ENDBRANCH   1  21
TORSDOF 3
ENDMDL
MODEL 6
REMARK VINA RESULT:      -8.2      2.863      7.120
REMARK  3 active torsions:
REMARK  status: ('A' for Active; 'I' for Inactive)
REMARK    1  A    between atoms: O_2  and  C_3 
REMARK    2  A    between atoms: C_4  and  N_5 
REMARK       I    between atoms: N_5  and  C_6 
REMARK       I    between atoms: C_6  and  N_7 
REMARK    3  A    between atoms: C_8  and  C_9 
ROOT
HETATM    1  N   UNL     1     -41.268  55.214 -54.983  1.00  0.00    -0.306 N 
HETATM    2  C   UNL     1     -42.452  55.292 -55.673  1.00  0.00     0.323 C 
HETATM    3  N   UNL     1     -42.714  56.551 -56.214  1.00  0.00    -0.324 N 
HETATM    4  C   UNL     1     -42.221  57.816 -55.637  1.00  0.00     0.139 C 
HETATM    5  C   UNL     1     -41.923  58.828 -56.755  1.00  0.00     0.032 C 
HETATM    6  C   UNL     1     -43.092  59.001 -57.725  1.00  0.00     0.004 C 
HETATM    7  C   UNL     1     -43.551  57.650 -58.262  1.00  0.00     0.020 C 
HETATM    8  C   UNL     1     -43.848  56.668 -57.134  1.00  0.00     0.128 C 
HETATM    9  O   UNL     1     -43.234  54.355 -55.808  1.00  0.00    -0.247 OA
HETATM   10  H   UNL     1     -40.539  55.852 -55.272  1.00  0.00     0.171 HD
ENDROOT
BRANCH   4  11
HETATM   11  C   UNL     1     -43.200  58.319 -54.601  1.00  0.00     0.033 A 
HETATM   12  N   UNL     1     -43.362  57.684 -53.386  1.00  0.00    -0.357 N 
HETATM   13  H   UNL     1     -42.882  56.837 -53.110  1.00  0.00     0.166 HD
HETATM   14  C   UNL     1     -44.303  58.325 -52.616  1.00  0.00     0.042 A 
HETATM   15  C   UNL     1     -44.751  59.422 -53.347  1.00  0.00    -0.007 A 
HETATM   16  C   UNL     1     -44.790  58.015 -51.340  1.00  0.00     0.030 A 
HETATM   17  C   UNL     1     -44.043  59.418 -54.579  1.00  0.00     0.041 A 
HETATM   18  C   UNL     1     -45.734  60.257 -52.784  1.00  0.00     0.014 A 
HETATM   19  C   UNL     1     -46.235  59.962 -51.510  1.00  0.00     0.001 A 
HETATM   20  C   UNL     1     -45.767  58.857 -50.801  1.00  0.00     0.002 A 
ENDBRANCH   4  11
BRANCH   1  21
HETATM   21  C   UNL     1     -40.792  54.148 -54.190  1.00  0.00     0.072 A 
HETATM   22  C   UNL     1     -40.871  54.312 -52.793  1.00  0.00     0.095 A 
HETATM   23  C   UNL     1     -40.404  53.319 -51.929  1.00  0.00     0.042 A 
HETATM   24  C   UNL     1     -39.899  52.132 -52.459  1.00  0.00     0.045 A 
HETATM   25  C   UNL     1     -39.859  51.958 -53.839  1.00  0.00     0.118 A 
HETATM   26  C   UNL     1     -40.297  52.952 -54.709  1.00  0.00     0.074 A 
HETATM   27  F   UNL     1     -39.384  50.810 -54.337  1.00  0.00    -0.206 F 
BRANCH  22  28
HETATM   28  O   UNL     1     -41.360  55.513 -52.330  1.00  0.00    -0.354 OA
HETATM   29  C   UNL     1     -41.439  55.562 -50.906  1.00  0.00     0.210 C 
ENDBRANCH  22  28
ENDBRANCH   1  21
TORSDOF 3
ENDMDL
MODEL 7
REMARK VINA RESULT:      -7.9      3.497      6.760
REMARK  3 active torsions:
REMARK  status: ('A' for Active; 'I' for Inactive)
REMARK    1  A    between atoms: O_2  and  C_3 
REMARK    2  A    between atoms: C_4  and  N_5 
REMARK       I    between atoms: N_5  and  C_6 
REMARK       I    between atoms: C_6  and  N_7 
REMARK    3  A    between atoms: C_8  and  C_9 
ROOT
HETATM    1  N   UNL     1     -42.190  57.959 -52.614  1.00  0.00    -0.306 N 
HETATM    2  C   UNL     1     -42.900  56.789 -52.714  1.00  0.00     0.323 C 
HETATM    3  N   UNL     1     -42.314  55.837 -53.548  1.00  0.00    -0.324 N 
HETATM    4  C   UNL     1     -41.452  56.167 -54.700  1.00  0.00     0.139 C 
HETATM    5  C   UNL     1     -40.363  55.096 -54.871  1.00  0.00     0.032 C 
HETATM    6  C   UNL     1     -40.929  53.675 -54.905  1.00  0.00     0.004 C 
HETATM    7  C   UNL     1     -41.819  53.421 -53.693  1.00  0.00     0.020 C 
HETATM    8  C   UNL     1     -42.895  54.491 -53.551  1.00  0.00     0.128 C 
HETATM    9  O   UNL     1     -43.963  56.577 -52.139  1.00  0.00    -0.247 OA
HETATM   10  H   UNL     1     -41.191  57.889 -52.754  1.00  0.00     0.171 HD
ENDROOT
BRANCH   4  11
HETATM   11  C   UNL     1     -42.304  56.376 -55.930  1.00  0.00     0.033 A 
HETATM   12  N   UNL     1     -42.132  55.616 -57.070  1.00  0.00    -0.357 N 
HETATM   13  H   UNL     1     -41.422  54.905 -57.187  1.00  0.00     0.166 HD
HETATM   14  C   UNL     1     -43.021  55.990 -58.050  1.00  0.00     0.042 A 
HETATM   15  C   UNL     1     -43.807  57.009 -57.522  1.00  0.00    -0.007 A 
HETATM   16  C   UNL     1     -43.183  55.507 -59.354  1.00  0.00     0.030 A 
HETATM   17  C   UNL     1     -43.361  57.231 -56.191  1.00  0.00     0.041 A 
HETATM   18  C   UNL     1     -44.808  57.582 -58.329  1.00  0.00     0.014 A 
HETATM   19  C   UNL     1     -44.984  57.114 -59.637  1.00  0.00     0.001 A 
HETATM   20  C   UNL     1     -44.181  56.091 -60.139  1.00  0.00     0.002 A 
ENDBRANCH   4  11
BRANCH   1  21
HETATM   21  C   UNL     1     -42.581  59.163 -51.991  1.00  0.00     0.072 A 
HETATM   22  C   UNL     1     -41.791  59.604 -50.911  1.00  0.00     0.095 A 
HETATM   23  C   UNL     1     -42.115  60.774 -50.219  1.00  0.00     0.042 A 
HETATM   24  C   UNL     1     -43.203  61.538 -50.637  1.00  0.00     0.045 A 
HETATM   25  C   UNL     1     -43.957  61.120 -51.730  1.00  0.00     0.118 A 
HETATM   26  C   UNL     1     -43.660  59.942 -52.409  1.00  0.00     0.074 A 
HETATM   27  F   UNL     1     -44.994  61.867 -52.130  1.00  0.00    -0.206 F 
BRANCH  22  28
HETATM   28  O   UNL     1     -40.742  58.797 -50.532  1.00  0.00    -0.354 OA
HETATM   29  C   UNL     1     -39.477  59.447 -50.656  1.00  0.00     0.210 C 
ENDBRANCH  22  28
ENDBRANCH   1  21
TORSDOF 3
ENDMDL
MODEL 8
REMARK VINA RESULT:      -7.9      1.988      2.750
REMARK  3 active torsions:
REMARK  status: ('A' for Active; 'I' for Inactive)
REMARK    1  A    between atoms: O_2  and  C_3 
REMARK    2  A    between atoms: C_4  and  N_5 
REMARK       I    between atoms: N_5  and  C_6 
REMARK       I    between atoms: C_6  and  N_7 
REMARK    3  A    between atoms: C_8  and  C_9 
ROOT
HETATM    1  N   UNL     1     -42.563  57.945 -55.929  1.00  0.00    -0.306 N 
HETATM    2  C   UNL     1     -43.515  57.822 -54.948  1.00  0.00     0.323 C 
HETATM    3  N   UNL     1     -43.094  58.252 -53.689  1.00  0.00    -0.324 N 
HETATM    4  C   UNL     1     -41.691  58.220 -53.233  1.00  0.00     0.139 C 
HETATM    5  C   UNL     1     -41.409  59.412 -52.303  1.00  0.00     0.032 C 
HETATM    6  C   UNL     1     -42.430  59.533 -51.170  1.00  0.00     0.004 C 
HETATM    7  C   UNL     1     -43.850  59.542 -51.723  1.00  0.00     0.020 C 
HETATM    8  C   UNL     1     -44.107  58.347 -52.634  1.00  0.00     0.128 C 
HETATM    9  O   UNL     1     -44.640  57.368 -55.132  1.00  0.00    -0.247 OA
HETATM   10  H   UNL     1     -41.877  58.676 -55.797  1.00  0.00     0.171 HD
ENDROOT
BRANCH   4  11
HETATM   11  C   UNL     1     -41.387  56.875 -52.614  1.00  0.00     0.033 A 
HETATM   12  N   UNL     1     -41.137  56.737 -51.263  1.00  0.00    -0.357 N 
HETATM   13  H   UNL     1     -41.102  57.503 -50.602  1.00  0.00     0.166 HD
HETATM   14  C   UNL     1     -40.889  55.425 -50.939  1.00  0.00     0.042 A 
HETATM   15  C   UNL     1     -41.002  54.686 -52.113  1.00  0.00    -0.007 A 
HETATM   16  C   UNL     1     -40.573  54.843 -49.705  1.00  0.00     0.030 A 
HETATM   17  C   UNL     1     -41.329  55.600 -53.150  1.00  0.00     0.041 A 
HETATM   18  C   UNL     1     -40.790  53.295 -52.063  1.00  0.00     0.014 A 
HETATM   19  C   UNL     1     -40.470  52.695 -50.839  1.00  0.00     0.001 A 
HETATM   20  C   UNL     1     -40.364  53.461 -49.679  1.00  0.00     0.002 A 
ENDBRANCH   4  11
BRANCH   1  21
HETATM   21  C   UNL     1     -42.611  57.460 -57.253  1.00  0.00     0.072 A 
HETATM   22  C   UNL     1     -42.016  58.264 -58.245  1.00  0.00     0.095 A 
HETATM   23  C   UNL     1     -42.035  57.875 -59.587  1.00  0.00     0.042 A 
HETATM   24  C   UNL     1     -42.605  56.653 -59.938  1.00  0.00     0.045 A 
HETATM   25  C   UNL     1     -43.156  55.843 -58.950  1.00  0.00     0.118 A 
HETATM   26  C   UNL     1     -43.167  56.233 -57.614  1.00  0.00     0.074 A 
HETATM   27  F   UNL     1     -43.691  54.665 -59.296  1.00  0.00    -0.206 F 
BRANCH  22  28
HETATM   28  O   UNL     1     -41.487  59.469 -57.841  1.00  0.00    -0.354 OA
HETATM   29  C   UNL     1     -41.991  60.571 -58.594  1.00  0.00     0.210 C 
ENDBRANCH  22  28
ENDBRANCH   1  21
TORSDOF 3
ENDMDL
MODEL 9
REMARK VINA RESULT:      -7.9     14.608     16.689
REMARK  3 active torsions:
REMARK  status: ('A' for Active; 'I' for Inactive)
REMARK    1  A    between atoms: O_2  and  C_3 
REMARK    2  A    between atoms: C_4  and  N_5 
REMARK       I    between atoms: N_5  and  C_6 
REMARK       I    between atoms: C_6  and  N_7 
REMARK    3  A    between atoms: C_8  and  C_9 
ROOT
HETATM    1  N   UNL     1     -38.264  39.588 -51.008  1.00  0.00    -0.306 N 
HETATM    2  C   UNL     1     -37.184  38.861 -51.441  1.00  0.00     0.323 C 
HETATM    3  N   UNL     1     -35.999  39.592 -51.519  1.00  0.00    -0.324 N 
HETATM    4  C   UNL     1     -35.941  41.045 -51.773  1.00  0.00     0.139 C 
HETATM    5  C   UNL     1     -34.757  41.668 -51.016  1.00  0.00     0.032 C 
HETATM    6  C   UNL     1     -33.438  40.939 -51.275  1.00  0.00     0.004 C 
HETATM    7  C   UNL     1     -33.587  39.445 -51.005  1.00  0.00     0.020 C 
HETATM    8  C   UNL     1     -34.762  38.849 -51.773  1.00  0.00     0.128 C 
HETATM    9  O   UNL     1     -37.232  37.673 -51.749  1.00  0.00    -0.247 OA
HETATM   10  H   UNL     1     -38.062  40.374 -50.405  1.00  0.00     0.171 HD
ENDROOT
BRANCH   4  11
HETATM   11  C   UNL     1     -35.919  41.300 -53.263  1.00  0.00     0.033 A 
HETATM   12  N   UNL     1     -37.079  41.507 -53.982  1.00  0.00    -0.357 N 
HETATM   13  H   UNL     1     -38.012  41.470 -53.593  1.00  0.00     0.166 HD
HETATM   14  C   UNL     1     -36.803  41.718 -55.312  1.00  0.00     0.042 A 
HETATM   15  C   UNL     1     -35.420  41.667 -55.456  1.00  0.00    -0.007 A 
HETATM   16  C   UNL     1     -37.669  41.944 -56.389  1.00  0.00     0.030 A 
HETATM   17  C   UNL     1     -34.876  41.421 -54.167  1.00  0.00     0.041 A 
HETATM   18  C   UNL     1     -34.864  41.850 -56.736  1.00  0.00     0.014 A 
HETATM   19  C   UNL     1     -35.714  42.075 -57.826  1.00  0.00     0.001 A 
HETATM   20  C   UNL     1     -37.096  42.121 -57.651  1.00  0.00     0.002 A 
ENDBRANCH   4  11
BRANCH   1  21
HETATM   21  C   UNL     1     -39.620  39.196 -50.974  1.00  0.00     0.072 A 
HETATM   22  C   UNL     1     -40.511  39.923 -51.788  1.00  0.00     0.095 A 
HETATM   23  C   UNL     1     -41.875  39.621 -51.803  1.00  0.00     0.042 A 
HETATM   24  C   UNL     1     -42.348  38.555 -51.040  1.00  0.00     0.045 A 
HETATM   25  C   UNL     1     -41.459  37.814 -50.267  1.00  0.00     0.118 A 
HETATM   26  C   UNL     1     -40.102  38.124 -50.224  1.00  0.00     0.074 A 
HETATM   27  F   UNL     1     -41.922  36.785 -49.546  1.00  0.00    -0.206 F 
BRANCH  22  28
HETATM   28  O   UNL     1     -39.988  40.977 -52.504  1.00  0.00    -0.354 OA
HETATM   29  C   UNL     1     -40.809  41.350 -53.610  1.00  0.00     0.210 C 
ENDBRANCH  22  28
ENDBRANCH   1  21
TORSDOF 3
ENDMDL
MODEL 10
REMARK VINA RESULT:      -7.8      3.310      6.424
REMARK  3 active torsions:
REMARK  status: ('A' for Active; 'I' for Inactive)
REMARK    1  A    between atoms: O_2  and  C_3 
REMARK    2  A    between atoms: C_4  and  N_5 
REMARK       I    between atoms: N_5  and  C_6 
REMARK       I    between atoms: C_6  and  N_7 
REMARK    3  A    between atoms: C_8  and  C_9 
ROOT
HETATM    1  N   UNL     1     -42.125  58.194 -53.100  1.00  0.00    -0.306 N 
HETATM    2  C   UNL     1     -42.912  57.070 -53.092  1.00  0.00     0.323 C 
HETATM    3  N   UNL     1     -42.328  55.962 -53.705  1.00  0.00    -0.324 N 
HETATM    4  C   UNL     1     -41.341  56.048 -54.798  1.00  0.00     0.139 C 
HETATM    5  C   UNL     1     -40.327  54.897 -54.689  1.00  0.00     0.032 C 
HETATM    6  C   UNL     1     -40.997  53.528 -54.563  1.00  0.00     0.004 C 
HETATM    7  C   UNL     1     -42.011  53.528 -53.425  1.00  0.00     0.020 C 
HETATM    8  C   UNL     1     -43.009  54.673 -53.560  1.00  0.00     0.128 C 
HETATM    9  O   UNL     1     -44.037  57.020 -52.604  1.00  0.00    -0.247 OA
HETATM   10  H   UNL     1     -41.126  58.041 -53.124  1.00  0.00     0.171 HD
ENDROOT
BRANCH   4  11
HETATM   11  C   UNL     1     -42.057  56.110 -56.128  1.00  0.00     0.033 A 
HETATM   12  N   UNL     1     -42.092  57.266 -56.881  1.00  0.00    -0.357 N 
HETATM   13  H   UNL     1     -41.686  58.149 -56.600  1.00  0.00     0.166 HD
HETATM   14  C   UNL     1     -42.799  57.075 -58.045  1.00  0.00     0.042 A 
HETATM   15  C   UNL     1     -43.218  55.747 -58.055  1.00  0.00    -0.007 A 
HETATM   16  C   UNL     1     -43.098  57.972 -59.077  1.00  0.00     0.030 A 
HETATM   17  C   UNL     1     -42.735  55.149 -56.860  1.00  0.00     0.041 A 
HETATM   18  C   UNL     1     -43.975  55.284 -59.148  1.00  0.00     0.014 A 
HETATM   19  C   UNL     1     -44.286  56.166 -60.189  1.00  0.00     0.001 A 
HETATM   20  C   UNL     1     -43.853  57.490 -60.151  1.00  0.00     0.002 A 
ENDBRANCH   4  11
BRANCH   1  21
HETATM   21  C   UNL     1     -42.477  59.506 -52.713  1.00  0.00     0.072 A 
HETATM   22  C   UNL     1     -42.710  60.431 -53.750  1.00  0.00     0.095 A 
HETATM   23  C   UNL     1     -43.041  61.758 -53.463  1.00  0.00     0.042 A 
HETATM   24  C   UNL     1     -43.191  62.154 -52.135  1.00  0.00     0.045 A 
HETATM   25  C   UNL     1     -42.999  61.227 -51.115  1.00  0.00     0.118 A 
HETATM   26  C   UNL     1     -42.642  59.909 -51.389  1.00  0.00     0.074 A 
HETATM   27  F   UNL     1     -43.157  61.614 -49.843  1.00  0.00    -0.206 F 
BRANCH  22  28
HETATM   28  O   UNL     1     -42.527  59.987 -55.040  1.00  0.00    -0.354 OA
HETATM   29  C   UNL     1     -43.605  60.346 -55.903  1.00  0.00     0.210 C 
ENDBRANCH  22  28
ENDBRANCH   1  21
TORSDOF 3
ENDMDL
