MODEL 1
REMARK VINA RESULT:      -8.1      0.000      0.000
REMARK  9 active torsions:
REMARK  status: ('A' for Active; 'I' for Inactive)
REMARK    1  A    between atoms: C_2  and  O_3 
REMARK    2  A    between atoms: O_3  and  C_4 
REMARK    3  A    between atoms: C_5  and  C_6 
REMARK    4  A    between atoms: N_7  and  C_9 
REMARK    5  A    between atoms: C_9  and  C_10 
REMARK       I    between atoms: C_10  and  N_11 
REMARK    6  A    between atoms: N_11  and  C_12 
REMARK    7  A    between atoms: C_20  and  C_21 
REMARK    8  A    between atoms: C_21  and  O_22 
REMARK    9  A    between atoms: C_28  and  O_29 
ROOT
HETATM    1  C   UNL     1     -43.372  60.036 -50.939  1.00  0.00     0.231 C 
HETATM    2  N   UNL     1     -44.299  58.823 -50.834  1.00  0.00    -0.054 N 
HETATM    3  H   UNL     1     -43.892  58.214 -50.108  1.00  0.00     0.281 HD
HETATM    4  C   UNL     1     -45.654  59.214 -50.290  1.00  0.00     0.239 C 
HETATM    5  C   UNL     1     -46.307  60.267 -51.175  1.00  0.00     0.066 C 
HETATM    6  C   UNL     1     -45.418  61.505 -51.301  1.00  0.00     0.065 C 
HETATM    7  C   UNL     1     -44.017  61.122 -51.844  1.00  0.00     0.055 C 
HETATM    8  C   UNL     1     -46.074  62.568 -52.197  1.00  0.00     0.038 C 
HETATM    9  C   UNL     1     -45.198  63.814 -52.335  1.00  0.00     0.003 C 
HETATM   10  C   UNL     1     -43.795  63.462 -52.818  1.00  0.00     0.001 C 
HETATM   11  C   UNL     1     -43.137  62.388 -51.953  1.00  0.00     0.010 C 
ENDROOT
BRANCH   2  12
HETATM   12  C   UNL     1     -44.362  57.900 -52.055  1.00  0.00     0.338 C 
BRANCH  12  13
HETATM   13  C   UNL     1     -43.736  56.532 -51.769  1.00  0.00     0.248 C 
HETATM   14  N   UNL     1     -42.647  56.251 -52.567  1.00  0.00    -0.319 N 
HETATM   15  H   UNL     1     -42.248  56.987 -53.153  1.00  0.00     0.169 HD
HETATM   16  O   UNL     1     -44.273  55.814 -50.928  1.00  0.00    -0.271 OA
BRANCH  14  17
HETATM   17  C   UNL     1     -41.977  55.036 -52.677  1.00  0.00     0.094 A 
HETATM   18  S   UNL     1     -42.019  54.133 -54.111  1.00  0.00    -0.075 SA
HETATM   19  C   UNL     1     -41.009  52.936 -53.468  1.00  0.00    -0.008 A 
HETATM   20  C   UNL     1     -40.605  53.212 -52.175  1.00  0.00    -0.026 A 
HETATM   21  C   UNL     1     -40.594  51.744 -54.278  1.00  0.00     0.047 C 
HETATM   22  C   UNL     1     -39.688  52.275 -51.433  1.00  0.00     0.041 C 
HETATM   23  C   UNL     1     -41.195  54.444 -51.687  1.00  0.00     0.080 A 
HETATM   24  C   UNL     1     -39.009  51.259 -52.365  1.00  0.00     0.005 C 
HETATM   25  C   UNL     1     -39.997  50.660 -53.373  1.00  0.00     0.005 C 
BRANCH  23  26
HETATM   26  C   UNL     1     -41.045  55.064 -50.365  1.00  0.00     0.296 C 
HETATM   27  O   UNL     1     -40.573  56.192 -50.228  1.00  0.00    -0.259 OA
BRANCH  26  28
HETATM   28  O   UNL     1     -41.482  54.284 -49.341  1.00  0.00    -0.322 OA
HETATM   29  C   UNL     1     -40.535  54.085 -48.290  1.00  0.00     0.213 C 
ENDBRANCH  26  28
ENDBRANCH  23  26
ENDBRANCH  14  17
ENDBRANCH  12  13
ENDBRANCH   2  12
BRANCH   1  30
HETATM   30  C   UNL     1     -41.911  59.678 -51.189  1.00  0.00     0.006 A 
HETATM   31  C   UNL     1     -41.380  59.323 -52.447  1.00  0.00     0.077 A 
HETATM   32  C   UNL     1     -40.002  59.102 -52.582  1.00  0.00     0.037 A 
HETATM   33  C   UNL     1     -39.152  59.194 -51.481  1.00  0.00     0.003 A 
HETATM   34  C   UNL     1     -39.666  59.507 -50.231  1.00  0.00     0.001 A 
HETATM   35  C   UNL     1     -41.030  59.746 -50.086  1.00  0.00     0.012 A 
BRANCH  31  36
HETATM   36  O   UNL     1     -42.270  59.213 -53.484  1.00  0.00    -0.351 OA
BRANCH  36  37
HETATM   37  C   UNL     1     -41.965  59.929 -54.687  1.00  0.00     0.171 C 
HETATM   38  C   UNL     1     -43.276  60.301 -55.355  1.00  0.00     0.034 C 
ENDBRANCH  36  37
ENDBRANCH  31  36
ENDBRANCH   1  30
BRANCH   6  39
HETATM   39  O   UNL     1     -45.261  62.036 -49.978  1.00  0.00    -0.389 OA
HETATM   40  H   UNL     1     -45.927  62.737 -49.830  1.00  0.00     0.210 HD
ENDBRANCH   6  39
TORSDOF 9
ENDMDL
MODEL 2
REMARK VINA RESULT:      -8.1      1.450      2.477
REMARK  9 active torsions:
REMARK  status: ('A' for Active; 'I' for Inactive)
REMARK    1  A    between atoms: C_2  and  O_3 
REMARK    2  A    between atoms: O_3  and  C_4 
REMARK    3  A    between atoms: C_5  and  C_6 
REMARK    4  A    between atoms: N_7  and  C_9 
REMARK    5  A    between atoms: C_9  and  C_10 
REMARK       I    between atoms: C_10  and  N_11 
REMARK    6  A    between atoms: N_11  and  C_12 
REMARK    7  A    between atoms: C_20  and  C_21 
REMARK    8  A    between atoms: C_21  and  O_22 
REMARK    9  A    between atoms: C_28  and  O_29 
ROOT
HETATM    1  C   UNL     1     -43.524  60.076 -51.149  1.00  0.00     0.231 C 
HETATM    2  N   UNL     1     -44.451  58.874 -50.957  1.00  0.00    -0.054 N 
HETATM    3  H   UNL     1     -44.061  58.334 -50.170  1.00  0.00     0.281 HD
HETATM    4  C   UNL     1     -45.820  59.307 -50.485  1.00  0.00     0.239 C 
HETATM    5  C   UNL     1     -46.453  60.273 -51.477  1.00  0.00     0.066 C 
HETATM    6  C   UNL     1     -45.563  61.498 -51.693  1.00  0.00     0.065 C 
HETATM    7  C   UNL     1     -44.148  61.073 -52.164  1.00  0.00     0.055 C 
HETATM    8  C   UNL     1     -46.198  62.473 -52.698  1.00  0.00     0.038 C 
HETATM    9  C   UNL     1     -45.321  63.705 -52.926  1.00  0.00     0.003 C 
HETATM   10  C   UNL     1     -43.906  63.316 -53.340  1.00  0.00     0.001 C 
HETATM   11  C   UNL     1     -43.268  62.328 -52.365  1.00  0.00     0.010 C 
ENDROOT
BRANCH   2  12
HETATM   12  C   UNL     1     -44.482  57.844 -52.091  1.00  0.00     0.338 C 
BRANCH  12  13
HETATM   13  C   UNL     1     -43.719  56.568 -51.723  1.00  0.00     0.248 C 
HETATM   14  N   UNL     1     -42.711  56.258 -52.612  1.00  0.00    -0.319 N 
HETATM   15  H   UNL     1     -42.444  56.937 -53.327  1.00  0.00     0.169 HD
HETATM   16  O   UNL     1     -44.096  55.931 -50.742  1.00  0.00    -0.271 OA
BRANCH  14  17
HETATM   17  C   UNL     1     -41.962  55.086 -52.659  1.00  0.00     0.094 A 
HETATM   18  S   UNL     1     -41.181  54.482 -51.282  1.00  0.00    -0.075 SA
HETATM   19  C   UNL     1     -40.592  53.135 -52.121  1.00  0.00    -0.008 A 
HETATM   20  C   UNL     1     -40.996  53.108 -53.443  1.00  0.00    -0.026 A 
HETATM   21  C   UNL     1     -39.759  52.091 -51.440  1.00  0.00     0.047 C 
HETATM   22  C   UNL     1     -40.589  51.979 -54.355  1.00  0.00     0.041 C 
HETATM   23  C   UNL     1     -41.788  54.275 -53.779  1.00  0.00     0.080 A 
HETATM   24  C   UNL     1     -40.039  50.770 -53.581  1.00  0.00     0.005 C 
HETATM   25  C   UNL     1     -39.067  51.195 -52.474  1.00  0.00     0.005 C 
BRANCH  23  26
HETATM   26  C   UNL     1     -42.374  54.635 -55.076  1.00  0.00     0.296 C 
HETATM   27  O   UNL     1     -43.238  53.942 -55.612  1.00  0.00    -0.259 OA
BRANCH  26  28
HETATM   28  O   UNL     1     -41.881  55.789 -55.599  1.00  0.00    -0.322 OA
HETATM   29  C   UNL     1     -42.789  56.506 -56.437  1.00  0.00     0.213 C 
ENDBRANCH  26  28
ENDBRANCH  23  26
ENDBRANCH  14  17
ENDBRANCH  12  13
ENDBRANCH   2  12
BRANCH   1  30
HETATM   30  C   UNL     1     -42.057  59.703 -51.329  1.00  0.00     0.006 A 
HETATM   31  C   UNL     1     -41.474  59.324 -52.556  1.00  0.00     0.077 A 
HETATM   32  C   UNL     1     -40.094  59.089 -52.628  1.00  0.00     0.037 A 
HETATM   33  C   UNL     1     -39.292  59.193 -51.492  1.00  0.00     0.003 A 
HETATM   34  C   UNL     1     -39.857  59.529 -50.270  1.00  0.00     0.001 A 
HETATM   35  C   UNL     1     -41.225  59.781 -50.189  1.00  0.00     0.012 A 
BRANCH  31  36
HETATM   36  O   UNL     1     -42.319  59.205 -53.630  1.00  0.00    -0.351 OA
BRANCH  36  37
HETATM   37  C   UNL     1     -41.868  59.740 -54.880  1.00  0.00     0.171 C 
HETATM   38  C   UNL     1     -43.068  60.338 -55.592  1.00  0.00     0.034 C 
ENDBRANCH  36  37
ENDBRANCH  31  36
ENDBRANCH   1  30
BRANCH   6  39
HETATM   39  O   UNL     1     -45.440  62.147 -50.420  1.00  0.00    -0.389 OA
HETATM   40  H   UNL     1     -45.760  61.546 -49.719  1.00  0.00     0.210 HD
ENDBRANCH   6  39
TORSDOF 9
ENDMDL
MODEL 3
REMARK VINA RESULT:      -8.1      1.887      3.039
REMARK  9 active torsions:
REMARK  status: ('A' for Active; 'I' for Inactive)
REMARK    1  A    between atoms: C_2  and  O_3 
REMARK    2  A    between atoms: O_3  and  C_4 
REMARK    3  A    between atoms: C_5  and  C_6 
REMARK    4  A    between atoms: N_7  and  C_9 
REMARK    5  A    between atoms: C_9  and  C_10 
REMARK       I    between atoms: C_10  and  N_11 
REMARK    6  A    between atoms: N_11  and  C_12 
REMARK    7  A    between atoms: C_20  and  C_21 
REMARK    8  A    between atoms: C_21  and  O_22 
REMARK    9  A    between atoms: C_28  and  O_29 
ROOT
HETATM    1  C   UNL     1     -43.447  59.210 -53.511  1.00  0.00     0.231 C 
HETATM    2  N   UNL     1     -43.783  57.787 -53.961  1.00  0.00    -0.054 N 
HETATM    3  H   UNL     1     -43.873  57.228 -53.100  1.00  0.00     0.281 HD
HETATM    4  C   UNL     1     -45.150  57.724 -54.603  1.00  0.00     0.239 C 
HETATM    5  C   UNL     1     -45.227  58.659 -55.802  1.00  0.00     0.066 C 
HETATM    6  C   UNL     1     -44.907  60.099 -55.396  1.00  0.00     0.065 C 
HETATM    7  C   UNL     1     -43.513  60.182 -54.722  1.00  0.00     0.055 C 
HETATM    8  C   UNL     1     -44.980  61.044 -56.607  1.00  0.00     0.038 C 
HETATM    9  C   UNL     1     -44.662  62.488 -56.219  1.00  0.00     0.003 C 
HETATM   10  C   UNL     1     -43.319  62.594 -55.505  1.00  0.00     0.001 C 
HETATM   11  C   UNL     1     -43.218  61.643 -54.314  1.00  0.00     0.010 C 
ENDROOT
BRANCH   2  12
HETATM   12  C   UNL     1     -42.697  57.039 -54.740  1.00  0.00     0.338 C 
BRANCH  12  13
HETATM   13  C   UNL     1     -42.609  55.567 -54.325  1.00  0.00     0.248 C 
HETATM   14  N   UNL     1     -41.432  55.249 -53.680  1.00  0.00    -0.319 N 
HETATM   15  H   UNL     1     -40.798  55.997 -53.392  1.00  0.00     0.169 HD
HETATM   16  O   UNL     1     -43.532  54.821 -54.643  1.00  0.00    -0.271 OA
BRANCH  14  17
HETATM   17  C   UNL     1     -40.975  53.979 -53.341  1.00  0.00     0.094 A 
HETATM   18  S   UNL     1     -40.457  52.884 -54.526  1.00  0.00    -0.075 SA
HETATM   19  C   UNL     1     -40.064  51.711 -53.369  1.00  0.00    -0.008 A 
HETATM   20  C   UNL     1     -40.293  52.138 -52.074  1.00  0.00    -0.026 A 
HETATM   21  C   UNL     1     -39.490  50.384 -53.765  1.00  0.00     0.047 C 
HETATM   22  C   UNL     1     -39.991  51.244 -50.899  1.00  0.00     0.041 C 
HETATM   23  C   UNL     1     -40.859  53.472 -52.048  1.00  0.00     0.080 A 
HETATM   24  C   UNL     1     -39.103  50.049 -51.285  1.00  0.00     0.005 C 
HETATM   25  C   UNL     1     -39.563  49.396 -52.594  1.00  0.00     0.005 C 
BRANCH  23  26
HETATM   26  C   UNL     1     -41.271  54.264 -50.883  1.00  0.00     0.296 C 
HETATM   27  O   UNL     1     -40.468  54.616 -50.021  1.00  0.00    -0.259 OA
BRANCH  26  28
HETATM   28  O   UNL     1     -42.597  54.565 -50.866  1.00  0.00    -0.322 OA
HETATM   29  C   UNL     1     -42.899  55.937 -50.608  1.00  0.00     0.213 C 
ENDBRANCH  26  28
ENDBRANCH  23  26
ENDBRANCH  14  17
ENDBRANCH  12  13
ENDBRANCH   2  12
BRANCH   1  30
HETATM   30  C   UNL     1     -42.231  59.297 -52.595  1.00  0.00     0.006 A 
HETATM   31  C   UNL     1     -42.285  59.636 -51.226  1.00  0.00     0.077 A 
HETATM   32  C   UNL     1     -41.117  59.597 -50.453  1.00  0.00     0.037 A 
HETATM   33  C   UNL     1     -39.891  59.260 -51.028  1.00  0.00     0.003 A 
HETATM   34  C   UNL     1     -39.817  58.960 -52.380  1.00  0.00     0.001 A 
HETATM   35  C   UNL     1     -40.974  58.979 -53.156  1.00  0.00     0.012 A 
BRANCH  31  36
HETATM   36  O   UNL     1     -43.512  59.992 -50.727  1.00  0.00    -0.351 OA
BRANCH  36  37
HETATM   37  C   UNL     1     -43.556  61.114 -49.837  1.00  0.00     0.171 C 
HETATM   38  C   UNL     1     -43.737  62.367 -50.673  1.00  0.00     0.034 C 
ENDBRANCH  36  37
ENDBRANCH  31  36
ENDBRANCH   1  30
BRANCH   6  39
HETATM   39  O   UNL     1     -45.898  60.486 -54.436  1.00  0.00    -0.389 OA
HETATM   40  H   UNL     1     -46.691  60.815 -54.904  1.00  0.00     0.210 HD
ENDBRANCH   6  39
TORSDOF 9
ENDMDL
MODEL 4
REMARK VINA RESULT:      -7.7      4.487      8.257
REMARK  9 active torsions:
REMARK  status: ('A' for Active; 'I' for Inactive)
REMARK    1  A    between atoms: C_2  and  O_3 
REMARK    2  A    between atoms: O_3  and  C_4 
REMARK    3  A    between atoms: C_5  and  C_6 
REMARK    4  A    between atoms: N_7  and  C_9 
REMARK    5  A    between atoms: C_9  and  C_10 
REMARK       I    between atoms: C_10  and  N_11 
REMARK    6  A    between atoms: N_11  and  C_12 
REMARK    7  A    between atoms: C_20  and  C_21 
REMARK    8  A    between atoms: C_21  and  O_22 
REMARK    9  A    between atoms: C_28  and  O_29 
ROOT
HETATM    1  C   UNL     1     -42.694  56.641 -53.288  1.00  0.00     0.231 C 
HETATM    2  N   UNL     1     -43.634  57.159 -54.379  1.00  0.00    -0.054 N 
HETATM    3  H   UNL     1     -44.217  56.356 -54.661  1.00  0.00     0.281 HD
HETATM    4  C   UNL     1     -44.614  58.168 -53.825  1.00  0.00     0.239 C 
HETATM    5  C   UNL     1     -43.880  59.345 -53.196  1.00  0.00     0.066 C 
HETATM    6  C   UNL     1     -42.934  58.874 -52.091  1.00  0.00     0.065 C 
HETATM    7  C   UNL     1     -41.929  57.826 -52.637  1.00  0.00     0.055 C 
HETATM    8  C   UNL     1     -42.189  60.060 -51.458  1.00  0.00     0.038 C 
HETATM    9  C   UNL     1     -41.237  59.607 -50.350  1.00  0.00     0.003 C 
HETATM   10  C   UNL     1     -40.270  58.537 -50.844  1.00  0.00     0.001 C 
HETATM   11  C   UNL     1     -40.992  57.361 -51.499  1.00  0.00     0.010 C 
ENDROOT
BRANCH   2  12
HETATM   12  C   UNL     1     -42.984  57.586 -55.699  1.00  0.00     0.338 C 
BRANCH  12  13
HETATM   13  C   UNL     1     -43.915  58.471 -56.534  1.00  0.00     0.248 C 
HETATM   14  N   UNL     1     -44.988  57.788 -57.067  1.00  0.00    -0.319 N 
HETATM   15  H   UNL     1     -45.176  56.831 -56.764  1.00  0.00     0.169 HD
HETATM   16  O   UNL     1     -43.603  59.649 -56.693  1.00  0.00    -0.271 OA
BRANCH  14  17
HETATM   17  C   UNL     1     -45.902  58.259 -58.004  1.00  0.00     0.094 A 
HETATM   18  S   UNL     1     -46.900  59.588 -57.673  1.00  0.00    -0.075 SA
HETATM   19  C   UNL     1     -47.608  59.528 -59.210  1.00  0.00    -0.008 A 
HETATM   20  C   UNL     1     -47.085  58.523 -60.002  1.00  0.00    -0.026 A 
HETATM   21  C   UNL     1     -48.657  60.514 -59.627  1.00  0.00     0.047 C 
HETATM   22  C   UNL     1     -47.572  58.316 -61.413  1.00  0.00     0.041 C 
HETATM   23  C   UNL     1     -46.090  57.747 -59.287  1.00  0.00     0.080 A 
HETATM   24  C   UNL     1     -48.378  59.516 -61.937  1.00  0.00     0.005 C 
HETATM   25  C   UNL     1     -49.375  60.032 -60.893  1.00  0.00     0.005 C 
BRANCH  23  26
HETATM   26  C   UNL     1     -45.330  56.584 -59.760  1.00  0.00     0.296 C 
HETATM   27  O   UNL     1     -45.870  55.499 -59.972  1.00  0.00    -0.259 OA
BRANCH  26  28
HETATM   28  O   UNL     1     -44.006  56.831 -59.942  1.00  0.00    -0.322 OA
HETATM   29  C   UNL     1     -43.132  55.797 -59.487  1.00  0.00     0.213 C 
ENDBRANCH  26  28
ENDBRANCH  23  26
ENDBRANCH  14  17
ENDBRANCH  12  13
ENDBRANCH   2  12
BRANCH   1  30
HETATM   30  C   UNL     1     -41.888  55.413 -53.699  1.00  0.00     0.006 A 
HETATM   31  C   UNL     1     -42.201  54.090 -53.322  1.00  0.00     0.077 A 
HETATM   32  C   UNL     1     -41.446  53.025 -53.832  1.00  0.00     0.037 A 
HETATM   33  C   UNL     1     -40.364  53.259 -54.681  1.00  0.00     0.003 A 
HETATM   34  C   UNL     1     -40.023  54.557 -55.031  1.00  0.00     0.001 A 
HETATM   35  C   UNL     1     -40.776  55.623 -54.545  1.00  0.00     0.012 A 
BRANCH  31  36
HETATM   36  O   UNL     1     -43.253  53.927 -52.457  1.00  0.00    -0.351 OA
BRANCH  36  37
HETATM   37  C   UNL     1     -42.957  53.951 -51.055  1.00  0.00     0.171 C 
HETATM   38  C   UNL     1     -44.066  54.715 -50.357  1.00  0.00     0.034 C 
ENDBRANCH  36  37
ENDBRANCH  31  36
ENDBRANCH   1  30
BRANCH   6  39
HETATM   39  O   UNL     1     -43.748  58.243 -51.094  1.00  0.00    -0.389 OA
HETATM   40  H   UNL     1     -44.014  57.356 -51.407  1.00  0.00     0.210 HD
ENDBRANCH   6  39
TORSDOF 9
ENDMDL
MODEL 5
REMARK VINA RESULT:      -7.6      3.232      5.336
REMARK  9 active torsions:
REMARK  status: ('A' for Active; 'I' for Inactive)
REMARK    1  A    between atoms: C_2  and  O_3 
REMARK    2  A    between atoms: O_3  and  C_4 
REMARK    3  A    between atoms: C_5  and  C_6 
REMARK    4  A    between atoms: N_7  and  C_9 
REMARK    5  A    between atoms: C_9  and  C_10 
REMARK       I    between atoms: C_10  and  N_11 
REMARK    6  A    between atoms: N_11  and  C_12 
REMARK    7  A    between atoms: C_20  and  C_21 
REMARK    8  A    between atoms: C_21  and  O_22 
REMARK    9  A    between atoms: C_28  and  O_29 
ROOT
HETATM    1  C   UNL     1     -42.782  58.916 -57.225  1.00  0.00     0.231 C 
HETATM    2  N   UNL     1     -42.595  58.459 -55.777  1.00  0.00    -0.054 N 
HETATM    3  H   UNL     1     -41.945  57.659 -55.812  1.00  0.00     0.281 HD
HETATM    4  C   UNL     1     -41.873  59.505 -54.960  1.00  0.00     0.239 C 
HETATM    5  C   UNL     1     -42.637  60.822 -54.974  1.00  0.00     0.066 C 
HETATM    6  C   UNL     1     -42.840  61.324 -56.404  1.00  0.00     0.065 C 
HETATM    7  C   UNL     1     -43.567  60.257 -57.263  1.00  0.00     0.055 C 
HETATM    8  C   UNL     1     -43.615  62.652 -56.420  1.00  0.00     0.038 C 
HETATM    9  C   UNL     1     -43.827  63.169 -57.843  1.00  0.00     0.003 C 
HETATM   10  C   UNL     1     -44.493  62.120 -58.727  1.00  0.00     0.001 C 
HETATM   11  C   UNL     1     -43.750  60.785 -58.704  1.00  0.00     0.010 C 
ENDROOT
BRANCH   2  12
HETATM   12  C   UNL     1     -43.824  57.866 -55.081  1.00  0.00     0.338 C 
BRANCH  12  13
HETATM   13  C   UNL     1     -43.546  56.465 -54.527  1.00  0.00     0.248 C 
HETATM   14  N   UNL     1     -42.224  56.262 -54.190  1.00  0.00    -0.319 N 
HETATM   15  H   UNL     1     -41.580  57.055 -54.180  1.00  0.00     0.169 HD
HETATM   16  O   UNL     1     -44.477  55.664 -54.487  1.00  0.00    -0.271 OA
BRANCH  14  17
HETATM   17  C   UNL     1     -41.622  55.059 -53.834  1.00  0.00     0.094 A 
HETATM   18  S   UNL     1     -41.000  54.004 -55.004  1.00  0.00    -0.075 SA
HETATM   19  C   UNL     1     -40.461  52.909 -53.830  1.00  0.00    -0.008 A 
HETATM   20  C   UNL     1     -40.719  53.335 -52.541  1.00  0.00    -0.026 A 
HETATM   21  C   UNL     1     -39.747  51.645 -54.208  1.00  0.00     0.047 C 
HETATM   22  C   UNL     1     -40.302  52.506 -51.353  1.00  0.00     0.041 C 
HETATM   23  C   UNL     1     -41.432  54.598 -52.532  1.00  0.00     0.080 A 
HETATM   24  C   UNL     1     -39.291  51.411 -51.729  1.00  0.00     0.005 C 
HETATM   25  C   UNL     1     -39.692  50.682 -53.017  1.00  0.00     0.005 C 
BRANCH  23  26
HETATM   26  C   UNL     1     -41.915  55.363 -51.377  1.00  0.00     0.296 C 
HETATM   27  O   UNL     1     -41.153  56.023 -50.672  1.00  0.00    -0.259 OA
BRANCH  26  28
HETATM   28  O   UNL     1     -43.257  55.273 -51.183  1.00  0.00    -0.322 OA
HETATM   29  C   UNL     1     -43.908  56.513 -50.897  1.00  0.00     0.213 C 
ENDBRANCH  26  28
ENDBRANCH  23  26
ENDBRANCH  14  17
ENDBRANCH  12  13
ENDBRANCH   2  12
BRANCH   1  30
HETATM   30  C   UNL     1     -43.225  57.806 -58.173  1.00  0.00     0.006 A 
HETATM   31  C   UNL     1     -44.564  57.400 -58.356  1.00  0.00     0.077 A 
HETATM   32  C   UNL     1     -44.870  56.431 -59.321  1.00  0.00     0.037 A 
HETATM   33  C   UNL     1     -43.863  55.836 -60.081  1.00  0.00     0.003 A 
HETATM   34  C   UNL     1     -42.539  56.199 -59.885  1.00  0.00     0.001 A 
HETATM   35  C   UNL     1     -42.223  57.173 -58.941  1.00  0.00     0.012 A 
BRANCH  31  36
HETATM   36  O   UNL     1     -45.505  57.996 -57.556  1.00  0.00    -0.351 OA
BRANCH  36  37
HETATM   37  C   UNL     1     -46.865  57.961 -58.006  1.00  0.00     0.171 C 
HETATM   38  C   UNL     1     -47.222  59.342 -58.523  1.00  0.00     0.034 C 
ENDBRANCH  36  37
ENDBRANCH  31  36
ENDBRANCH   1  30
BRANCH   6  39
HETATM   39  O   UNL     1     -41.533  61.535 -56.955  1.00  0.00    -0.389 OA
HETATM   40  H   UNL     1     -41.458  62.460 -57.263  1.00  0.00     0.210 HD
ENDBRANCH   6  39
TORSDOF 9
ENDMDL
MODEL 6
REMARK VINA RESULT:      -7.6      4.252      6.320
REMARK  9 active torsions:
REMARK  status: ('A' for Active; 'I' for Inactive)
REMARK    1  A    between atoms: C_2  and  O_3 
REMARK    2  A    between atoms: O_3  and  C_4 
REMARK    3  A    between atoms: C_5  and  C_6 
REMARK    4  A    between atoms: N_7  and  C_9 
REMARK    5  A    between atoms: C_9  and  C_10 
REMARK       I    between atoms: C_10  and  N_11 
REMARK    6  A    between atoms: N_11  and  C_12 
REMARK    7  A    between atoms: C_20  and  C_21 
REMARK    8  A    between atoms: C_21  and  O_22 
REMARK    9  A    between atoms: C_28  and  O_29 
ROOT
HETATM    1  C   UNL     1     -45.090  58.831 -58.375  1.00  0.00     0.231 C 
HETATM    2  N   UNL     1     -44.267  58.747 -57.088  1.00  0.00    -0.054 N 
HETATM    3  H   UNL     1     -43.318  58.459 -57.373  1.00  0.00     0.281 HD
HETATM    4  C   UNL     1     -44.082  60.112 -56.465  1.00  0.00     0.239 C 
HETATM    5  C   UNL     1     -45.430  60.750 -56.156  1.00  0.00     0.066 C 
HETATM    6  C   UNL     1     -46.285  60.864 -57.419  1.00  0.00     0.065 C 
HETATM    7  C   UNL     1     -46.474  59.474 -58.082  1.00  0.00     0.055 C 
HETATM    8  C   UNL     1     -47.648  61.505 -57.108  1.00  0.00     0.038 C 
HETATM    9  C   UNL     1     -48.517  61.626 -58.361  1.00  0.00     0.003 C 
HETATM   10  C   UNL     1     -48.676  60.282 -59.064  1.00  0.00     0.001 C 
HETATM   11  C   UNL     1     -47.332  59.619 -59.359  1.00  0.00     0.010 C 
ENDROOT
BRANCH   2  12
HETATM   12  C   UNL     1     -44.665  57.657 -56.089  1.00  0.00     0.338 C 
BRANCH  12  13
HETATM   13  C   UNL     1     -43.458  56.831 -55.632  1.00  0.00     0.248 C 
HETATM   14  N   UNL     1     -43.782  55.839 -54.731  1.00  0.00    -0.319 N 
HETATM   15  H   UNL     1     -44.764  55.622 -54.553  1.00  0.00     0.169 HD
HETATM   16  O   UNL     1     -42.348  57.152 -56.051  1.00  0.00    -0.271 OA
BRANCH  14  17
HETATM   17  C   UNL     1     -42.901  55.046 -54.001  1.00  0.00     0.094 A 
HETATM   18  S   UNL     1     -42.031  53.791 -54.734  1.00  0.00    -0.075 SA
HETATM   19  C   UNL     1     -41.242  53.400 -53.288  1.00  0.00    -0.008 A 
HETATM   20  C   UNL     1     -41.604  54.225 -52.240  1.00  0.00    -0.026 A 
HETATM   21  C   UNL     1     -40.234  52.292 -53.221  1.00  0.00     0.047 C 
HETATM   22  C   UNL     1     -41.000  54.049 -50.870  1.00  0.00     0.041 C 
HETATM   23  C   UNL     1     -42.608  55.189 -52.646  1.00  0.00     0.080 A 
HETATM   24  C   UNL     1     -39.746  53.160 -50.894  1.00  0.00     0.005 C 
HETATM   25  C   UNL     1     -39.947  51.913 -51.763  1.00  0.00     0.005 C 
BRANCH  23  26
HETATM   26  C   UNL     1     -43.272  56.212 -51.829  1.00  0.00     0.296 C 
HETATM   27  O   UNL     1     -43.985  55.915 -50.871  1.00  0.00    -0.259 OA
BRANCH  26  28
HETATM   28  O   UNL     1     -43.013  57.485 -52.228  1.00  0.00    -0.322 OA
HETATM   29  C   UNL     1     -41.670  57.922 -52.011  1.00  0.00     0.213 C 
ENDBRANCH  26  28
ENDBRANCH  23  26
ENDBRANCH  14  17
ENDBRANCH  12  13
ENDBRANCH   2  12
BRANCH   1  30
HETATM   30  C   UNL     1     -45.061  57.556 -59.211  1.00  0.00     0.006 A 
HETATM   31  C   UNL     1     -43.884  56.881 -59.597  1.00  0.00     0.077 A 
HETATM   32  C   UNL     1     -43.975  55.665 -60.289  1.00  0.00     0.037 A 
HETATM   33  C   UNL     1     -45.217  55.129 -60.632  1.00  0.00     0.003 A 
HETATM   34  C   UNL     1     -46.382  55.801 -60.290  1.00  0.00     0.001 A 
HETATM   35  C   UNL     1     -46.305  57.001 -59.588  1.00  0.00     0.012 A 
BRANCH  31  36
HETATM   36  O   UNL     1     -42.694  57.474 -59.263  1.00  0.00    -0.351 OA
BRANCH  36  37
HETATM   37  C   UNL     1     -41.818  57.837 -60.337  1.00  0.00     0.171 C 
HETATM   38  C   UNL     1     -42.109  59.279 -60.711  1.00  0.00     0.034 C 
ENDBRANCH  36  37
ENDBRANCH  31  36
ENDBRANCH   1  30
BRANCH   6  39
HETATM   39  O   UNL     1     -45.565  61.706 -58.329  1.00  0.00    -0.389 OA
HETATM   40  H   UNL     1     -46.118  61.877 -59.117  1.00  0.00     0.210 HD
ENDBRANCH   6  39
TORSDOF 9
ENDMDL
MODEL 7
REMARK VINA RESULT:      -7.5      2.459      3.972
REMARK  9 active torsions:
REMARK  status: ('A' for Active; 'I' for Inactive)
REMARK    1  A    between atoms: C_2  and  O_3 
REMARK    2  A    between atoms: O_3  and  C_4 
REMARK    3  A    between atoms: C_5  and  C_6 
REMARK    4  A    between atoms: N_7  and  C_9 
REMARK    5  A    between atoms: C_9  and  C_10 
REMARK       I    between atoms: C_10  and  N_11 
REMARK    6  A    between atoms: N_11  and  C_12 
REMARK    7  A    between atoms: C_20  and  C_21 
REMARK    8  A    between atoms: C_21  and  O_22 
REMARK    9  A    between atoms: C_28  and  O_29 
ROOT
HETATM    1  C   UNL     1     -42.649  59.846 -55.324  1.00  0.00     0.231 C 
HETATM    2  N   UNL     1     -42.044  59.104 -54.129  1.00  0.00    -0.054 N 
HETATM    3  H   UNL     1     -41.105  58.800 -54.426  1.00  0.00     0.281 HD
HETATM    4  C   UNL     1     -41.796  60.041 -52.970  1.00  0.00     0.239 C 
HETATM    5  C   UNL     1     -43.090  60.717 -52.536  1.00  0.00     0.066 C 
HETATM    6  C   UNL     1     -43.726  61.481 -53.698  1.00  0.00     0.065 C 
HETATM    7  C   UNL     1     -43.975  60.539 -54.904  1.00  0.00     0.055 C 
HETATM    8  C   UNL     1     -45.034  62.161 -53.263  1.00  0.00     0.038 C 
HETATM    9  C   UNL     1     -45.684  62.930 -54.414  1.00  0.00     0.003 C 
HETATM   10  C   UNL     1     -45.894  62.041 -55.635  1.00  0.00     0.001 C 
HETATM   11  C   UNL     1     -44.608  61.337 -56.067  1.00  0.00     0.010 C 
ENDROOT
BRANCH   2  12
HETATM   12  C   UNL     1     -42.715  57.786 -53.730  1.00  0.00     0.338 C 
BRANCH  12  13
HETATM   13  C   UNL     1     -41.715  56.626 -53.689  1.00  0.00     0.248 C 
HETATM   14  N   UNL     1     -42.305  55.402 -53.452  1.00  0.00    -0.319 N 
HETATM   15  H   UNL     1     -43.323  55.321 -53.475  1.00  0.00     0.169 HD
HETATM   16  O   UNL     1     -40.520  56.889 -53.809  1.00  0.00    -0.271 OA
BRANCH  14  17
HETATM   17  C   UNL     1     -41.663  54.198 -53.181  1.00  0.00     0.094 A 
HETATM   18  S   UNL     1     -41.096  53.201 -54.428  1.00  0.00    -0.075 SA
HETATM   19  C   UNL     1     -40.468  52.071 -53.334  1.00  0.00    -0.008 A 
HETATM   20  C   UNL     1     -40.654  52.441 -52.015  1.00  0.00    -0.026 A 
HETATM   21  C   UNL     1     -39.758  50.837 -53.805  1.00  0.00     0.047 C 
HETATM   22  C   UNL     1     -40.151  51.575 -50.889  1.00  0.00     0.041 C 
HETATM   23  C   UNL     1     -41.385  53.689 -51.913  1.00  0.00     0.080 A 
HETATM   24  C   UNL     1     -39.147  50.515 -51.370  1.00  0.00     0.005 C 
HETATM   25  C   UNL     1     -39.615  49.829 -52.659  1.00  0.00     0.005 C 
BRANCH  23  26
HETATM   26  C   UNL     1     -41.809  54.399 -50.701  1.00  0.00     0.296 C 
HETATM   27  O   UNL     1     -42.994  54.483 -50.379  1.00  0.00    -0.259 OA
BRANCH  26  28
HETATM   28  O   UNL     1     -40.780  54.929 -49.988  1.00  0.00    -0.322 OA
HETATM   29  C   UNL     1     -40.738  54.542 -48.613  1.00  0.00     0.213 C 
ENDBRANCH  26  28
ENDBRANCH  23  26
ENDBRANCH  14  17
ENDBRANCH  12  13
ENDBRANCH   2  12
BRANCH   1  30
HETATM   30  C   UNL     1     -42.645  59.040 -56.618  1.00  0.00     0.006 A 
HETATM   31  C   UNL     1     -41.846  59.338 -57.742  1.00  0.00     0.077 A 
HETATM   32  C   UNL     1     -41.852  58.477 -58.848  1.00  0.00     0.037 A 
HETATM   33  C   UNL     1     -42.666  57.345 -58.867  1.00  0.00     0.003 A 
HETATM   34  C   UNL     1     -43.485  57.059 -57.784  1.00  0.00     0.001 A 
HETATM   35  C   UNL     1     -43.475  57.897 -56.672  1.00  0.00     0.012 A 
BRANCH  31  36
HETATM   36  O   UNL     1     -41.093  60.483 -57.678  1.00  0.00    -0.351 OA
BRANCH  36  37
HETATM   37  C   UNL     1     -41.320  61.473 -58.689  1.00  0.00     0.171 C 
HETATM   38  C   UNL     1     -40.091  62.359 -58.760  1.00  0.00     0.034 C 
ENDBRANCH  36  37
ENDBRANCH  31  36
ENDBRANCH   1  30
BRANCH   6  39
HETATM   39  O   UNL     1     -42.783  62.485 -54.096  1.00  0.00    -0.389 OA
HETATM   40  H   UNL     1     -42.585  63.063 -53.332  1.00  0.00     0.210 HD
ENDBRANCH   6  39
TORSDOF 9
ENDMDL
MODEL 8
REMARK VINA RESULT:      -7.5      3.114      5.422
REMARK  9 active torsions:
REMARK  status: ('A' for Active; 'I' for Inactive)
REMARK    1  A    between atoms: C_2  and  O_3 
REMARK    2  A    between atoms: O_3  and  C_4 
REMARK    3  A    between atoms: C_5  and  C_6 
REMARK    4  A    between atoms: N_7  and  C_9 
REMARK    5  A    between atoms: C_9  and  C_10 
REMARK       I    between atoms: C_10  and  N_11 
REMARK    6  A    between atoms: N_11  and  C_12 
REMARK    7  A    between atoms: C_20  and  C_21 
REMARK    8  A    between atoms: C_21  and  O_22 
REMARK    9  A    between atoms: C_28  and  O_29 
ROOT
HETATM    1  C   UNL     1     -43.401  59.062 -56.672  1.00  0.00     0.231 C 
HETATM    2  N   UNL     1     -43.725  57.580 -56.874  1.00  0.00    -0.054 N 
HETATM    3  H   UNL     1     -44.472  57.356 -56.200  1.00  0.00     0.281 HD
HETATM    4  C   UNL     1     -44.346  57.334 -58.230  1.00  0.00     0.239 C 
HETATM    5  C   UNL     1     -43.415  57.799 -59.342  1.00  0.00     0.066 C 
HETATM    6  C   UNL     1     -43.071  59.281 -59.186  1.00  0.00     0.065 C 
HETATM    7  C   UNL     1     -42.446  59.556 -57.794  1.00  0.00     0.055 C 
HETATM    8  C   UNL     1     -42.128  59.750 -60.306  1.00  0.00     0.038 C 
HETATM    9  C   UNL     1     -41.773  61.231 -60.165  1.00  0.00     0.003 C 
HETATM   10  C   UNL     1     -41.204  61.543 -58.785  1.00  0.00     0.001 C 
HETATM   11  C   UNL     1     -42.117  61.060 -57.659  1.00  0.00     0.010 C 
ENDROOT
BRANCH   2  12
HETATM   12  C   UNL     1     -42.624  56.581 -56.505  1.00  0.00     0.338 C 
BRANCH  12  13
HETATM   13  C   UNL     1     -42.742  56.114 -55.050  1.00  0.00     0.248 C 
HETATM   14  N   UNL     1     -41.526  56.009 -54.409  1.00  0.00    -0.319 N 
HETATM   15  H   UNL     1     -40.685  56.376 -54.859  1.00  0.00     0.169 HD
HETATM   16  O   UNL     1     -43.859  55.833 -54.622  1.00  0.00    -0.271 OA
BRANCH  14  17
HETATM   17  C   UNL     1     -41.280  55.449 -53.159  1.00  0.00     0.094 A 
HETATM   18  S   UNL     1     -41.594  56.305 -51.731  1.00  0.00    -0.075 SA
HETATM   19  C   UNL     1     -41.103  55.006 -50.762  1.00  0.00    -0.008 A 
HETATM   20  C   UNL     1     -40.720  53.902 -51.500  1.00  0.00    -0.026 A 
HETATM   21  C   UNL     1     -41.141  55.089 -49.265  1.00  0.00     0.047 C 
HETATM   22  C   UNL     1     -40.264  52.636 -50.820  1.00  0.00     0.041 C 
HETATM   23  C   UNL     1     -40.796  54.163 -52.924  1.00  0.00     0.080 A 
HETATM   24  C   UNL     1     -40.626  52.611 -49.326  1.00  0.00     0.005 C 
HETATM   25  C   UNL     1     -40.325  53.950 -48.643  1.00  0.00     0.005 C 
BRANCH  23  26
HETATM   26  C   UNL     1     -40.448  53.267 -54.034  1.00  0.00     0.296 C 
HETATM   27  O   UNL     1     -39.822  53.664 -55.015  1.00  0.00    -0.259 OA
BRANCH  26  28
HETATM   28  O   UNL     1     -40.871  51.987 -53.858  1.00  0.00    -0.322 OA
HETATM   29  C   UNL     1     -39.898  50.985 -54.158  1.00  0.00     0.213 C 
ENDBRANCH  26  28
ENDBRANCH  23  26
ENDBRANCH  14  17
ENDBRANCH  12  13
ENDBRANCH   2  12
BRANCH   1  30
HETATM   30  C   UNL     1     -43.058  59.429 -55.233  1.00  0.00     0.006 A 
HETATM   31  C   UNL     1     -44.008  59.786 -54.252  1.00  0.00     0.077 A 
HETATM   32  C   UNL     1     -43.592  60.017 -52.933  1.00  0.00     0.037 A 
HETATM   33  C   UNL     1     -42.245  59.930 -52.584  1.00  0.00     0.003 A 
HETATM   34  C   UNL     1     -41.296  59.615 -53.545  1.00  0.00     0.001 A 
HETATM   35  C   UNL     1     -41.698  59.368 -54.856  1.00  0.00     0.012 A 
BRANCH  31  36
HETATM   36  O   UNL     1     -45.312  59.890 -54.664  1.00  0.00    -0.351 OA
BRANCH  36  37
HETATM   37  C   UNL     1     -45.857  61.209 -54.788  1.00  0.00     0.171 C 
HETATM   38  C   UNL     1     -46.161  61.454 -56.254  1.00  0.00     0.034 C 
ENDBRANCH  36  37
ENDBRANCH  31  36
ENDBRANCH   1  30
BRANCH   6  39
HETATM   39  O   UNL     1     -44.307  60.001 -59.278  1.00  0.00    -0.389 OA
HETATM   40  H   UNL     1     -44.349  60.663 -58.560  1.00  0.00     0.210 HD
ENDBRANCH   6  39
TORSDOF 9
ENDMDL
MODEL 9
REMARK VINA RESULT:      -7.5      1.708      2.973
REMARK  9 active torsions:
REMARK  status: ('A' for Active; 'I' for Inactive)
REMARK    1  A    between atoms: C_2  and  O_3 
REMARK    2  A    between atoms: O_3  and  C_4 
REMARK    3  A    between atoms: C_5  and  C_6 
REMARK    4  A    between atoms: N_7  and  C_9 
REMARK    5  A    between atoms: C_9  and  C_10 
REMARK       I    between atoms: C_10  and  N_11 
REMARK    6  A    between atoms: N_11  and  C_12 
REMARK    7  A    between atoms: C_20  and  C_21 
REMARK    8  A    between atoms: C_21  and  O_22 
REMARK    9  A    between atoms: C_28  and  O_29 
ROOT
HETATM    1  C   UNL     1     -43.963  60.540 -52.819  1.00  0.00     0.231 C 
HETATM    2  N   UNL     1     -42.973  59.947 -51.814  1.00  0.00    -0.054 N 
HETATM    3  H   UNL     1     -42.090  59.810 -52.329  1.00  0.00     0.281 HD
HETATM    4  C   UNL     1     -42.634  60.940 -50.726  1.00  0.00     0.239 C 
HETATM    5  C   UNL     1     -43.890  61.383 -49.989  1.00  0.00     0.066 C 
HETATM    6  C   UNL     1     -44.907  61.993 -50.954  1.00  0.00     0.065 C 
HETATM    7  C   UNL     1     -45.257  60.993 -52.087  1.00  0.00     0.055 C 
HETATM    8  C   UNL     1     -46.177  62.437 -50.212  1.00  0.00     0.038 C 
HETATM    9  C   UNL     1     -47.206  63.050 -51.163  1.00  0.00     0.003 C 
HETATM   10  C   UNL     1     -47.532  62.109 -52.318  1.00  0.00     0.001 C 
HETATM   11  C   UNL     1     -46.278  61.637 -53.053  1.00  0.00     0.010 C 
ENDROOT
BRANCH   2  12
HETATM   12  C   UNL     1     -43.284  58.539 -51.294  1.00  0.00     0.338 C 
BRANCH  12  13
HETATM   13  C   UNL     1     -42.210  57.528 -51.709  1.00  0.00     0.248 C 
HETATM   14  N   UNL     1     -42.728  56.324 -52.135  1.00  0.00    -0.319 N 
HETATM   15  H   UNL     1     -43.733  56.235 -52.293  1.00  0.00     0.169 HD
HETATM   16  O   UNL     1     -41.031  57.850 -51.574  1.00  0.00    -0.271 OA
BRANCH  14  17
HETATM   17  C   UNL     1     -42.023  55.154 -52.405  1.00  0.00     0.094 A 
HETATM   18  S   UNL     1     -41.734  54.645 -53.994  1.00  0.00    -0.075 SA
HETATM   19  C   UNL     1     -40.861  53.289 -53.476  1.00  0.00    -0.008 A 
HETATM   20  C   UNL     1     -40.754  53.216 -52.099  1.00  0.00    -0.026 A 
HETATM   21  C   UNL     1     -40.256  52.327 -54.453  1.00  0.00     0.047 C 
HETATM   22  C   UNL     1     -40.000  52.090 -51.440  1.00  0.00     0.041 C 
HETATM   23  C   UNL     1     -41.462  54.303 -51.453  1.00  0.00     0.080 A 
HETATM   24  C   UNL     1     -39.112  51.320 -52.432  1.00  0.00     0.005 C 
HETATM   25  C   UNL     1     -39.845  51.030 -53.747  1.00  0.00     0.005 C 
BRANCH  23  26
HETATM   26  C   UNL     1     -41.616  54.564 -50.017  1.00  0.00     0.296 C 
HETATM   27  O   UNL     1     -42.718  54.560 -49.471  1.00  0.00    -0.259 OA
BRANCH  26  28
HETATM   28  O   UNL     1     -40.441  54.792 -49.373  1.00  0.00    -0.322 OA
HETATM   29  C   UNL     1     -40.264  54.052 -48.164  1.00  0.00     0.213 C 
ENDBRANCH  26  28
ENDBRANCH  23  26
ENDBRANCH  14  17
ENDBRANCH  12  13
ENDBRANCH   2  12
BRANCH   1  30
HETATM   30  C   UNL     1     -44.118  59.718 -54.093  1.00  0.00     0.006 A 
HETATM   31  C   UNL     1     -43.468  60.005 -55.312  1.00  0.00     0.077 A 
HETATM   32  C   UNL     1     -43.608  59.130 -56.398  1.00  0.00     0.037 A 
HETATM   33  C   UNL     1     -44.412  57.994 -56.301  1.00  0.00     0.003 A 
HETATM   34  C   UNL     1     -45.087  57.719 -55.120  1.00  0.00     0.001 A 
HETATM   35  C   UNL     1     -44.942  58.571 -54.028  1.00  0.00     0.012 A 
BRANCH  31  36
HETATM   36  O   UNL     1     -42.720  61.153 -55.357  1.00  0.00    -0.351 OA
BRANCH  36  37
HETATM   37  C   UNL     1     -43.255  62.254 -56.102  1.00  0.00     0.171 C 
HETATM   38  C   UNL     1     -43.465  63.410 -55.141  1.00  0.00     0.034 C 
ENDBRANCH  36  37
ENDBRANCH  31  36
ENDBRANCH   1  30
BRANCH   6  39
HETATM   39  O   UNL     1     -44.279  63.141 -51.542  1.00  0.00    -0.389 OA
HETATM   40  H   UNL     1     -43.373  62.905 -51.822  1.00  0.00     0.210 HD
ENDBRANCH   6  39
TORSDOF 9
ENDMDL
MODEL 10
REMARK VINA RESULT:      -7.3      4.818      8.930
REMARK  9 active torsions:
REMARK  status: ('A' for Active; 'I' for Inactive)
REMARK    1  A    between atoms: C_2  and  O_3 
REMARK    2  A    between atoms: O_3  and  C_4 
REMARK    3  A    between atoms: C_5  and  C_6 
REMARK    4  A    between atoms: N_7  and  C_9 
REMARK    5  A    between atoms: C_9  and  C_10 
REMARK       I    between atoms: C_10  and  N_11 
REMARK    6  A    between atoms: N_11  and  C_12 
REMARK    7  A    between atoms: C_20  and  C_21 
REMARK    8  A    between atoms: C_21  and  O_22 
REMARK    9  A    between atoms: C_28  and  O_29 
ROOT
HETATM    1  C   UNL     1     -42.199  57.066 -54.419  1.00  0.00     0.231 C 
HETATM    2  N   UNL     1     -43.210  57.093 -55.568  1.00  0.00    -0.054 N 
HETATM    3  H   UNL     1     -43.087  58.003 -56.037  1.00  0.00     0.281 HD
HETATM    4  C   UNL     1     -42.867  56.068 -56.625  1.00  0.00     0.239 C 
HETATM    5  C   UNL     1     -42.826  54.668 -56.026  1.00  0.00     0.066 C 
HETATM    6  C   UNL     1     -41.820  54.592 -54.877  1.00  0.00     0.065 C 
HETATM    7  C   UNL     1     -42.147  55.647 -53.789  1.00  0.00     0.055 C 
HETATM    8  C   UNL     1     -41.781  53.181 -54.269  1.00  0.00     0.038 C 
HETATM    9  C   UNL     1     -40.778  53.086 -53.118  1.00  0.00     0.003 C 
HETATM   10  C   UNL     1     -41.043  54.147 -52.056  1.00  0.00     0.001 C 
HETATM   11  C   UNL     1     -41.110  55.555 -52.646  1.00  0.00     0.010 C 
ENDROOT
BRANCH   2  12
HETATM   12  C   UNL     1     -44.691  57.110 -55.178  1.00  0.00     0.338 C 
BRANCH  12  13
HETATM   13  C   UNL     1     -45.478  58.159 -55.971  1.00  0.00     0.248 C 
HETATM   14  N   UNL     1     -46.130  57.639 -57.069  1.00  0.00    -0.319 N 
HETATM   15  H   UNL     1     -46.179  56.626 -57.193  1.00  0.00     0.169 HD
HETATM   16  O   UNL     1     -45.413  59.330 -55.603  1.00  0.00    -0.271 OA
BRANCH  14  17
HETATM   17  C   UNL     1     -46.772  58.349 -58.079  1.00  0.00     0.094 A 
HETATM   18  S   UNL     1     -47.504  59.847 -57.776  1.00  0.00    -0.075 SA
HETATM   19  C   UNL     1     -47.969  60.025 -59.395  1.00  0.00    -0.008 A 
HETATM   20  C   UNL     1     -47.557  58.972 -60.190  1.00  0.00    -0.026 A 
HETATM   21  C   UNL     1     -48.710  61.240 -59.867  1.00  0.00     0.047 C 
HETATM   22  C   UNL     1     -47.860  58.951 -61.666  1.00  0.00     0.041 C 
HETATM   23  C   UNL     1     -46.869  57.959 -59.414  1.00  0.00     0.080 A 
HETATM   24  C   UNL     1     -48.305  60.326 -62.192  1.00  0.00     0.005 C 
HETATM   25  C   UNL     1     -49.315  60.996 -61.254  1.00  0.00     0.005 C 
BRANCH  23  26
HETATM   26  C   UNL     1     -46.311  56.682 -59.875  1.00  0.00     0.296 C 
HETATM   27  O   UNL     1     -46.965  55.897 -60.559  1.00  0.00    -0.259 OA
BRANCH  26  28
HETATM   28  O   UNL     1     -45.026  56.473 -59.484  1.00  0.00    -0.322 OA
HETATM   29  C   UNL     1     -44.036  57.056 -60.333  1.00  0.00     0.213 C 
ENDBRANCH  26  28
ENDBRANCH  23  26
ENDBRANCH  14  17
ENDBRANCH  12  13
ENDBRANCH   2  12
BRANCH   1  30
HETATM   30  C   UNL     1     -42.303  58.260 -53.476  1.00  0.00     0.006 A 
HETATM   31  C   UNL     1     -41.984  59.588 -53.831  1.00  0.00     0.077 A 
HETATM   32  C   UNL     1     -42.203  60.625 -52.914  1.00  0.00     0.037 A 
HETATM   33  C   UNL     1     -42.703  60.357 -51.639  1.00  0.00     0.003 A 
HETATM   34  C   UNL     1     -42.988  59.052 -51.265  1.00  0.00     0.001 A 
HETATM   35  C   UNL     1     -42.790  58.015 -52.173  1.00  0.00     0.012 A 
BRANCH  31  36
HETATM   36  O   UNL     1     -41.463  59.783 -55.085  1.00  0.00    -0.351 OA
BRANCH  36  37
HETATM   37  C   UNL     1     -42.242  60.561 -56.003  1.00  0.00     0.171 C 
HETATM   38  C   UNL     1     -42.130  59.917 -57.373  1.00  0.00     0.034 C 
ENDBRANCH  36  37
ENDBRANCH  31  36
ENDBRANCH   1  30
BRANCH   6  39
HETATM   39  O   UNL     1     -40.535  54.900 -55.435  1.00  0.00    -0.389 OA
HETATM   40  H   UNL     1     -40.655  55.428 -56.249  1.00  0.00     0.210 HD
ENDBRANCH   6  39
TORSDOF 9
ENDMDL
