MODEL 1
REMARK VINA RESULT:      -8.7      0.000      0.000
REMARK  8 active torsions:
REMARK  status: ('A' for Active; 'I' for Inactive)
REMARK    1  A    between atoms: C_4  and  C_5 
REMARK    2  A    between atoms: C_7  and  C_8 
REMARK    3  A    between atoms: C_9  and  C_10 
REMARK       I    between atoms: C_10  and  N_11 
REMARK    4  A    between atoms: N_11  and  C_12 
REMARK    5  A    between atoms: C_12  and  N_13 
REMARK    6  A    between atoms: N_13  and  C_14 
REMARK    7  A    between atoms: C_17  and  N_18 
REMARK       I    between atoms: N_21  and  C_22 
REMARK    8  A    between atoms: C_22  and  C_23 
ROOT
HETATM    1  N   UNL     1     -44.983  62.906 -51.890  1.00  0.00    -0.333 N 
HETATM    2  H   UNL     1     -45.522  63.754 -52.024  1.00  0.00     0.168 HD
ENDROOT
BRANCH   1   3
HETATM    3  C   UNL     1     -44.940  62.463 -50.590  1.00  0.00     0.179 C 
HETATM    4  S   UNL     1     -43.992  63.077 -49.354  1.00  0.00    -0.040 SA
BRANCH   3   5
HETATM    5  N   UNL     1     -45.674  61.318 -50.319  1.00  0.00    -0.300 N 
HETATM    6  C   UNL     1     -45.382  59.974 -50.165  1.00  0.00     0.247 C 
HETATM    7  O   UNL     1     -46.185  59.224 -49.615  1.00  0.00    -0.268 OA
HETATM    8  H   UNL     1     -46.662  61.501 -50.191  1.00  0.00     0.171 HD
BRANCH   6   9
HETATM    9  C   UNL     1     -44.121  59.474 -50.759  1.00  0.00     0.077 C 
HETATM   10  C   UNL     1     -44.155  58.490 -51.669  1.00  0.00     0.042 C 
BRANCH  10  11
HETATM   11  C   UNL     1     -42.952  58.065 -52.295  1.00  0.00     0.076 A 
HETATM   12  O   UNL     1     -42.667  56.748 -52.577  1.00  0.00    -0.310 OA
HETATM   13  C   UNL     1     -41.440  56.672 -53.167  1.00  0.00     0.086 A 
HETATM   14  C   UNL     1     -40.907  57.938 -53.264  1.00  0.00     0.041 A 
HETATM   15  C   UNL     1     -41.874  58.824 -52.724  1.00  0.00     0.040 A 
BRANCH  13  16
HETATM   16  C   UNL     1     -40.991  55.334 -53.543  1.00  0.00    -0.002 A 
HETATM   17  C   UNL     1     -40.604  55.053 -54.862  1.00  0.00     0.014 A 
HETATM   18  C   UNL     1     -40.193  53.768 -55.231  1.00  0.00     0.001 A 
HETATM   19  C   UNL     1     -40.169  52.744 -54.286  1.00  0.00     0.000 A 
HETATM   20  C   UNL     1     -40.549  53.005 -52.973  1.00  0.00     0.001 A 
HETATM   21  C   UNL     1     -40.951  54.291 -52.604  1.00  0.00     0.014 A 
ENDBRANCH  13  16
ENDBRANCH  10  11
ENDBRANCH   6   9
ENDBRANCH   3   5
ENDBRANCH   1   3
BRANCH   1  22
HETATM   22  C   UNL     1     -44.665  62.195 -53.066  1.00  0.00     0.034 A 
HETATM   23  C   UNL     1     -43.346  62.222 -53.523  1.00  0.00     0.031 A 
HETATM   24  C   UNL     1     -42.975  61.503 -54.669  1.00  0.00     0.026 A 
HETATM   25  C   UNL     1     -43.898  60.707 -55.356  1.00  0.00     0.010 A 
HETATM   26  C   UNL     1     -45.208  60.659 -54.857  1.00  0.00     0.026 A 
HETATM   27  C   UNL     1     -45.592  61.397 -53.731  1.00  0.00     0.031 A 
BRANCH  25  28
HETATM   28  N   UNL     1     -43.592  59.966 -56.504  1.00  0.00    -0.280 NA
HETATM   29  C   UNL     1     -44.565  58.883 -56.775  1.00  0.00     0.115 C 
HETATM   30  C   UNL     1     -44.368  58.332 -58.200  1.00  0.00     0.141 C 
HETATM   31  N   UNL     1     -42.971  57.959 -58.478  1.00  0.00    -0.344 N 
HETATM   32  C   UNL     1     -42.622  57.112 -59.541  1.00  0.00     0.277 C 
HETATM   33  C   UNL     1     -41.996  58.999 -58.121  1.00  0.00     0.141 C 
HETATM   34  O   UNL     1     -41.568  57.284 -60.157  1.00  0.00    -0.265 OA
HETATM   35  C   UNL     1     -42.195  59.527 -56.689  1.00  0.00     0.115 C 
BRANCH  32  36
HETATM   36  C   UNL     1     -43.511  56.014 -59.889  1.00  0.00     0.142 A 
HETATM   37  O   UNL     1     -44.265  56.054 -61.034  1.00  0.00    -0.317 OA
HETATM   38  C   UNL     1     -45.034  54.935 -61.052  1.00  0.00     0.143 A 
HETATM   39  C   UNL     1     -44.807  54.174 -59.931  1.00  0.00     0.027 A 
HETATM   40  C   UNL     1     -43.841  54.876 -59.173  1.00  0.00     0.045 A 
ENDBRANCH  32  36
ENDBRANCH  25  28
ENDBRANCH   1  22
TORSDOF 8
ENDMDL
MODEL 2
REMARK VINA RESULT:      -8.1      2.401      5.617
REMARK  8 active torsions:
REMARK  status: ('A' for Active; 'I' for Inactive)
REMARK    1  A    between atoms: C_4  and  C_5 
REMARK    2  A    between atoms: C_7  and  C_8 
REMARK    3  A    between atoms: C_9  and  C_10 
REMARK       I    between atoms: C_10  and  N_11 
REMARK    4  A    between atoms: N_11  and  C_12 
REMARK    5  A    between atoms: C_12  and  N_13 
REMARK    6  A    between atoms: N_13  and  C_14 
REMARK    7  A    between atoms: C_17  and  N_18 
REMARK       I    between atoms: N_21  and  C_22 
REMARK    8  A    between atoms: C_22  and  C_23 
ROOT
HETATM    1  N   UNL     1     -45.265  60.881 -49.928  1.00  0.00    -0.333 N 
HETATM    2  H   UNL     1     -45.446  60.726 -48.943  1.00  0.00     0.168 HD
ENDROOT
BRANCH   1   3
HETATM    3  C   UNL     1     -45.388  62.191 -50.327  1.00  0.00     0.179 C 
HETATM    4  S   UNL     1     -44.630  63.520 -49.647  1.00  0.00    -0.040 SA
BRANCH   3   5
HETATM    5  N   UNL     1     -46.327  62.432 -51.318  1.00  0.00    -0.300 N 
HETATM    6  C   UNL     1     -46.483  62.056 -52.641  1.00  0.00     0.247 C 
HETATM    7  O   UNL     1     -47.577  62.159 -53.190  1.00  0.00    -0.268 OA
HETATM    8  H   UNL     1     -47.094  63.016 -51.005  1.00  0.00     0.171 HD
BRANCH   6   9
HETATM    9  C   UNL     1     -45.276  61.615 -53.374  1.00  0.00     0.077 C 
HETATM   10  C   UNL     1     -45.336  60.546 -54.182  1.00  0.00     0.042 C 
BRANCH  10  11
HETATM   11  C   UNL     1     -44.198  60.172 -54.945  1.00  0.00     0.076 A 
HETATM   12  O   UNL     1     -44.225  59.208 -55.927  1.00  0.00    -0.310 OA
HETATM   13  C   UNL     1     -42.978  59.077 -56.462  1.00  0.00     0.086 A 
HETATM   14  C   UNL     1     -42.121  59.947 -55.825  1.00  0.00     0.041 A 
HETATM   15  C   UNL     1     -42.899  60.652 -54.873  1.00  0.00     0.040 A 
BRANCH  13  16
HETATM   16  C   UNL     1     -42.839  58.095 -57.534  1.00  0.00    -0.002 A 
HETATM   17  C   UNL     1     -42.230  58.443 -58.749  1.00  0.00     0.014 A 
HETATM   18  C   UNL     1     -42.113  57.511 -59.786  1.00  0.00     0.001 A 
HETATM   19  C   UNL     1     -42.610  56.220 -59.624  1.00  0.00     0.000 A 
HETATM   20  C   UNL     1     -43.218  55.857 -58.425  1.00  0.00     0.001 A 
HETATM   21  C   UNL     1     -43.325  56.786 -57.387  1.00  0.00     0.014 A 
ENDBRANCH  13  16
ENDBRANCH  10  11
ENDBRANCH   6   9
ENDBRANCH   3   5
ENDBRANCH   1   3
BRANCH   1  22
HETATM   22  C   UNL     1     -44.633  59.818 -50.605  1.00  0.00     0.034 A 
HETATM   23  C   UNL     1     -45.406  58.720 -50.987  1.00  0.00     0.031 A 
HETATM   24  C   UNL     1     -44.828  57.653 -51.692  1.00  0.00     0.026 A 
HETATM   25  C   UNL     1     -43.481  57.680 -52.070  1.00  0.00     0.010 A 
HETATM   26  C   UNL     1     -42.732  58.810 -51.713  1.00  0.00     0.026 A 
HETATM   27  C   UNL     1     -43.294  59.864 -50.985  1.00  0.00     0.031 A 
BRANCH  25  28
HETATM   28  N   UNL     1     -42.845  56.649 -52.773  1.00  0.00    -0.280 NA
HETATM   29  C   UNL     1     -42.657  55.422 -51.965  1.00  0.00     0.115 C 
HETATM   30  C   UNL     1     -42.265  54.240 -52.871  1.00  0.00     0.141 C 
HETATM   31  N   UNL     1     -41.127  54.551 -53.753  1.00  0.00    -0.344 N 
HETATM   32  C   UNL     1     -40.372  53.548 -54.380  1.00  0.00     0.277 C 
HETATM   33  C   UNL     1     -41.271  55.817 -54.485  1.00  0.00     0.141 C 
HETATM   34  O   UNL     1     -39.907  53.729 -55.507  1.00  0.00    -0.265 OA
HETATM   35  C   UNL     1     -41.646  56.992 -53.563  1.00  0.00     0.115 C 
BRANCH  32  36
HETATM   36  C   UNL     1     -40.128  52.302 -53.670  1.00  0.00     0.142 A 
HETATM   37  O   UNL     1     -39.709  52.305 -52.365  1.00  0.00    -0.317 OA
HETATM   38  C   UNL     1     -39.505  51.012 -52.002  1.00  0.00     0.143 A 
HETATM   39  C   UNL     1     -39.766  50.167 -53.053  1.00  0.00     0.027 A 
HETATM   40  C   UNL     1     -40.150  50.996 -54.133  1.00  0.00     0.045 A 
ENDBRANCH  32  36
ENDBRANCH  25  28
ENDBRANCH   1  22
TORSDOF 8
ENDMDL
MODEL 3
REMARK VINA RESULT:      -8.0      2.799      8.434
REMARK  8 active torsions:
REMARK  status: ('A' for Active; 'I' for Inactive)
REMARK    1  A    between atoms: C_4  and  C_5 
REMARK    2  A    between atoms: C_7  and  C_8 
REMARK    3  A    between atoms: C_9  and  C_10 
REMARK       I    between atoms: C_10  and  N_11 
REMARK    4  A    between atoms: N_11  and  C_12 
REMARK    5  A    between atoms: C_12  and  N_13 
REMARK    6  A    between atoms: N_13  and  C_14 
REMARK    7  A    between atoms: C_17  and  N_18 
REMARK       I    between atoms: N_21  and  C_22 
REMARK    8  A    between atoms: C_22  and  C_23 
ROOT
HETATM    1  N   UNL     1     -44.486  58.812 -57.788  1.00  0.00    -0.333 N 
HETATM    2  H   UNL     1     -43.502  58.736 -58.020  1.00  0.00     0.168 HD
ENDROOT
BRANCH   1   3
HETATM    3  C   UNL     1     -45.313  58.046 -58.574  1.00  0.00     0.179 C 
HETATM    4  S   UNL     1     -46.980  57.938 -58.466  1.00  0.00    -0.040 SA
BRANCH   3   5
HETATM    5  N   UNL     1     -44.677  57.193 -59.464  1.00  0.00    -0.300 N 
HETATM    6  C   UNL     1     -43.738  56.182 -59.360  1.00  0.00     0.247 C 
HETATM    7  O   UNL     1     -43.587  55.378 -60.277  1.00  0.00    -0.268 OA
HETATM    8  H   UNL     1     -44.973  57.328 -60.424  1.00  0.00     0.171 HD
BRANCH   6   9
HETATM    9  C   UNL     1     -42.879  56.167 -58.155  1.00  0.00     0.077 C 
HETATM   10  C   UNL     1     -43.218  55.411 -57.101  1.00  0.00     0.042 C 
BRANCH  10  11
HETATM   11  C   UNL     1     -42.353  55.338 -55.976  1.00  0.00     0.076 A 
HETATM   12  O   UNL     1     -41.938  54.152 -55.413  1.00  0.00    -0.310 OA
HETATM   13  C   UNL     1     -41.127  54.420 -54.350  1.00  0.00     0.086 A 
HETATM   14  C   UNL     1     -41.015  55.784 -54.202  1.00  0.00     0.041 A 
HETATM   15  C   UNL     1     -41.781  56.367 -55.243  1.00  0.00     0.040 A 
BRANCH  13  16
HETATM   16  C   UNL     1     -40.588  53.260 -53.646  1.00  0.00    -0.002 A 
HETATM   17  C   UNL     1     -40.395  53.292 -52.257  1.00  0.00     0.014 A 
HETATM   18  C   UNL     1     -39.860  52.190 -51.581  1.00  0.00     0.001 A 
HETATM   19  C   UNL     1     -39.505  51.043 -52.286  1.00  0.00     0.000 A 
HETATM   20  C   UNL     1     -39.690  50.993 -53.665  1.00  0.00     0.001 A 
HETATM   21  C   UNL     1     -40.233  52.091 -54.337  1.00  0.00     0.014 A 
ENDBRANCH  13  16
ENDBRANCH  10  11
ENDBRANCH   6   9
ENDBRANCH   3   5
ENDBRANCH   1   3
BRANCH   1  22
HETATM   22  C   UNL     1     -44.773  59.414 -56.546  1.00  0.00     0.034 A 
HETATM   23  C   UNL     1     -44.731  58.622 -55.397  1.00  0.00     0.031 A 
HETATM   24  C   UNL     1     -44.976  59.184 -54.136  1.00  0.00     0.026 A 
HETATM   25  C   UNL     1     -45.222  60.553 -53.987  1.00  0.00     0.010 A 
HETATM   26  C   UNL     1     -45.219  61.339 -55.148  1.00  0.00     0.026 A 
HETATM   27  C   UNL     1     -45.004  60.781 -56.413  1.00  0.00     0.031 A 
BRANCH  25  28
HETATM   28  N   UNL     1     -45.474  61.175 -52.758  1.00  0.00    -0.280 NA
HETATM   29  C   UNL     1     -44.873  60.460 -51.609  1.00  0.00     0.115 C 
HETATM   30  C   UNL     1     -44.898  61.350 -50.353  1.00  0.00     0.141 C 
HETATM   31  N   UNL     1     -46.234  61.905 -50.074  1.00  0.00    -0.344 N 
HETATM   32  C   UNL     1     -46.580  62.422 -48.817  1.00  0.00     0.277 C 
HETATM   33  C   UNL     1     -46.872  62.532 -51.240  1.00  0.00     0.141 C 
HETATM   34  O   UNL     1     -47.345  63.386 -48.727  1.00  0.00    -0.265 OA
HETATM   35  C   UNL     1     -46.854  61.623 -52.483  1.00  0.00     0.115 C 
BRANCH  32  36
HETATM   36  C   UNL     1     -46.043  61.791 -47.622  1.00  0.00     0.142 A 
HETATM   37  O   UNL     1     -46.516  60.578 -47.192  1.00  0.00    -0.317 OA
HETATM   38  C   UNL     1     -45.877  60.282 -46.031  1.00  0.00     0.143 A 
HETATM   39  C   UNL     1     -45.009  61.290 -45.686  1.00  0.00     0.027 A 
HETATM   40  C   UNL     1     -45.127  62.269 -46.699  1.00  0.00     0.045 A 
ENDBRANCH  32  36
ENDBRANCH  25  28
ENDBRANCH   1  22
TORSDOF 8
ENDMDL
MODEL 4
REMARK VINA RESULT:      -8.0      3.032      7.996
REMARK  8 active torsions:
REMARK  status: ('A' for Active; 'I' for Inactive)
REMARK    1  A    between atoms: C_4  and  C_5 
REMARK    2  A    between atoms: C_7  and  C_8 
REMARK    3  A    between atoms: C_9  and  C_10 
REMARK       I    between atoms: C_10  and  N_11 
REMARK    4  A    between atoms: N_11  and  C_12 
REMARK    5  A    between atoms: C_12  and  N_13 
REMARK    6  A    between atoms: N_13  and  C_14 
REMARK    7  A    between atoms: C_17  and  N_18 
REMARK       I    between atoms: N_21  and  C_22 
REMARK    8  A    between atoms: C_22  and  C_23 
ROOT
HETATM    1  N   UNL     1     -45.819  58.191 -59.263  1.00  0.00    -0.333 N 
HETATM    2  H   UNL     1     -46.360  58.826 -59.840  1.00  0.00     0.168 HD
ENDROOT
BRANCH   1   3
HETATM    3  C   UNL     1     -45.285  57.124 -59.944  1.00  0.00     0.179 C 
HETATM    4  S   UNL     1     -46.078  55.714 -60.378  1.00  0.00    -0.040 SA
BRANCH   3   5
HETATM    5  N   UNL     1     -43.920  57.186 -60.185  1.00  0.00    -0.300 N 
HETATM    6  C   UNL     1     -42.808  56.492 -59.741  1.00  0.00     0.247 C 
HETATM    7  O   UNL     1     -41.750  56.551 -60.362  1.00  0.00    -0.268 OA
HETATM    8  H   UNL     1     -43.668  57.901 -60.856  1.00  0.00     0.171 HD
BRANCH   6   9
HETATM    9  C   UNL     1     -42.925  55.760 -58.459  1.00  0.00     0.077 C 
HETATM   10  C   UNL     1     -42.376  56.269 -57.346  1.00  0.00     0.042 C 
BRANCH  10  11
HETATM   11  C   UNL     1     -42.555  55.606 -56.103  1.00  0.00     0.076 A 
HETATM   12  O   UNL     1     -41.624  54.753 -55.556  1.00  0.00    -0.310 OA
HETATM   13  C   UNL     1     -42.095  54.275 -54.369  1.00  0.00     0.086 A 
HETATM   14  C   UNL     1     -43.346  54.802 -54.136  1.00  0.00     0.041 A 
HETATM   15  C   UNL     1     -43.631  55.659 -55.229  1.00  0.00     0.040 A 
BRANCH  13  16
HETATM   16  C   UNL     1     -41.213  53.359 -53.650  1.00  0.00    -0.002 A 
HETATM   17  C   UNL     1     -40.596  52.290 -54.316  1.00  0.00     0.014 A 
HETATM   18  C   UNL     1     -39.767  51.398 -53.626  1.00  0.00     0.001 A 
HETATM   19  C   UNL     1     -39.549  51.561 -52.260  1.00  0.00     0.000 A 
HETATM   20  C   UNL     1     -40.153  52.616 -51.584  1.00  0.00     0.001 A 
HETATM   21  C   UNL     1     -40.974  53.512 -52.276  1.00  0.00     0.014 A 
ENDBRANCH  13  16
ENDBRANCH  10  11
ENDBRANCH   6   9
ENDBRANCH   3   5
ENDBRANCH   1   3
BRANCH   1  22
HETATM   22  C   UNL     1     -45.464  58.681 -57.989  1.00  0.00     0.034 A 
HETATM   23  C   UNL     1     -46.037  58.084 -56.865  1.00  0.00     0.031 A 
HETATM   24  C   UNL     1     -45.689  58.514 -55.575  1.00  0.00     0.026 A 
HETATM   25  C   UNL     1     -44.732  59.515 -55.379  1.00  0.00     0.010 A 
HETATM   26  C   UNL     1     -44.138  60.074 -56.520  1.00  0.00     0.026 A 
HETATM   27  C   UNL     1     -44.501  59.670 -57.810  1.00  0.00     0.031 A 
BRANCH  25  28
HETATM   28  N   UNL     1     -44.341  59.990 -54.121  1.00  0.00    -0.280 NA
HETATM   29  C   UNL     1     -45.428  59.940 -53.116  1.00  0.00     0.115 C 
HETATM   30  C   UNL     1     -44.858  60.154 -51.702  1.00  0.00     0.141 C 
HETATM   31  N   UNL     1     -44.013  61.357 -51.604  1.00  0.00    -0.344 N 
HETATM   32  C   UNL     1     -43.699  61.950 -50.371  1.00  0.00     0.277 C 
HETATM   33  C   UNL     1     -42.994  61.454 -52.658  1.00  0.00     0.141 C 
HETATM   34  O   UNL     1     -42.598  62.476 -50.195  1.00  0.00    -0.265 OA
HETATM   35  C   UNL     1     -43.582  61.255 -54.067  1.00  0.00     0.115 C 
BRANCH  32  36
HETATM   36  C   UNL     1     -44.699  61.955 -49.315  1.00  0.00     0.142 A 
HETATM   37  O   UNL     1     -45.867  62.658 -49.455  1.00  0.00    -0.317 OA
HETATM   38  C   UNL     1     -46.560  62.528 -48.294  1.00  0.00     0.143 A 
HETATM   39  C   UNL     1     -45.855  61.767 -47.393  1.00  0.00     0.027 A 
HETATM   40  C   UNL     1     -44.650  61.412 -48.042  1.00  0.00     0.045 A 
ENDBRANCH  32  36
ENDBRANCH  25  28
ENDBRANCH   1  22
TORSDOF 8
ENDMDL
MODEL 5
REMARK VINA RESULT:      -7.8      3.722      6.481
REMARK  8 active torsions:
REMARK  status: ('A' for Active; 'I' for Inactive)
REMARK    1  A    between atoms: C_4  and  C_5 
REMARK    2  A    between atoms: C_7  and  C_8 
REMARK    3  A    between atoms: C_9  and  C_10 
REMARK       I    between atoms: C_10  and  N_11 
REMARK    4  A    between atoms: N_11  and  C_12 
REMARK    5  A    between atoms: C_12  and  N_13 
REMARK    6  A    between atoms: N_13  and  C_14 
REMARK    7  A    between atoms: C_17  and  N_18 
REMARK       I    between atoms: N_21  and  C_22 
REMARK    8  A    between atoms: C_22  and  C_23 
ROOT
HETATM    1  N   UNL     1     -41.675  53.003 -51.691  1.00  0.00    -0.333 N 
HETATM    2  H   UNL     1     -42.515  52.540 -51.362  1.00  0.00     0.168 HD
ENDROOT
BRANCH   1   3
HETATM    3  C   UNL     1     -40.511  52.517 -51.145  1.00  0.00     0.179 C 
HETATM    4  S   UNL     1     -39.481  51.385 -51.826  1.00  0.00    -0.040 SA
BRANCH   3   5
HETATM    5  N   UNL     1     -40.236  52.927 -49.850  1.00  0.00    -0.300 N 
HETATM    6  C   UNL     1     -40.313  54.124 -49.158  1.00  0.00     0.247 C 
HETATM    7  O   UNL     1     -40.306  54.132 -47.929  1.00  0.00    -0.268 OA
HETATM    8  H   UNL     1     -39.909  52.175 -49.255  1.00  0.00     0.171 HD
BRANCH   6   9
HETATM    9  C   UNL     1     -40.316  55.374 -49.950  1.00  0.00     0.077 C 
HETATM   10  C   UNL     1     -41.414  56.145 -49.980  1.00  0.00     0.042 C 
BRANCH  10  11
HETATM   11  C   UNL     1     -41.389  57.382 -50.677  1.00  0.00     0.076 A 
HETATM   12  O   UNL     1     -42.335  57.748 -51.608  1.00  0.00    -0.310 OA
HETATM   13  C   UNL     1     -42.027  58.982 -52.099  1.00  0.00     0.086 A 
HETATM   14  C   UNL     1     -40.869  59.429 -51.501  1.00  0.00     0.041 A 
HETATM   15  C   UNL     1     -40.473  58.420 -50.588  1.00  0.00     0.040 A 
BRANCH  13  16
HETATM   16  C   UNL     1     -42.946  59.524 -53.096  1.00  0.00    -0.002 A 
HETATM   17  C   UNL     1     -44.230  58.982 -53.256  1.00  0.00     0.014 A 
HETATM   18  C   UNL     1     -45.106  59.485 -54.224  1.00  0.00     0.001 A 
HETATM   19  C   UNL     1     -44.707  60.533 -55.050  1.00  0.00     0.000 A 
HETATM   20  C   UNL     1     -43.437  61.083 -54.905  1.00  0.00     0.001 A 
HETATM   21  C   UNL     1     -42.566  60.586 -53.931  1.00  0.00     0.014 A 
ENDBRANCH  13  16
ENDBRANCH  10  11
ENDBRANCH   6   9
ENDBRANCH   3   5
ENDBRANCH   1   3
BRANCH   1  22
HETATM   22  C   UNL     1     -41.833  53.804 -52.840  1.00  0.00     0.034 A 
HETATM   23  C   UNL     1     -40.808  53.817 -53.788  1.00  0.00     0.031 A 
HETATM   24  C   UNL     1     -40.934  54.573 -54.963  1.00  0.00     0.026 A 
HETATM   25  C   UNL     1     -42.101  55.293 -55.239  1.00  0.00     0.010 A 
HETATM   26  C   UNL     1     -43.136  55.234 -54.295  1.00  0.00     0.026 A 
HETATM   27  C   UNL     1     -43.006  54.506 -53.107  1.00  0.00     0.031 A 
BRANCH  25  28
HETATM   28  N   UNL     1     -42.290  56.066 -56.391  1.00  0.00    -0.280 NA
HETATM   29  C   UNL     1     -42.482  57.506 -56.102  1.00  0.00     0.115 C 
HETATM   30  C   UNL     1     -42.353  58.333 -57.395  1.00  0.00     0.141 C 
HETATM   31  N   UNL     1     -43.207  57.826 -58.484  1.00  0.00    -0.344 N 
HETATM   32  C   UNL     1     -43.534  58.609 -59.601  1.00  0.00     0.277 C 
HETATM   33  C   UNL     1     -43.085  56.379 -58.709  1.00  0.00     0.141 C 
HETATM   34  O   UNL     1     -43.660  58.089 -60.712  1.00  0.00    -0.265 OA
HETATM   35  C   UNL     1     -43.234  55.566 -57.410  1.00  0.00     0.115 C 
BRANCH  32  36
HETATM   36  C   UNL     1     -43.745  60.037 -59.425  1.00  0.00     0.142 A 
HETATM   37  O   UNL     1     -42.785  60.942 -59.798  1.00  0.00    -0.317 OA
HETATM   38  C   UNL     1     -43.236  62.176 -59.454  1.00  0.00     0.143 A 
HETATM   39  C   UNL     1     -44.464  62.090 -58.845  1.00  0.00     0.027 A 
HETATM   40  C   UNL     1     -44.786  60.713 -58.810  1.00  0.00     0.045 A 
ENDBRANCH  32  36
ENDBRANCH  25  28
ENDBRANCH   1  22
TORSDOF 8
ENDMDL
MODEL 6
REMARK VINA RESULT:      -7.7      3.694      7.939
REMARK  8 active torsions:
REMARK  status: ('A' for Active; 'I' for Inactive)
REMARK    1  A    between atoms: C_4  and  C_5 
REMARK    2  A    between atoms: C_7  and  C_8 
REMARK    3  A    between atoms: C_9  and  C_10 
REMARK       I    between atoms: C_10  and  N_11 
REMARK    4  A    between atoms: N_11  and  C_12 
REMARK    5  A    between atoms: C_12  and  N_13 
REMARK    6  A    between atoms: N_13  and  C_14 
REMARK    7  A    between atoms: C_17  and  N_18 
REMARK       I    between atoms: N_21  and  C_22 
REMARK    8  A    between atoms: C_22  and  C_23 
ROOT
HETATM    1  N   UNL     1     -42.076  53.974 -50.621  1.00  0.00    -0.333 N 
HETATM    2  H   UNL     1     -42.739  53.211 -50.700  1.00  0.00     0.168 HD
ENDROOT
BRANCH   1   3
HETATM    3  C   UNL     1     -40.758  53.585 -50.663  1.00  0.00     0.179 C 
HETATM    4  S   UNL     1     -39.494  54.232 -49.775  1.00  0.00    -0.040 SA
BRANCH   3   5
HETATM    5  N   UNL     1     -40.440  52.640 -51.627  1.00  0.00    -0.300 N 
HETATM    6  C   UNL     1     -40.230  52.660 -52.995  1.00  0.00     0.247 C 
HETATM    7  O   UNL     1     -39.649  51.729 -53.547  1.00  0.00    -0.268 OA
HETATM    8  H   UNL     1     -40.319  51.709 -51.246  1.00  0.00     0.171 HD
BRANCH   6   9
HETATM    9  C   UNL     1     -40.803  53.791 -53.759  1.00  0.00     0.077 C 
HETATM   10  C   UNL     1     -42.084  53.750 -54.154  1.00  0.00     0.042 C 
BRANCH  10  11
HETATM   11  C   UNL     1     -42.654  54.869 -54.820  1.00  0.00     0.076 A 
HETATM   12  O   UNL     1     -42.259  55.292 -56.068  1.00  0.00    -0.310 OA
HETATM   13  C   UNL     1     -42.988  56.388 -56.422  1.00  0.00     0.086 A 
HETATM   14  C   UNL     1     -43.858  56.699 -55.401  1.00  0.00     0.041 A 
HETATM   15  C   UNL     1     -43.656  55.726 -54.390  1.00  0.00     0.040 A 
BRANCH  13  16
HETATM   16  C   UNL     1     -42.698  56.956 -57.735  1.00  0.00    -0.002 A 
HETATM   17  C   UNL     1     -42.786  56.167 -58.892  1.00  0.00     0.014 A 
HETATM   18  C   UNL     1     -42.488  56.702 -60.150  1.00  0.00     0.001 A 
HETATM   19  C   UNL     1     -42.092  58.032 -60.268  1.00  0.00     0.000 A 
HETATM   20  C   UNL     1     -41.999  58.829 -59.131  1.00  0.00     0.001 A 
HETATM   21  C   UNL     1     -42.306  58.297 -57.876  1.00  0.00     0.014 A 
ENDBRANCH  13  16
ENDBRANCH  10  11
ENDBRANCH   6   9
ENDBRANCH   3   5
ENDBRANCH   1   3
BRANCH   1  22
HETATM   22  C   UNL     1     -42.611  55.266 -50.801  1.00  0.00     0.034 A 
HETATM   23  C   UNL     1     -41.755  56.289 -51.214  1.00  0.00     0.031 A 
HETATM   24  C   UNL     1     -42.249  57.583 -51.439  1.00  0.00     0.026 A 
HETATM   25  C   UNL     1     -43.611  57.873 -51.302  1.00  0.00     0.010 A 
HETATM   26  C   UNL     1     -44.461  56.823 -50.928  1.00  0.00     0.026 A 
HETATM   27  C   UNL     1     -43.971  55.536 -50.673  1.00  0.00     0.031 A 
BRANCH  25  28
HETATM   28  N   UNL     1     -44.166  59.141 -51.511  1.00  0.00    -0.280 NA
HETATM   29  C   UNL     1     -45.624  59.188 -51.256  1.00  0.00     0.115 C 
HETATM   30  C   UNL     1     -46.107  60.648 -51.179  1.00  0.00     0.141 C 
HETATM   31  N   UNL     1     -45.680  61.452 -52.338  1.00  0.00    -0.344 N 
HETATM   32  C   UNL     1     -46.293  62.670 -52.668  1.00  0.00     0.277 C 
HETATM   33  C   UNL     1     -44.249  61.331 -52.649  1.00  0.00     0.141 C 
HETATM   34  O   UNL     1     -45.630  63.592 -53.149  1.00  0.00    -0.265 OA
HETATM   35  C   UNL     1     -43.786  59.866 -52.740  1.00  0.00     0.115 C 
BRANCH  32  36
HETATM   36  C   UNL     1     -47.724  62.820 -52.457  1.00  0.00     0.142 A 
HETATM   37  O   UNL     1     -48.621  62.023 -53.120  1.00  0.00    -0.317 OA
HETATM   38  C   UNL     1     -49.867  62.438 -52.772  1.00  0.00     0.143 A 
HETATM   39  C   UNL     1     -49.797  63.503 -51.908  1.00  0.00     0.027 A 
HETATM   40  C   UNL     1     -48.420  63.762 -51.718  1.00  0.00     0.045 A 
ENDBRANCH  32  36
ENDBRANCH  25  28
ENDBRANCH   1  22
TORSDOF 8
ENDMDL
MODEL 7
REMARK VINA RESULT:      -7.6      3.801      6.414
REMARK  8 active torsions:
REMARK  status: ('A' for Active; 'I' for Inactive)
REMARK    1  A    between atoms: C_4  and  C_5 
REMARK    2  A    between atoms: C_7  and  C_8 
REMARK    3  A    between atoms: C_9  and  C_10 
REMARK       I    between atoms: C_10  and  N_11 
REMARK    4  A    between atoms: N_11  and  C_12 
REMARK    5  A    between atoms: C_12  and  N_13 
REMARK    6  A    between atoms: N_13  and  C_14 
REMARK    7  A    between atoms: C_17  and  N_18 
REMARK       I    between atoms: N_21  and  C_22 
REMARK    8  A    between atoms: C_22  and  C_23 
ROOT
HETATM    1  N   UNL     1     -41.836  53.323 -51.840  1.00  0.00    -0.333 N 
HETATM    2  H   UNL     1     -42.600  52.658 -51.794  1.00  0.00     0.168 HD
ENDROOT
BRANCH   1   3
HETATM    3  C   UNL     1     -40.653  52.864 -51.312  1.00  0.00     0.179 C 
HETATM    4  S   UNL     1     -39.474  51.985 -52.112  1.00  0.00    -0.040 SA
BRANCH   3   5
HETATM    5  N   UNL     1     -40.488  53.056 -49.949  1.00  0.00    -0.300 N 
HETATM    6  C   UNL     1     -40.945  53.976 -49.021  1.00  0.00     0.247 C 
HETATM    7  O   UNL     1     -40.895  53.722 -47.820  1.00  0.00    -0.268 OA
HETATM    8  H   UNL     1     -39.902  52.352 -49.517  1.00  0.00     0.171 HD
BRANCH   6   9
HETATM    9  C   UNL     1     -41.404  55.289 -49.527  1.00  0.00     0.077 C 
HETATM   10  C   UNL     1     -40.512  56.181 -49.980  1.00  0.00     0.042 C 
BRANCH  10  11
HETATM   11  C   UNL     1     -40.960  57.409 -50.536  1.00  0.00     0.076 A 
HETATM   12  O   UNL     1     -42.289  57.728 -50.700  1.00  0.00    -0.310 OA
HETATM   13  C   UNL     1     -42.387  58.965 -51.265  1.00  0.00     0.086 A 
HETATM   14  C   UNL     1     -41.121  59.461 -51.487  1.00  0.00     0.041 A 
HETATM   15  C   UNL     1     -40.216  58.479 -51.010  1.00  0.00     0.040 A 
BRANCH  13  16
HETATM   16  C   UNL     1     -43.741  59.460 -51.496  1.00  0.00    -0.002 A 
HETATM   17  C   UNL     1     -43.953  60.713 -52.092  1.00  0.00     0.014 A 
HETATM   18  C   UNL     1     -45.249  61.200 -52.295  1.00  0.00     0.001 A 
HETATM   19  C   UNL     1     -46.350  60.443 -51.901  1.00  0.00     0.000 A 
HETATM   20  C   UNL     1     -46.157  59.199 -51.309  1.00  0.00     0.001 A 
HETATM   21  C   UNL     1     -44.863  58.709 -51.114  1.00  0.00     0.014 A 
ENDBRANCH  13  16
ENDBRANCH  10  11
ENDBRANCH   6   9
ENDBRANCH   3   5
ENDBRANCH   1   3
BRANCH   1  22
HETATM   22  C   UNL     1     -42.042  54.427 -52.694  1.00  0.00     0.034 A 
HETATM   23  C   UNL     1     -43.313  55.003 -52.740  1.00  0.00     0.031 A 
HETATM   24  C   UNL     1     -43.557  56.123 -53.549  1.00  0.00     0.026 A 
HETATM   25  C   UNL     1     -42.532  56.719 -54.291  1.00  0.00     0.010 A 
HETATM   26  C   UNL     1     -41.253  56.151 -54.199  1.00  0.00     0.026 A 
HETATM   27  C   UNL     1     -41.009  55.016 -53.417  1.00  0.00     0.031 A 
BRANCH  25  28
HETATM   28  N   UNL     1     -42.710  57.836 -55.116  1.00  0.00    -0.280 NA
HETATM   29  C   UNL     1     -42.824  57.488 -56.551  1.00  0.00     0.115 C 
HETATM   30  C   UNL     1     -43.342  58.696 -57.354  1.00  0.00     0.141 C 
HETATM   31  N   UNL     1     -42.568  59.923 -57.101  1.00  0.00    -0.344 N 
HETATM   32  C   UNL     1     -42.610  61.025 -57.968  1.00  0.00     0.277 C 
HETATM   33  C   UNL     1     -42.373  60.218 -55.674  1.00  0.00     0.141 C 
HETATM   34  O   UNL     1     -42.533  62.173 -57.524  1.00  0.00    -0.265 OA
HETATM   35  C   UNL     1     -41.840  59.006 -54.889  1.00  0.00     0.115 C 
BRANCH  32  36
HETATM   36  C   UNL     1     -42.720  60.792 -59.400  1.00  0.00     0.142 A 
HETATM   37  O   UNL     1     -41.657  60.311 -60.120  1.00  0.00    -0.317 OA
HETATM   38  C   UNL     1     -42.038  60.262 -61.422  1.00  0.00     0.143 A 
HETATM   39  C   UNL     1     -43.325  60.720 -61.567  1.00  0.00     0.027 A 
HETATM   40  C   UNL     1     -43.760  61.077 -60.269  1.00  0.00     0.045 A 
ENDBRANCH  32  36
ENDBRANCH  25  28
ENDBRANCH   1  22
TORSDOF 8
ENDMDL
MODEL 8
REMARK VINA RESULT:      -7.5      3.720      6.385
REMARK  8 active torsions:
REMARK  status: ('A' for Active; 'I' for Inactive)
REMARK    1  A    between atoms: C_4  and  C_5 
REMARK    2  A    between atoms: C_7  and  C_8 
REMARK    3  A    between atoms: C_9  and  C_10 
REMARK       I    between atoms: C_10  and  N_11 
REMARK    4  A    between atoms: N_11  and  C_12 
REMARK    5  A    between atoms: C_12  and  N_13 
REMARK    6  A    between atoms: N_13  and  C_14 
REMARK    7  A    between atoms: C_17  and  N_18 
REMARK       I    between atoms: N_21  and  C_22 
REMARK    8  A    between atoms: C_22  and  C_23 
ROOT
HETATM    1  N   UNL     1     -41.877  53.298 -51.633  1.00  0.00    -0.333 N 
HETATM    2  H   UNL     1     -42.608  52.623 -51.438  1.00  0.00     0.168 HD
ENDROOT
BRANCH   1   3
HETATM    3  C   UNL     1     -40.666  53.004 -51.053  1.00  0.00     0.179 C 
HETATM    4  S   UNL     1     -39.487  51.983 -51.661  1.00  0.00    -0.040 SA
BRANCH   3   5
HETATM    5  N   UNL     1     -40.466  53.522 -49.783  1.00  0.00    -0.300 N 
HETATM    6  C   UNL     1     -40.946  54.611 -49.076  1.00  0.00     0.247 C 
HETATM    7  O   UNL     1     -40.839  54.652 -47.852  1.00  0.00    -0.268 OA
HETATM    8  H   UNL     1     -39.823  52.972 -49.226  1.00  0.00     0.171 HD
BRANCH   6   9
HETATM    9  C   UNL     1     -41.504  55.741 -49.853  1.00  0.00     0.077 C 
HETATM   10  C   UNL     1     -40.680  56.577 -50.501  1.00  0.00     0.042 C 
BRANCH  10  11
HETATM   11  C   UNL     1     -41.219  57.614 -51.309  1.00  0.00     0.076 A 
HETATM   12  O   UNL     1     -42.522  58.050 -51.217  1.00  0.00    -0.310 OA
HETATM   13  C   UNL     1     -42.728  59.043 -52.129  1.00  0.00     0.086 A 
HETATM   14  C   UNL     1     -41.564  59.257 -52.833  1.00  0.00     0.041 A 
HETATM   15  C   UNL     1     -40.602  58.361 -52.302  1.00  0.00     0.040 A 
BRANCH  13  16
HETATM   16  C   UNL     1     -44.067  59.625 -52.151  1.00  0.00    -0.002 A 
HETATM   17  C   UNL     1     -44.931  59.475 -51.057  1.00  0.00     0.014 A 
HETATM   18  C   UNL     1     -46.222  60.013 -51.082  1.00  0.00     0.001 A 
HETATM   19  C   UNL     1     -46.668  60.705 -52.206  1.00  0.00     0.000 A 
HETATM   20  C   UNL     1     -45.824  60.864 -53.301  1.00  0.00     0.001 A 
HETATM   21  C   UNL     1     -44.531  60.333 -53.270  1.00  0.00     0.014 A 
ENDBRANCH  13  16
ENDBRANCH  10  11
ENDBRANCH   6   9
ENDBRANCH   3   5
ENDBRANCH   1   3
BRANCH   1  22
HETATM   22  C   UNL     1     -42.147  54.200 -52.683  1.00  0.00     0.034 A 
HETATM   23  C   UNL     1     -43.401  54.814 -52.727  1.00  0.00     0.031 A 
HETATM   24  C   UNL     1     -43.703  55.743 -53.733  1.00  0.00     0.026 A 
HETATM   25  C   UNL     1     -42.750  56.114 -54.687  1.00  0.00     0.010 A 
HETATM   26  C   UNL     1     -41.484  55.519 -54.602  1.00  0.00     0.026 A 
HETATM   27  C   UNL     1     -41.184  54.569 -53.619  1.00  0.00     0.031 A 
BRANCH  25  28
HETATM   28  N   UNL     1     -42.988  57.034 -55.716  1.00  0.00    -0.280 NA
HETATM   29  C   UNL     1     -44.365  57.581 -55.701  1.00  0.00     0.115 C 
HETATM   30  C   UNL     1     -44.462  58.807 -56.628  1.00  0.00     0.141 C 
HETATM   31  N   UNL     1     -43.942  58.543 -57.980  1.00  0.00    -0.344 N 
HETATM   32  C   UNL     1     -44.258  59.363 -59.074  1.00  0.00     0.277 C 
HETATM   33  C   UNL     1     -42.615  57.914 -57.993  1.00  0.00     0.141 C 
HETATM   34  O   UNL     1     -43.428  59.565 -59.963  1.00  0.00    -0.265 OA
HETATM   35  C   UNL     1     -42.538  56.680 -57.076  1.00  0.00     0.115 C 
BRANCH  32  36
HETATM   36  C   UNL     1     -45.587  59.950 -59.156  1.00  0.00     0.142 A 
HETATM   37  O   UNL     1     -45.804  61.254 -58.793  1.00  0.00    -0.317 OA
HETATM   38  C   UNL     1     -47.136  61.491 -58.913  1.00  0.00     0.143 A 
HETATM   39  C   UNL     1     -47.793  60.359 -59.330  1.00  0.00     0.027 A 
HETATM   40  C   UNL     1     -46.800  59.362 -59.471  1.00  0.00     0.045 A 
ENDBRANCH  32  36
ENDBRANCH  25  28
ENDBRANCH   1  22
TORSDOF 8
ENDMDL
MODEL 9
REMARK VINA RESULT:      -7.5      3.226      9.077
REMARK  8 active torsions:
REMARK  status: ('A' for Active; 'I' for Inactive)
REMARK    1  A    between atoms: C_4  and  C_5 
REMARK    2  A    between atoms: C_7  and  C_8 
REMARK    3  A    between atoms: C_9  and  C_10 
REMARK       I    between atoms: C_10  and  N_11 
REMARK    4  A    between atoms: N_11  and  C_12 
REMARK    5  A    between atoms: C_12  and  N_13 
REMARK    6  A    between atoms: N_13  and  C_14 
REMARK    7  A    between atoms: C_17  and  N_18 
REMARK       I    between atoms: N_21  and  C_22 
REMARK    8  A    between atoms: C_22  and  C_23 
ROOT
HETATM    1  N   UNL     1     -44.502  58.434 -55.774  1.00  0.00    -0.333 N 
HETATM    2  H   UNL     1     -45.364  58.065 -56.159  1.00  0.00     0.168 HD
ENDROOT
BRANCH   1   3
HETATM    3  C   UNL     1     -43.431  58.383 -56.635  1.00  0.00     0.179 C 
HETATM    4  S   UNL     1     -42.218  59.526 -56.794  1.00  0.00    -0.040 SA
BRANCH   3   5
HETATM    5  N   UNL     1     -43.434  57.329 -57.536  1.00  0.00    -0.300 N 
HETATM    6  C   UNL     1     -43.168  55.972 -57.466  1.00  0.00     0.247 C 
HETATM    7  O   UNL     1     -43.556  55.217 -58.355  1.00  0.00    -0.268 OA
HETATM    8  H   UNL     1     -43.705  57.607 -58.472  1.00  0.00     0.171 HD
BRANCH   6   9
HETATM    9  C   UNL     1     -42.335  55.494 -56.340  1.00  0.00     0.077 C 
HETATM   10  C   UNL     1     -42.665  54.365 -55.695  1.00  0.00     0.042 C 
BRANCH  10  11
HETATM   11  C   UNL     1     -41.823  53.867 -54.666  1.00  0.00     0.076 A 
HETATM   12  O   UNL     1     -41.884  54.297 -53.360  1.00  0.00    -0.310 OA
HETATM   13  C   UNL     1     -40.944  53.635 -52.625  1.00  0.00     0.086 A 
HETATM   14  C   UNL     1     -40.252  52.776 -53.449  1.00  0.00     0.041 A 
HETATM   15  C   UNL     1     -40.820  52.912 -54.741  1.00  0.00     0.040 A 
BRANCH  13  16
HETATM   16  C   UNL     1     -40.887  53.970 -51.205  1.00  0.00    -0.002 A 
HETATM   17  C   UNL     1     -40.491  53.013 -50.259  1.00  0.00     0.014 A 
HETATM   18  C   UNL     1     -40.454  53.324 -48.896  1.00  0.00     0.001 A 
HETATM   19  C   UNL     1     -40.819  54.595 -48.459  1.00  0.00     0.000 A 
HETATM   20  C   UNL     1     -41.215  55.557 -49.384  1.00  0.00     0.001 A 
HETATM   21  C   UNL     1     -41.242  55.248 -50.746  1.00  0.00     0.014 A 
ENDBRANCH  13  16
ENDBRANCH  10  11
ENDBRANCH   6   9
ENDBRANCH   3   5
ENDBRANCH   1   3
BRANCH   1  22
HETATM   22  C   UNL     1     -44.639  59.195 -54.595  1.00  0.00     0.034 A 
HETATM   23  C   UNL     1     -45.530  60.270 -54.597  1.00  0.00     0.031 A 
HETATM   24  C   UNL     1     -45.725  61.035 -53.438  1.00  0.00     0.026 A 
HETATM   25  C   UNL     1     -45.072  60.718 -52.242  1.00  0.00     0.010 A 
HETATM   26  C   UNL     1     -44.213  59.610 -52.248  1.00  0.00     0.026 A 
HETATM   27  C   UNL     1     -43.991  58.860 -53.409  1.00  0.00     0.031 A 
BRANCH  25  28
HETATM   28  N   UNL     1     -45.223  61.440 -51.052  1.00  0.00    -0.280 NA
HETATM   29  C   UNL     1     -44.462  60.863 -49.919  1.00  0.00     0.115 C 
HETATM   30  C   UNL     1     -44.400  61.866 -48.752  1.00  0.00     0.141 C 
HETATM   31  N   UNL     1     -45.726  62.384 -48.374  1.00  0.00    -0.344 N 
HETATM   32  C   UNL     1     -45.961  63.001 -47.136  1.00  0.00     0.277 C 
HETATM   33  C   UNL     1     -46.519  62.870 -49.511  1.00  0.00     0.141 C 
HETATM   34  O   UNL     1     -46.762  63.934 -47.045  1.00  0.00    -0.265 OA
HETATM   35  C   UNL     1     -46.586  61.851 -50.662  1.00  0.00     0.115 C 
BRANCH  32  36
HETATM   36  C   UNL     1     -45.263  62.509 -45.958  1.00  0.00     0.142 A 
HETATM   37  O   UNL     1     -45.012  61.171 -45.796  1.00  0.00    -0.317 OA
HETATM   38  C   UNL     1     -44.414  61.014 -44.587  1.00  0.00     0.143 A 
HETATM   39  C   UNL     1     -44.289  62.224 -43.949  1.00  0.00     0.027 A 
HETATM   40  C   UNL     1     -44.850  63.185 -44.822  1.00  0.00     0.045 A 
ENDBRANCH  32  36
ENDBRANCH  25  28
ENDBRANCH   1  22
TORSDOF 8
ENDMDL
MODEL 10
REMARK VINA RESULT:      -7.4      2.934      4.001
REMARK  8 active torsions:
REMARK  status: ('A' for Active; 'I' for Inactive)
REMARK    1  A    between atoms: C_4  and  C_5 
REMARK    2  A    between atoms: C_7  and  C_8 
REMARK    3  A    between atoms: C_9  and  C_10 
REMARK       I    between atoms: C_10  and  N_11 
REMARK    4  A    between atoms: N_11  and  C_12 
REMARK    5  A    between atoms: C_12  and  N_13 
REMARK    6  A    between atoms: N_13  and  C_14 
REMARK    7  A    between atoms: C_17  and  N_18 
REMARK       I    between atoms: N_21  and  C_22 
REMARK    8  A    between atoms: C_22  and  C_23 
ROOT
HETATM    1  N   UNL     1     -41.518  59.464 -52.774  1.00  0.00    -0.333 N 
HETATM    2  H   UNL     1     -40.579  59.832 -52.870  1.00  0.00     0.168 HD
ENDROOT
BRANCH   1   3
HETATM    3  C   UNL     1     -41.896  59.206 -51.478  1.00  0.00     0.179 C 
HETATM    4  S   UNL     1     -40.969  59.430 -50.102  1.00  0.00    -0.040 SA
BRANCH   3   5
HETATM    5  N   UNL     1     -43.127  58.588 -51.322  1.00  0.00    -0.300 N 
HETATM    6  C   UNL     1     -43.573  57.279 -51.258  1.00  0.00     0.247 C 
HETATM    7  O   UNL     1     -44.682  57.023 -50.797  1.00  0.00    -0.268 OA
HETATM    8  H   UNL     1     -43.891  59.246 -51.217  1.00  0.00     0.171 HD
BRANCH   6   9
HETATM    9  C   UNL     1     -42.704  56.232 -51.840  1.00  0.00     0.077 C 
HETATM   10  C   UNL     1     -42.610  56.105 -53.172  1.00  0.00     0.042 C 
BRANCH  10  11
HETATM   11  C   UNL     1     -41.717  55.151 -53.730  1.00  0.00     0.076 A 
HETATM   12  O   UNL     1     -41.439  53.937 -53.143  1.00  0.00    -0.310 OA
HETATM   13  C   UNL     1     -40.544  53.260 -53.917  1.00  0.00     0.086 A 
HETATM   14  C   UNL     1     -40.220  54.031 -55.011  1.00  0.00     0.041 A 
HETATM   15  C   UNL     1     -40.976  55.225 -54.900  1.00  0.00     0.040 A 
BRANCH  13  16
HETATM   16  C   UNL     1     -40.152  51.938 -53.436  1.00  0.00    -0.002 A 
HETATM   17  C   UNL     1     -39.881  51.722 -52.077  1.00  0.00     0.014 A 
HETATM   18  C   UNL     1     -39.484  50.462 -51.615  1.00  0.00     0.001 A 
HETATM   19  C   UNL     1     -39.347  49.402 -52.509  1.00  0.00     0.000 A 
HETATM   20  C   UNL     1     -39.612  49.598 -53.861  1.00  0.00     0.001 A 
HETATM   21  C   UNL     1     -40.017  50.855 -54.319  1.00  0.00     0.014 A 
ENDBRANCH  13  16
ENDBRANCH  10  11
ENDBRANCH   6   9
ENDBRANCH   3   5
ENDBRANCH   1   3
BRANCH   1  22
HETATM   22  C   UNL     1     -42.338  59.587 -53.915  1.00  0.00     0.034 A 
HETATM   23  C   UNL     1     -43.438  60.445 -53.853  1.00  0.00     0.031 A 
HETATM   24  C   UNL     1     -44.263  60.626 -54.973  1.00  0.00     0.026 A 
HETATM   25  C   UNL     1     -43.984  59.993 -56.189  1.00  0.00     0.010 A 
HETATM   26  C   UNL     1     -42.851  59.169 -56.243  1.00  0.00     0.026 A 
HETATM   27  C   UNL     1     -42.040  58.960 -55.122  1.00  0.00     0.031 A 
BRANCH  25  28
HETATM   28  N   UNL     1     -44.766  60.132 -57.342  1.00  0.00    -0.280 NA
HETATM   29  C   UNL     1     -45.615  58.949 -57.616  1.00  0.00     0.115 C 
HETATM   30  C   UNL     1     -46.675  59.287 -58.681  1.00  0.00     0.141 C 
HETATM   31  N   UNL     1     -46.093  59.894 -59.891  1.00  0.00    -0.344 N 
HETATM   32  C   UNL     1     -46.787  59.941 -61.110  1.00  0.00     0.277 C 
HETATM   33  C   UNL     1     -45.177  61.008 -59.614  1.00  0.00     0.141 C 
HETATM   34  O   UNL     1     -46.652  60.903 -61.868  1.00  0.00    -0.265 OA
HETATM   35  C   UNL     1     -44.113  60.650 -58.560  1.00  0.00     0.115 C 
BRANCH  32  36
HETATM   36  C   UNL     1     -47.649  58.827 -61.475  1.00  0.00     0.142 A 
HETATM   37  O   UNL     1     -47.194  57.535 -61.413  1.00  0.00    -0.317 OA
HETATM   38  C   UNL     1     -48.189  56.733 -61.871  1.00  0.00     0.143 A 
HETATM   39  C   UNL     1     -49.278  57.480 -62.249  1.00  0.00     0.027 A 
HETATM   40  C   UNL     1     -48.926  58.829 -62.011  1.00  0.00     0.045 A 
ENDBRANCH  32  36
ENDBRANCH  25  28
ENDBRANCH   1  22
TORSDOF 8
ENDMDL
