MODEL 1
REMARK VINA RESULT:      -8.6      0.000      0.000
REMARK  5 active torsions:
REMARK  status: ('A' for Active; 'I' for Inactive)
REMARK    1  A    between atoms: C_7  and  C_8 
REMARK    2  A    between atoms: C_10  and  N_11 
REMARK       I    between atoms: N_11  and  C_12 
REMARK    3  A    between atoms: C_12  and  C_13 
REMARK    4  A    between atoms: C_15  and  O_16 
REMARK    5  A    between atoms: C_19  and  O_20 
ROOT
HETATM    1  C   UNL     1     -43.036  56.207 -52.839  1.00  0.00     0.019 A 
HETATM    2  C   UNL     1     -43.064  57.166 -51.812  1.00  0.00     0.045 A 
HETATM    3  C   UNL     1     -43.897  58.288 -51.877  1.00  0.00     0.035 A 
HETATM    4  C   UNL     1     -44.718  58.450 -52.996  1.00  0.00     0.029 A 
HETATM    5  C   UNL     1     -44.694  57.513 -54.035  1.00  0.00     0.003 A 
HETATM    6  C   UNL     1     -43.858  56.398 -53.955  1.00  0.00     0.016 A 
ENDROOT
BRANCH   3   7
HETATM    7  N   UNL     1     -43.995  59.242 -50.836  1.00  0.00    -0.323 N 
HETATM    8  C   UNL     1     -45.140  59.539 -50.110  1.00  0.00     0.256 C 
HETATM    9  O   UNL     1     -46.164  58.861 -50.114  1.00  0.00    -0.267 OA
HETATM   10  H   UNL     1     -43.137  59.718 -50.609  1.00  0.00     0.169 HD
BRANCH   8  11
HETATM   11  C   UNL     1     -45.134  60.776 -49.259  1.00  0.00     0.037 A 
HETATM   12  C   UNL     1     -44.552  61.925 -49.830  1.00  0.00     0.054 A 
HETATM   13  C   UNL     1     -44.441  63.108 -49.105  1.00  0.00     0.071 A 
HETATM   14  C   UNL     1     -44.928  63.146 -47.800  1.00  0.00     0.073 A 
HETATM   15  C   UNL     1     -45.518  62.022 -47.216  1.00  0.00     0.071 A 
HETATM   16  C   UNL     1     -45.618  60.834 -47.944  1.00  0.00     0.054 A 
BRANCH  13  17
HETATM   17  O   UNL     1     -43.879  64.271 -49.551  1.00  0.00    -0.356 OA
HETATM   18  C   UNL     1     -42.975  64.173 -50.646  1.00  0.00     0.210 C 
ENDBRANCH  13  17
BRANCH  15  19
HETATM   19  O   UNL     1     -45.943  62.217 -45.930  1.00  0.00    -0.356 OA
HETATM   20  C   UNL     1     -46.703  63.387 -45.658  1.00  0.00     0.210 C 
ENDBRANCH  15  19
ENDBRANCH   8  11
ENDBRANCH   3   7
BRANCH   1  21
HETATM   21  C   UNL     1     -42.197  55.014 -52.731  1.00  0.00     0.181 A 
HETATM   22  N   UNL     1     -41.391  54.635 -51.753  1.00  0.00    -0.221 NA
HETATM   23  C   UNL     1     -40.826  53.477 -52.230  1.00  0.00     0.093 A 
HETATM   24  C   UNL     1     -41.327  53.191 -53.487  1.00  0.00     0.107 A 
HETATM   25  C   UNL     1     -39.872  52.613 -51.677  1.00  0.00     0.035 A 
HETATM   26  C   UNL     1     -40.966  52.097 -54.264  1.00  0.00     0.046 A 
HETATM   27  O   UNL     1     -42.212  54.170 -53.814  1.00  0.00    -0.289 OA
HETATM   28  C   UNL     1     -40.016  51.229 -53.703  1.00  0.00    -0.059 A 
HETATM   29  C   UNL     1     -39.536  50.048 -54.499  1.00  0.00     0.048 C 
HETATM   30  C   UNL     1     -39.473  51.495 -52.432  1.00  0.00     0.009 A 
ENDBRANCH   1  21
TORSDOF 5
ENDMDL
MODEL 2
REMARK VINA RESULT:      -8.5      0.305      2.224
REMARK  5 active torsions:
REMARK  status: ('A' for Active; 'I' for Inactive)
REMARK    1  A    between atoms: C_7  and  C_8 
REMARK    2  A    between atoms: C_10  and  N_11 
REMARK       I    between atoms: N_11  and  C_12 
REMARK    3  A    between atoms: C_12  and  C_13 
REMARK    4  A    between atoms: C_15  and  O_16 
REMARK    5  A    between atoms: C_19  and  O_20 
ROOT
HETATM    1  C   UNL     1     -43.025  56.263 -52.768  1.00  0.00     0.019 A 
HETATM    2  C   UNL     1     -43.036  57.229 -51.747  1.00  0.00     0.045 A 
HETATM    3  C   UNL     1     -43.866  58.353 -51.808  1.00  0.00     0.035 A 
HETATM    4  C   UNL     1     -44.701  58.511 -52.917  1.00  0.00     0.029 A 
HETATM    5  C   UNL     1     -44.694  57.568 -53.950  1.00  0.00     0.003 A 
HETATM    6  C   UNL     1     -43.862  56.450 -53.874  1.00  0.00     0.016 A 
ENDROOT
BRANCH   3   7
HETATM    7  N   UNL     1     -43.946  59.314 -50.771  1.00  0.00    -0.323 N 
HETATM    8  C   UNL     1     -45.083  59.628 -50.040  1.00  0.00     0.256 C 
HETATM    9  O   UNL     1     -46.114  58.961 -50.033  1.00  0.00    -0.267 OA
HETATM   10  H   UNL     1     -43.081  59.782 -50.552  1.00  0.00     0.169 HD
BRANCH   8  11
HETATM   11  C   UNL     1     -45.057  60.869 -49.196  1.00  0.00     0.037 A 
HETATM   12  C   UNL     1     -45.808  60.831 -48.005  1.00  0.00     0.054 A 
HETATM   13  C   UNL     1     -45.901  61.948 -47.179  1.00  0.00     0.071 A 
HETATM   14  C   UNL     1     -45.227  63.112 -47.542  1.00  0.00     0.073 A 
HETATM   15  C   UNL     1     -44.468  63.171 -48.715  1.00  0.00     0.071 A 
HETATM   16  C   UNL     1     -44.386  62.050 -49.545  1.00  0.00     0.054 A 
BRANCH  13  17
HETATM   17  O   UNL     1     -46.614  62.028 -46.016  1.00  0.00    -0.356 OA
HETATM   18  C   UNL     1     -47.063  63.321 -45.623  1.00  0.00     0.210 C 
ENDBRANCH  13  17
BRANCH  15  19
HETATM   19  O   UNL     1     -43.869  64.381 -48.934  1.00  0.00    -0.356 OA
HETATM   20  C   UNL     1     -42.733  64.409 -49.788  1.00  0.00     0.210 C 
ENDBRANCH  15  19
ENDBRANCH   8  11
ENDBRANCH   3   7
BRANCH   1  21
HETATM   21  C   UNL     1     -42.189  55.068 -52.664  1.00  0.00     0.181 A 
HETATM   22  N   UNL     1     -41.385  54.683 -51.687  1.00  0.00    -0.221 NA
HETATM   23  C   UNL     1     -40.822  53.525 -52.169  1.00  0.00     0.093 A 
HETATM   24  C   UNL     1     -41.323  53.246 -53.427  1.00  0.00     0.107 A 
HETATM   25  C   UNL     1     -39.871  52.657 -51.618  1.00  0.00     0.035 A 
HETATM   26  C   UNL     1     -40.963  52.154 -54.208  1.00  0.00     0.046 A 
HETATM   27  O   UNL     1     -42.204  54.228 -53.751  1.00  0.00    -0.289 OA
HETATM   28  C   UNL     1     -40.016  51.282 -53.650  1.00  0.00    -0.059 A 
HETATM   29  C   UNL     1     -39.537  50.103 -54.450  1.00  0.00     0.048 C 
HETATM   30  C   UNL     1     -39.473  51.541 -52.377  1.00  0.00     0.009 A 
ENDBRANCH   1  21
TORSDOF 5
ENDMDL
MODEL 3
REMARK VINA RESULT:      -8.3      1.803      2.484
REMARK  5 active torsions:
REMARK  status: ('A' for Active; 'I' for Inactive)
REMARK    1  A    between atoms: C_7  and  C_8 
REMARK    2  A    between atoms: C_10  and  N_11 
REMARK       I    between atoms: N_11  and  C_12 
REMARK    3  A    between atoms: C_12  and  C_13 
REMARK    4  A    between atoms: C_15  and  O_16 
REMARK    5  A    between atoms: C_19  and  O_20 
ROOT
HETATM    1  C   UNL     1     -41.507  57.162 -52.465  1.00  0.00     0.019 A 
HETATM    2  C   UNL     1     -42.264  57.776 -51.453  1.00  0.00     0.045 A 
HETATM    3  C   UNL     1     -42.669  59.112 -51.546  1.00  0.00     0.035 A 
HETATM    4  C   UNL     1     -42.305  59.845 -52.678  1.00  0.00     0.029 A 
HETATM    5  C   UNL     1     -41.539  59.256 -53.689  1.00  0.00     0.003 A 
HETATM    6  C   UNL     1     -41.144  57.921 -53.582  1.00  0.00     0.016 A 
ENDROOT
BRANCH   3   7
HETATM    7  N   UNL     1     -43.482  59.744 -50.575  1.00  0.00    -0.323 N 
HETATM    8  C   UNL     1     -44.858  59.910 -50.649  1.00  0.00     0.256 C 
HETATM    9  O   UNL     1     -45.587  59.334 -51.452  1.00  0.00    -0.267 OA
HETATM   10  H   UNL     1     -42.995  60.076 -49.758  1.00  0.00     0.169 HD
BRANCH   8  11
HETATM   11  C   UNL     1     -45.507  60.859 -49.684  1.00  0.00     0.037 A 
HETATM   12  C   UNL     1     -45.401  60.532 -48.318  1.00  0.00     0.054 A 
HETATM   13  C   UNL     1     -46.017  61.311 -47.344  1.00  0.00     0.071 A 
HETATM   14  C   UNL     1     -46.737  62.437 -47.738  1.00  0.00     0.073 A 
HETATM   15  C   UNL     1     -46.849  62.787 -49.086  1.00  0.00     0.071 A 
HETATM   16  C   UNL     1     -46.237  61.995 -50.062  1.00  0.00     0.054 A 
BRANCH  13  17
HETATM   17  O   UNL     1     -45.996  61.077 -45.997  1.00  0.00    -0.356 OA
HETATM   18  C   UNL     1     -44.717  60.999 -45.376  1.00  0.00     0.210 C 
ENDBRANCH  13  17
BRANCH  15  19
HETATM   19  O   UNL     1     -47.590  63.915 -49.313  1.00  0.00    -0.356 OA
HETATM   20  C   UNL     1     -48.920  63.940 -48.811  1.00  0.00     0.210 C 
ENDBRANCH  15  19
ENDBRANCH   8  11
ENDBRANCH   3   7
BRANCH   1  21
HETATM   21  C   UNL     1     -41.136  55.750 -52.375  1.00  0.00     0.181 A 
HETATM   22  N   UNL     1     -40.816  55.028 -51.314  1.00  0.00    -0.221 NA
HETATM   23  C   UNL     1     -40.504  53.798 -51.843  1.00  0.00     0.093 A 
HETATM   24  C   UNL     1     -40.661  53.822 -53.216  1.00  0.00     0.107 A 
HETATM   25  C   UNL     1     -40.067  52.612 -51.239  1.00  0.00     0.035 A 
HETATM   26  C   UNL     1     -40.425  52.750 -54.069  1.00  0.00     0.046 A 
HETATM   27  O   UNL     1     -41.071  55.070 -53.566  1.00  0.00    -0.289 OA
HETATM   28  C   UNL     1     -39.993  51.561 -53.459  1.00  0.00    -0.059 A 
HETATM   29  C   UNL     1     -39.668  50.370 -54.316  1.00  0.00     0.048 C 
HETATM   30  C   UNL     1     -39.809  51.503 -52.065  1.00  0.00     0.009 A 
ENDBRANCH   1  21
TORSDOF 5
ENDMDL
MODEL 4
REMARK VINA RESULT:      -8.3      6.122      8.573
REMARK  5 active torsions:
REMARK  status: ('A' for Active; 'I' for Inactive)
REMARK    1  A    between atoms: C_7  and  C_8 
REMARK    2  A    between atoms: C_10  and  N_11 
REMARK       I    between atoms: N_11  and  C_12 
REMARK    3  A    between atoms: C_12  and  C_13 
REMARK    4  A    between atoms: C_15  and  O_16 
REMARK    5  A    between atoms: C_19  and  O_20 
ROOT
HETATM    1  C   UNL     1     -41.577  55.270 -54.580  1.00  0.00     0.019 A 
HETATM    2  C   UNL     1     -42.629  55.374 -55.506  1.00  0.00     0.045 A 
HETATM    3  C   UNL     1     -43.137  56.615 -55.904  1.00  0.00     0.035 A 
HETATM    4  C   UNL     1     -42.577  57.775 -55.362  1.00  0.00     0.029 A 
HETATM    5  C   UNL     1     -41.538  57.691 -54.428  1.00  0.00     0.003 A 
HETATM    6  C   UNL     1     -41.041  56.445 -54.042  1.00  0.00     0.016 A 
ENDROOT
BRANCH   3   7
HETATM    7  N   UNL     1     -44.154  56.759 -56.878  1.00  0.00    -0.323 N 
HETATM    8  C   UNL     1     -43.989  56.640 -58.251  1.00  0.00     0.256 C 
HETATM    9  O   UNL     1     -42.993  56.171 -58.795  1.00  0.00    -0.267 OA
HETATM   10  H   UNL     1     -45.074  56.945 -56.512  1.00  0.00     0.169 HD
BRANCH   8  11
HETATM   11  C   UNL     1     -45.101  57.117 -59.138  1.00  0.00     0.037 A 
HETATM   12  C   UNL     1     -45.523  58.449 -58.953  1.00  0.00     0.054 A 
HETATM   13  C   UNL     1     -46.586  58.973 -59.682  1.00  0.00     0.071 A 
HETATM   14  C   UNL     1     -47.228  58.161 -60.615  1.00  0.00     0.073 A 
HETATM   15  C   UNL     1     -46.822  56.840 -60.824  1.00  0.00     0.071 A 
HETATM   16  C   UNL     1     -45.760  56.316 -60.082  1.00  0.00     0.054 A 
BRANCH  13  17
HETATM   17  O   UNL     1     -47.089  60.239 -59.569  1.00  0.00    -0.356 OA
HETATM   18  C   UNL     1     -48.475  60.358 -59.269  1.00  0.00     0.210 C 
ENDBRANCH  13  17
BRANCH  15  19
HETATM   19  O   UNL     1     -47.551  56.173 -61.770  1.00  0.00    -0.356 OA
HETATM   20  C   UNL     1     -48.632  56.867 -62.379  1.00  0.00     0.210 C 
ENDBRANCH  15  19
ENDBRANCH   8  11
ENDBRANCH   3   7
BRANCH   1  21
HETATM   21  C   UNL     1     -41.024  53.967 -54.213  1.00  0.00     0.181 A 
HETATM   22  N   UNL     1     -40.740  52.925 -54.978  1.00  0.00    -0.221 NA
HETATM   23  C   UNL     1     -40.311  51.974 -54.083  1.00  0.00     0.093 A 
HETATM   24  C   UNL     1     -40.340  52.489 -52.800  1.00  0.00     0.107 A 
HETATM   25  C   UNL     1     -39.892  50.650 -54.265  1.00  0.00     0.035 A 
HETATM   26  C   UNL     1     -39.978  51.796 -51.651  1.00  0.00     0.046 A 
HETATM   27  O   UNL     1     -40.792  53.768 -52.875  1.00  0.00    -0.289 OA
HETATM   28  C   UNL     1     -39.552  50.471 -51.838  1.00  0.00    -0.059 A 
HETATM   29  C   UNL     1     -39.190  49.638 -50.641  1.00  0.00     0.048 C 
HETATM   30  C   UNL     1     -39.523  49.909 -53.128  1.00  0.00     0.009 A 
ENDBRANCH   1  21
TORSDOF 5
ENDMDL
MODEL 5
REMARK VINA RESULT:      -8.2      5.717      9.932
REMARK  5 active torsions:
REMARK  status: ('A' for Active; 'I' for Inactive)
REMARK    1  A    between atoms: C_7  and  C_8 
REMARK    2  A    between atoms: C_10  and  N_11 
REMARK       I    between atoms: N_11  and  C_12 
REMARK    3  A    between atoms: C_12  and  C_13 
REMARK    4  A    between atoms: C_15  and  O_16 
REMARK    5  A    between atoms: C_19  and  O_20 
ROOT
HETATM    1  C   UNL     1     -42.964  58.588 -56.107  1.00  0.00     0.019 A 
HETATM    2  C   UNL     1     -42.178  57.699 -55.353  1.00  0.00     0.045 A 
HETATM    3  C   UNL     1     -42.752  56.787 -54.462  1.00  0.00     0.035 A 
HETATM    4  C   UNL     1     -44.142  56.767 -54.324  1.00  0.00     0.029 A 
HETATM    5  C   UNL     1     -44.940  57.654 -55.055  1.00  0.00     0.003 A 
HETATM    6  C   UNL     1     -44.353  58.557 -55.942  1.00  0.00     0.016 A 
ENDROOT
BRANCH   3   7
HETATM    7  N   UNL     1     -41.997  55.838 -53.732  1.00  0.00    -0.323 N 
HETATM    8  C   UNL     1     -41.332  54.742 -54.266  1.00  0.00     0.256 C 
HETATM    9  O   UNL     1     -41.117  54.574 -55.463  1.00  0.00    -0.267 OA
HETATM   10  H   UNL     1     -41.937  56.008 -52.741  1.00  0.00     0.169 HD
BRANCH   8  11
HETATM   11  C   UNL     1     -40.839  53.687 -53.320  1.00  0.00     0.037 A 
HETATM   12  C   UNL     1     -40.770  54.048 -51.960  1.00  0.00     0.054 A 
HETATM   13  C   UNL     1     -40.272  53.165 -51.007  1.00  0.00     0.071 A 
HETATM   14  C   UNL     1     -39.848  51.902 -51.416  1.00  0.00     0.073 A 
HETATM   15  C   UNL     1     -39.915  51.517 -52.758  1.00  0.00     0.071 A 
HETATM   16  C   UNL     1     -40.408  52.411 -53.713  1.00  0.00     0.054 A 
BRANCH  13  17
HETATM   17  O   UNL     1     -40.142  53.416 -49.670  1.00  0.00    -0.356 OA
HETATM   18  C   UNL     1     -40.746  54.608 -49.177  1.00  0.00     0.210 C 
ENDBRANCH  13  17
BRANCH  15  19
HETATM   19  O   UNL     1     -39.460  50.250 -53.002  1.00  0.00    -0.356 OA
HETATM   20  C   UNL     1     -39.464  49.796 -54.349  1.00  0.00     0.210 C 
ENDBRANCH  15  19
ENDBRANCH   8  11
ENDBRANCH   3   7
BRANCH   1  21
HETATM   21  C   UNL     1     -42.352  59.500 -57.072  1.00  0.00     0.181 A 
HETATM   22  N   UNL     1     -41.493  60.486 -56.874  1.00  0.00    -0.221 NA
HETATM   23  C   UNL     1     -41.323  61.025 -58.127  1.00  0.00     0.093 A 
HETATM   24  C   UNL     1     -42.085  60.328 -59.046  1.00  0.00     0.107 A 
HETATM   25  C   UNL     1     -40.558  62.109 -58.575  1.00  0.00     0.035 A 
HETATM   26  C   UNL     1     -42.156  60.609 -60.405  1.00  0.00     0.046 A 
HETATM   27  O   UNL     1     -42.745  59.344 -58.379  1.00  0.00    -0.289 OA
HETATM   28  C   UNL     1     -41.383  61.692 -60.852  1.00  0.00    -0.059 A 
HETATM   29  C   UNL     1     -41.442  62.092 -62.300  1.00  0.00     0.048 C 
HETATM   30  C   UNL     1     -40.606  62.434 -59.943  1.00  0.00     0.009 A 
ENDBRANCH   1  21
TORSDOF 5
ENDMDL
MODEL 6
REMARK VINA RESULT:      -8.2      4.908      8.018
REMARK  5 active torsions:
REMARK  status: ('A' for Active; 'I' for Inactive)
REMARK    1  A    between atoms: C_7  and  C_8 
REMARK    2  A    between atoms: C_10  and  N_11 
REMARK       I    between atoms: N_11  and  C_12 
REMARK    3  A    between atoms: C_12  and  C_13 
REMARK    4  A    between atoms: C_15  and  O_16 
REMARK    5  A    between atoms: C_19  and  O_20 
ROOT
HETATM    1  C   UNL     1     -43.080  56.051 -53.427  1.00  0.00     0.019 A 
HETATM    2  C   UNL     1     -43.829  56.128 -54.614  1.00  0.00     0.045 A 
HETATM    3  C   UNL     1     -44.616  57.245 -54.914  1.00  0.00     0.035 A 
HETATM    4  C   UNL     1     -44.652  58.305 -54.004  1.00  0.00     0.029 A 
HETATM    5  C   UNL     1     -43.924  58.240 -52.811  1.00  0.00     0.003 A 
HETATM    6  C   UNL     1     -43.142  57.120 -52.526  1.00  0.00     0.016 A 
ENDROOT
BRANCH   3   7
HETATM    7  N   UNL     1     -45.335  57.382 -56.126  1.00  0.00    -0.323 N 
HETATM    8  C   UNL     1     -44.792  57.698 -57.363  1.00  0.00     0.256 C 
HETATM    9  O   UNL     1     -43.592  57.678 -57.623  1.00  0.00    -0.267 OA
HETATM   10  H   UNL     1     -46.326  57.210 -56.058  1.00  0.00     0.169 HD
BRANCH   8  11
HETATM   11  C   UNL     1     -45.731  58.094 -58.465  1.00  0.00     0.037 A 
HETATM   12  C   UNL     1     -46.163  57.062 -59.320  1.00  0.00     0.054 A 
HETATM   13  C   UNL     1     -46.987  57.329 -60.409  1.00  0.00     0.071 A 
HETATM   14  C   UNL     1     -47.393  58.642 -60.640  1.00  0.00     0.073 A 
HETATM   15  C   UNL     1     -46.986  59.682 -59.800  1.00  0.00     0.071 A 
HETATM   16  C   UNL     1     -46.150  59.410 -58.713  1.00  0.00     0.054 A 
BRANCH  13  17
HETATM   17  O   UNL     1     -47.448  56.412 -61.311  1.00  0.00    -0.356 OA
HETATM   18  C   UNL     1     -48.454  56.848 -62.218  1.00  0.00     0.210 C 
ENDBRANCH  13  17
BRANCH  15  19
HETATM   19  O   UNL     1     -47.465  60.913 -60.158  1.00  0.00    -0.356 OA
HETATM   20  C   UNL     1     -48.471  61.492 -59.338  1.00  0.00     0.210 C 
ENDBRANCH  15  19
ENDBRANCH   8  11
ENDBRANCH   3   7
BRANCH   1  21
HETATM   21  C   UNL     1     -42.222  54.898 -53.153  1.00  0.00     0.181 A 
HETATM   22  N   UNL     1     -41.485  54.631 -52.087  1.00  0.00    -0.221 NA
HETATM   23  C   UNL     1     -40.855  53.454 -52.418  1.00  0.00     0.093 A 
HETATM   24  C   UNL     1     -41.250  53.046 -53.678  1.00  0.00     0.107 A 
HETATM   25  C   UNL     1     -39.926  52.672 -51.721  1.00  0.00     0.035 A 
HETATM   26  C   UNL     1     -40.803  51.902 -54.326  1.00  0.00     0.046 A 
HETATM   27  O   UNL     1     -42.131  53.965 -54.155  1.00  0.00    -0.289 OA
HETATM   28  C   UNL     1     -39.877  51.115 -53.622  1.00  0.00    -0.059 A 
HETATM   29  C   UNL     1     -39.307  49.887 -54.273  1.00  0.00     0.048 C 
HETATM   30  C   UNL     1     -39.441  51.507 -52.342  1.00  0.00     0.009 A 
ENDBRANCH   1  21
TORSDOF 5
ENDMDL
MODEL 7
REMARK VINA RESULT:      -8.1      4.842      7.469
REMARK  5 active torsions:
REMARK  status: ('A' for Active; 'I' for Inactive)
REMARK    1  A    between atoms: C_7  and  C_8 
REMARK    2  A    between atoms: C_10  and  N_11 
REMARK       I    between atoms: N_11  and  C_12 
REMARK    3  A    between atoms: C_12  and  C_13 
REMARK    4  A    between atoms: C_15  and  O_16 
REMARK    5  A    between atoms: C_19  and  O_20 
ROOT
HETATM    1  C   UNL     1     -41.454  56.536 -52.536  1.00  0.00     0.019 A 
HETATM    2  C   UNL     1     -41.462  57.212 -53.768  1.00  0.00     0.045 A 
HETATM    3  C   UNL     1     -41.807  58.564 -53.861  1.00  0.00     0.035 A 
HETATM    4  C   UNL     1     -42.151  59.251 -52.694  1.00  0.00     0.029 A 
HETATM    5  C   UNL     1     -42.163  58.592 -51.460  1.00  0.00     0.003 A 
HETATM    6  C   UNL     1     -41.814  57.242 -51.383  1.00  0.00     0.016 A 
ENDROOT
BRANCH   3   7
HETATM    7  N   UNL     1     -41.769  59.292 -55.075  1.00  0.00    -0.323 N 
HETATM    8  C   UNL     1     -42.495  59.001 -56.222  1.00  0.00     0.256 C 
HETATM    9  O   UNL     1     -43.437  58.215 -56.269  1.00  0.00    -0.267 OA
HETATM   10  H   UNL     1     -41.166  60.099 -55.072  1.00  0.00     0.169 HD
BRANCH   8  11
HETATM   11  C   UNL     1     -42.106  59.691 -57.496  1.00  0.00     0.037 A 
HETATM   12  C   UNL     1     -41.368  60.883 -57.363  1.00  0.00     0.054 A 
HETATM   13  C   UNL     1     -41.008  61.634 -58.478  1.00  0.00     0.071 A 
HETATM   14  C   UNL     1     -41.381  61.182 -59.742  1.00  0.00     0.073 A 
HETATM   15  C   UNL     1     -42.105  59.997 -59.901  1.00  0.00     0.071 A 
HETATM   16  C   UNL     1     -42.473  59.252 -58.777  1.00  0.00     0.054 A 
BRANCH  13  17
HETATM   17  O   UNL     1     -40.313  62.810 -58.463  1.00  0.00    -0.356 OA
HETATM   18  C   UNL     1     -39.614  63.162 -59.652  1.00  0.00     0.210 C 
ENDBRANCH  13  17
BRANCH  15  19
HETATM   19  O   UNL     1     -42.397  59.689 -61.202  1.00  0.00    -0.356 OA
HETATM   20  C   UNL     1     -42.584  60.769 -62.108  1.00  0.00     0.210 C 
ENDBRANCH  15  19
ENDBRANCH   8  11
ENDBRANCH   3   7
BRANCH   1  21
HETATM   21  C   UNL     1     -41.041  55.135 -52.449  1.00  0.00     0.181 A 
HETATM   22  N   UNL     1     -40.673  54.429 -51.393  1.00  0.00    -0.221 NA
HETATM   23  C   UNL     1     -40.341  53.205 -51.923  1.00  0.00     0.093 A 
HETATM   24  C   UNL     1     -40.536  53.216 -53.292  1.00  0.00     0.107 A 
HETATM   25  C   UNL     1     -39.855  52.035 -51.325  1.00  0.00     0.035 A 
HETATM   26  C   UNL     1     -40.293  52.145 -54.145  1.00  0.00     0.046 A 
HETATM   27  O   UNL     1     -40.990  54.450 -53.637  1.00  0.00    -0.289 OA
HETATM   28  C   UNL     1     -39.813  50.973 -53.541  1.00  0.00    -0.059 A 
HETATM   29  C   UNL     1     -39.478  49.785 -54.399  1.00  0.00     0.048 C 
HETATM   30  C   UNL     1     -39.588  50.929 -52.152  1.00  0.00     0.009 A 
ENDBRANCH   1  21
TORSDOF 5
ENDMDL
MODEL 8
REMARK VINA RESULT:      -8.1      5.710      8.203
REMARK  5 active torsions:
REMARK  status: ('A' for Active; 'I' for Inactive)
REMARK    1  A    between atoms: C_7  and  C_8 
REMARK    2  A    between atoms: C_10  and  N_11 
REMARK       I    between atoms: N_11  and  C_12 
REMARK    3  A    between atoms: C_12  and  C_13 
REMARK    4  A    between atoms: C_15  and  O_16 
REMARK    5  A    between atoms: C_19  and  O_20 
ROOT
HETATM    1  C   UNL     1     -42.816  55.908 -54.674  1.00  0.00     0.019 A 
HETATM    2  C   UNL     1     -42.286  56.640 -55.749  1.00  0.00     0.045 A 
HETATM    3  C   UNL     1     -42.979  57.714 -56.318  1.00  0.00     0.035 A 
HETATM    4  C   UNL     1     -44.228  58.059 -55.797  1.00  0.00     0.029 A 
HETATM    5  C   UNL     1     -44.779  57.332 -54.736  1.00  0.00     0.003 A 
HETATM    6  C   UNL     1     -44.075  56.264 -54.177  1.00  0.00     0.016 A 
ENDROOT
BRANCH   3   7
HETATM    7  N   UNL     1     -42.449  58.511 -57.362  1.00  0.00    -0.323 N 
HETATM    8  C   UNL     1     -41.912  59.783 -57.222  1.00  0.00     0.256 C 
HETATM    9  O   UNL     1     -41.612  60.299 -56.148  1.00  0.00    -0.267 OA
HETATM   10  H   UNL     1     -42.458  58.084 -58.274  1.00  0.00     0.169 HD
BRANCH   8  11
HETATM   11  C   UNL     1     -41.678  60.591 -58.465  1.00  0.00     0.037 A 
HETATM   12  C   UNL     1     -42.416  60.214 -59.604  1.00  0.00     0.054 A 
HETATM   13  C   UNL     1     -42.232  60.857 -60.824  1.00  0.00     0.071 A 
HETATM   14  C   UNL     1     -41.307  61.897 -60.904  1.00  0.00     0.073 A 
HETATM   15  C   UNL     1     -40.570  62.295 -59.786  1.00  0.00     0.071 A 
HETATM   16  C   UNL     1     -40.751  61.639 -58.565  1.00  0.00     0.054 A 
BRANCH  13  17
HETATM   17  O   UNL     1     -42.877  60.562 -61.992  1.00  0.00    -0.356 OA
HETATM   18  C   UNL     1     -42.461  61.270 -63.155  1.00  0.00     0.210 C 
ENDBRANCH  13  17
BRANCH  15  19
HETATM   19  O   UNL     1     -39.702  63.326 -60.024  1.00  0.00    -0.356 OA
HETATM   20  C   UNL     1     -39.235  63.498 -61.356  1.00  0.00     0.210 C 
ENDBRANCH  15  19
ENDBRANCH   8  11
ENDBRANCH   3   7
BRANCH   1  21
HETATM   21  C   UNL     1     -42.056  54.820 -54.057  1.00  0.00     0.181 A 
HETATM   22  N   UNL     1     -41.486  54.760 -52.865  1.00  0.00    -0.221 NA
HETATM   23  C   UNL     1     -40.869  53.532 -52.863  1.00  0.00     0.093 A 
HETATM   24  C   UNL     1     -41.105  52.885 -54.062  1.00  0.00     0.107 A 
HETATM   25  C   UNL     1     -40.081  52.890 -51.899  1.00  0.00     0.035 A 
HETATM   26  C   UNL     1     -40.624  51.626 -54.401  1.00  0.00     0.046 A 
HETATM   27  O   UNL     1     -41.870  53.703 -54.833  1.00  0.00    -0.289 OA
HETATM   28  C   UNL     1     -39.841  50.983 -53.430  1.00  0.00    -0.059 A 
HETATM   29  C   UNL     1     -39.242  49.639 -53.738  1.00  0.00     0.048 C 
HETATM   30  C   UNL     1     -39.568  51.616 -52.203  1.00  0.00     0.009 A 
ENDBRANCH   1  21
TORSDOF 5
ENDMDL
MODEL 9
REMARK VINA RESULT:      -8.1      4.513      7.229
REMARK  5 active torsions:
REMARK  status: ('A' for Active; 'I' for Inactive)
REMARK    1  A    between atoms: C_7  and  C_8 
REMARK    2  A    between atoms: C_10  and  N_11 
REMARK       I    between atoms: N_11  and  C_12 
REMARK    3  A    between atoms: C_12  and  C_13 
REMARK    4  A    between atoms: C_15  and  O_16 
REMARK    5  A    between atoms: C_19  and  O_20 
ROOT
HETATM    1  C   UNL     1     -41.306  56.514 -52.271  1.00  0.00     0.019 A 
HETATM    2  C   UNL     1     -41.365  57.245 -53.470  1.00  0.00     0.045 A 
HETATM    3  C   UNL     1     -41.669  58.611 -53.482  1.00  0.00     0.035 A 
HETATM    4  C   UNL     1     -41.917  59.254 -52.267  1.00  0.00     0.029 A 
HETATM    5  C   UNL     1     -41.877  58.539 -51.065  1.00  0.00     0.003 A 
HETATM    6  C   UNL     1     -41.571  57.177 -51.068  1.00  0.00     0.016 A 
ENDROOT
BRANCH   3   7
HETATM    7  N   UNL     1     -41.678  59.392 -54.663  1.00  0.00    -0.323 N 
HETATM    8  C   UNL     1     -42.701  59.436 -55.601  1.00  0.00     0.256 C 
HETATM    9  O   UNL     1     -43.829  58.984 -55.423  1.00  0.00    -0.267 OA
HETATM   10  H   UNL     1     -40.866  59.972 -54.800  1.00  0.00     0.169 HD
BRANCH   8  11
HETATM   11  C   UNL     1     -42.414  60.079 -56.926  1.00  0.00     0.037 A 
HETATM   12  C   UNL     1     -42.333  59.216 -58.036  1.00  0.00     0.054 A 
HETATM   13  C   UNL     1     -42.013  59.701 -59.300  1.00  0.00     0.071 A 
HETATM   14  C   UNL     1     -41.783  61.066 -59.460  1.00  0.00     0.073 A 
HETATM   15  C   UNL     1     -41.868  61.944 -58.376  1.00  0.00     0.071 A 
HETATM   16  C   UNL     1     -42.180  61.450 -57.106  1.00  0.00     0.054 A 
BRANCH  13  17
HETATM   17  O   UNL     1     -41.888  58.954 -60.438  1.00  0.00    -0.356 OA
HETATM   18  C   UNL     1     -41.998  57.541 -60.297  1.00  0.00     0.210 C 
ENDBRANCH  13  17
BRANCH  15  19
HETATM   19  O   UNL     1     -41.614  63.251 -58.691  1.00  0.00    -0.356 OA
HETATM   20  C   UNL     1     -41.088  63.526 -59.984  1.00  0.00     0.210 C 
ENDBRANCH  15  19
ENDBRANCH   8  11
ENDBRANCH   3   7
BRANCH   1  21
HETATM   21  C   UNL     1     -40.937  55.098 -52.271  1.00  0.00     0.181 A 
HETATM   22  N   UNL     1     -40.569  54.323 -51.265  1.00  0.00    -0.221 NA
HETATM   23  C   UNL     1     -40.288  53.120 -51.870  1.00  0.00     0.093 A 
HETATM   24  C   UNL     1     -40.513  53.214 -53.231  1.00  0.00     0.107 A 
HETATM   25  C   UNL     1     -39.828  51.905 -51.349  1.00  0.00     0.035 A 
HETATM   26  C   UNL     1     -40.323  52.186 -54.146  1.00  0.00     0.046 A 
HETATM   27  O   UNL     1     -40.933  54.479 -53.497  1.00  0.00    -0.289 OA
HETATM   28  C   UNL     1     -39.868  50.967 -53.620  1.00  0.00    -0.059 A 
HETATM   29  C   UNL     1     -39.590  49.820 -54.550  1.00  0.00     0.048 C 
HETATM   30  C   UNL     1     -39.615  50.838 -52.241  1.00  0.00     0.009 A 
ENDBRANCH   1  21
TORSDOF 5
ENDMDL
MODEL 10
REMARK VINA RESULT:      -7.9      2.280      9.914
REMARK  5 active torsions:
REMARK  status: ('A' for Active; 'I' for Inactive)
REMARK    1  A    between atoms: C_7  and  C_8 
REMARK    2  A    between atoms: C_10  and  N_11 
REMARK       I    between atoms: N_11  and  C_12 
REMARK    3  A    between atoms: C_12  and  C_13 
REMARK    4  A    between atoms: C_15  and  O_16 
REMARK    5  A    between atoms: C_19  and  O_20 
ROOT
HETATM    1  C   UNL     1     -42.634  60.176 -52.614  1.00  0.00     0.019 A 
HETATM    2  C   UNL     1     -42.167  58.877 -52.350  1.00  0.00     0.045 A 
HETATM    3  C   UNL     1     -41.666  58.056 -53.366  1.00  0.00     0.035 A 
HETATM    4  C   UNL     1     -41.635  58.549 -54.673  1.00  0.00     0.029 A 
HETATM    5  C   UNL     1     -42.109  59.834 -54.958  1.00  0.00     0.003 A 
HETATM    6  C   UNL     1     -42.604  60.642 -53.933  1.00  0.00     0.016 A 
ENDROOT
BRANCH   3   7
HETATM    7  N   UNL     1     -41.133  56.767 -53.127  1.00  0.00    -0.323 N 
HETATM    8  C   UNL     1     -41.832  55.570 -53.202  1.00  0.00     0.256 C 
HETATM    9  O   UNL     1     -42.945  55.443 -53.705  1.00  0.00    -0.267 OA
HETATM   10  H   UNL     1     -40.150  56.744 -52.905  1.00  0.00     0.169 HD
BRANCH   8  11
HETATM   11  C   UNL     1     -41.188  54.341 -52.629  1.00  0.00     0.037 A 
HETATM   12  C   UNL     1     -41.164  54.245 -51.224  1.00  0.00     0.054 A 
HETATM   13  C   UNL     1     -40.539  53.176 -50.588  1.00  0.00     0.071 A 
HETATM   14  C   UNL     1     -39.942  52.186 -51.366  1.00  0.00     0.073 A 
HETATM   15  C   UNL     1     -39.961  52.254 -52.762  1.00  0.00     0.071 A 
HETATM   16  C   UNL     1     -40.582  53.335 -53.395  1.00  0.00     0.054 A 
BRANCH  13  17
HETATM   17  O   UNL     1     -40.439  52.993 -49.237  1.00  0.00    -0.356 OA
HETATM   18  C   UNL     1     -40.501  54.159 -48.423  1.00  0.00     0.210 C 
ENDBRANCH  13  17
BRANCH  15  19
HETATM   19  O   UNL     1     -39.332  51.211 -53.383  1.00  0.00    -0.356 OA
HETATM   20  C   UNL     1     -40.140  50.285 -54.097  1.00  0.00     0.210 C 
ENDBRANCH  15  19
ENDBRANCH   8  11
ENDBRANCH   3   7
BRANCH   1  21
HETATM   21  C   UNL     1     -43.106  61.040 -51.533  1.00  0.00     0.181 A 
HETATM   22  N   UNL     1     -42.894  62.330 -51.330  1.00  0.00    -0.221 NA
HETATM   23  C   UNL     1     -43.527  62.578 -50.136  1.00  0.00     0.093 A 
HETATM   24  C   UNL     1     -44.114  61.418 -49.665  1.00  0.00     0.107 A 
HETATM   25  C   UNL     1     -43.644  63.746 -49.372  1.00  0.00     0.035 A 
HETATM   26  C   UNL     1     -44.830  61.307 -48.478  1.00  0.00     0.046 A 
HETATM   27  O   UNL     1     -43.853  60.427 -50.558  1.00  0.00    -0.289 OA
HETATM   28  C   UNL     1     -44.951  62.482 -47.719  1.00  0.00    -0.059 A 
HETATM   29  C   UNL     1     -45.668  62.436 -46.399  1.00  0.00     0.048 C 
HETATM   30  C   UNL     1     -44.355  63.678 -48.160  1.00  0.00     0.009 A 
ENDBRANCH   1  21
TORSDOF 5
ENDMDL
