MODEL 1
REMARK VINA RESULT:      -7.5      0.000      0.000
REMARK  6 active torsions:
REMARK  status: ('A' for Active; 'I' for Inactive)
REMARK    1  A    between atoms: C_9  and  C_10 
REMARK       I    between atoms: C_10  and  N_11 
REMARK    2  A    between atoms: N_11  and  C_12 
REMARK    3  A    between atoms: C_12  and  C_13 
REMARK    4  A    between atoms: C_13  and  O_14 
REMARK    5  A    between atoms: C_13  and  C_15 
REMARK    6  A    between atoms: C_18  and  O_19 
ROOT
HETATM    1  C   UNL     1     -41.011  55.020 -54.053  1.00  0.00     0.258 C 
HETATM    2  N   UNL     1     -42.291  55.044 -54.562  1.00  0.00    -0.350 N 
HETATM    3  O   UNL     1     -40.099  55.697 -54.518  1.00  0.00    -0.267 OA
HETATM    4  H   UNL     1     -42.995  54.538 -54.026  1.00  0.00     0.163 HD
ENDROOT
BRANCH   2   5
HETATM    5  C   UNL     1     -42.748  56.033 -55.553  1.00  0.00     0.114 C 
HETATM    6  C   UNL     1     -43.090  55.334 -56.870  1.00  0.00     0.035 C 
BRANCH   5   7
HETATM    7  C   UNL     1     -43.887  56.939 -54.996  1.00  0.00     0.173 C 
BRANCH   7   8
HETATM    8  O   UNL     1     -45.007  56.102 -54.662  1.00  0.00    -0.389 OA
HETATM    9  H   UNL     1     -45.186  56.282 -53.722  1.00  0.00     0.210 HD
ENDBRANCH   7   8
BRANCH   7  10
HETATM   10  C   UNL     1     -43.506  57.752 -53.776  1.00  0.00    -0.028 A 
HETATM   11  C   UNL     1     -42.333  58.522 -53.801  1.00  0.00     0.012 A 
HETATM   12  C   UNL     1     -41.948  59.270 -52.687  1.00  0.00     0.037 A 
HETATM   13  C   UNL     1     -42.725  59.270 -51.529  1.00  0.00     0.068 A 
HETATM   14  C   UNL     1     -43.889  58.503 -51.490  1.00  0.00     0.037 A 
HETATM   15  C   UNL     1     -44.276  57.747 -52.605  1.00  0.00     0.012 A 
BRANCH  13  16
HETATM   16  O   UNL     1     -42.236  60.049 -50.517  1.00  0.00    -0.356 OA
HETATM   17  C   UNL     1     -40.957  59.704 -50.003  1.00  0.00     0.210 C 
ENDBRANCH  13  16
ENDBRANCH   7  10
ENDBRANCH   5   7
ENDBRANCH   2   5
BRANCH   1  18
HETATM   18  C   UNL     1     -40.803  54.141 -52.917  1.00  0.00     0.105 A 
HETATM   19  C   UNL     1     -40.403  52.815 -52.923  1.00  0.00     0.169 A 
HETATM   20  N   UNL     1     -40.083  51.968 -53.954  1.00  0.00    -0.233 NA
HETATM   21  N   UNL     1     -40.394  52.399 -51.587  1.00  0.00    -0.219 N 
HETATM   22  C   UNL     1     -39.779  50.744 -53.624  1.00  0.00     0.035 A 
HETATM   23  C   UNL     1     -39.422  49.768 -54.715  1.00  0.00     0.070 C 
HETATM   24  C   UNL     1     -39.754  50.211 -52.225  1.00  0.00     0.053 A 
HETATM   25  C   UNL     1     -40.067  51.079 -51.247  1.00  0.00     0.036 A 
HETATM   26  C   UNL     1     -40.093  50.699 -49.799  1.00  0.00     0.070 C 
HETATM   27  N   UNL     1     -40.734  53.407 -50.747  1.00  0.00    -0.170 NA
HETATM   28  C   UNL     1     -40.989  54.450 -51.543  1.00  0.00     0.071 A 
HETATM   29  C   UNL     1     -41.413  55.744 -50.950  1.00  0.00     0.073 C 
ENDBRANCH   1  18
TORSDOF 6
ENDMDL
MODEL 2
REMARK VINA RESULT:      -7.5      1.882      4.206
REMARK  6 active torsions:
REMARK  status: ('A' for Active; 'I' for Inactive)
REMARK    1  A    between atoms: C_9  and  C_10 
REMARK       I    between atoms: C_10  and  N_11 
REMARK    2  A    between atoms: N_11  and  C_12 
REMARK    3  A    between atoms: C_12  and  C_13 
REMARK    4  A    between atoms: C_13  and  O_14 
REMARK    5  A    between atoms: C_13  and  C_15 
REMARK    6  A    between atoms: C_18  and  O_19 
ROOT
HETATM    1  C   UNL     1     -41.015  55.779 -50.273  1.00  0.00     0.258 C 
HETATM    2  N   UNL     1     -40.993  56.618 -51.367  1.00  0.00    -0.350 N 
HETATM    3  O   UNL     1     -41.329  56.162 -49.150  1.00  0.00    -0.267 OA
HETATM    4  H   UNL     1     -40.836  56.172 -52.270  1.00  0.00     0.163 HD
ENDROOT
BRANCH   2   5
HETATM    5  C   UNL     1     -41.551  57.980 -51.352  1.00  0.00     0.114 C 
HETATM    6  C   UNL     1     -40.506  58.980 -51.852  1.00  0.00     0.035 C 
BRANCH   5   7
HETATM    7  C   UNL     1     -42.920  58.062 -52.092  1.00  0.00     0.173 C 
BRANCH   7   8
HETATM    8  O   UNL     1     -43.242  59.450 -52.292  1.00  0.00    -0.389 OA
HETATM    9  H   UNL     1     -42.395  59.876 -52.511  1.00  0.00     0.210 HD
ENDBRANCH   7   8
BRANCH   7  10
HETATM   10  C   UNL     1     -42.956  57.356 -53.431  1.00  0.00    -0.028 A 
HETATM   11  C   UNL     1     -43.568  56.096 -53.528  1.00  0.00     0.012 A 
HETATM   12  C   UNL     1     -43.602  55.414 -54.745  1.00  0.00     0.037 A 
HETATM   13  C   UNL     1     -43.035  55.973 -55.890  1.00  0.00     0.068 A 
HETATM   14  C   UNL     1     -42.418  57.221 -55.804  1.00  0.00     0.037 A 
HETATM   15  C   UNL     1     -42.377  57.907 -54.582  1.00  0.00     0.012 A 
BRANCH  13  16
HETATM   16  O   UNL     1     -43.145  55.202 -57.014  1.00  0.00    -0.356 OA
HETATM   17  C   UNL     1     -43.108  55.881 -58.262  1.00  0.00     0.210 C 
ENDBRANCH  13  16
ENDBRANCH   7  10
ENDBRANCH   5   7
ENDBRANCH   2   5
BRANCH   1  18
HETATM   18  C   UNL     1     -40.646  54.400 -50.531  1.00  0.00     0.105 A 
HETATM   19  C   UNL     1     -40.423  53.789 -51.754  1.00  0.00     0.169 A 
HETATM   20  N   UNL     1     -40.467  54.278 -53.035  1.00  0.00    -0.233 NA
HETATM   21  N   UNL     1     -40.140  52.446 -51.478  1.00  0.00    -0.219 N 
HETATM   22  C   UNL     1     -40.242  53.419 -53.990  1.00  0.00     0.035 A 
HETATM   23  C   UNL     1     -40.281  53.899 -55.418  1.00  0.00     0.070 C 
HETATM   24  C   UNL     1     -39.943  51.966 -53.788  1.00  0.00     0.053 A 
HETATM   25  C   UNL     1     -39.902  51.534 -52.515  1.00  0.00     0.036 A 
HETATM   26  C   UNL     1     -39.622  50.109 -52.149  1.00  0.00     0.070 C 
HETATM   27  N   UNL     1     -40.142  52.198 -50.146  1.00  0.00    -0.170 NA
HETATM   28  C   UNL     1     -40.454  53.366 -49.577  1.00  0.00     0.071 A 
HETATM   29  C   UNL     1     -40.563  53.461 -48.098  1.00  0.00     0.073 C 
ENDBRANCH   1  18
TORSDOF 6
ENDMDL
MODEL 3
REMARK VINA RESULT:      -7.4      3.007      5.918
REMARK  6 active torsions:
REMARK  status: ('A' for Active; 'I' for Inactive)
REMARK    1  A    between atoms: C_9  and  C_10 
REMARK       I    between atoms: C_10  and  N_11 
REMARK    2  A    between atoms: N_11  and  C_12 
REMARK    3  A    between atoms: C_12  and  C_13 
REMARK    4  A    between atoms: C_13  and  O_14 
REMARK    5  A    between atoms: C_13  and  C_15 
REMARK    6  A    between atoms: C_18  and  O_19 
ROOT
HETATM    1  C   UNL     1     -43.744  57.031 -54.346  1.00  0.00     0.258 C 
HETATM    2  N   UNL     1     -42.800  57.518 -55.226  1.00  0.00    -0.350 N 
HETATM    3  O   UNL     1     -44.948  57.066 -54.579  1.00  0.00    -0.267 OA
HETATM    4  H   UNL     1     -41.827  57.329 -54.987  1.00  0.00     0.163 HD
ENDROOT
BRANCH   2   5
HETATM    5  C   UNL     1     -43.113  57.917 -56.608  1.00  0.00     0.114 C 
HETATM    6  C   UNL     1     -42.567  59.318 -56.885  1.00  0.00     0.035 C 
BRANCH   5   7
HETATM    7  C   UNL     1     -42.669  56.841 -57.644  1.00  0.00     0.173 C 
BRANCH   7   8
HETATM    8  O   UNL     1     -42.325  55.641 -56.929  1.00  0.00    -0.389 OA
HETATM    9  H   UNL     1     -41.931  55.054 -57.597  1.00  0.00     0.210 HD
ENDBRANCH   7   8
BRANCH   7  10
HETATM   10  C   UNL     1     -43.711  56.503 -58.690  1.00  0.00    -0.028 A 
HETATM   11  C   UNL     1     -44.881  57.274 -58.769  1.00  0.00     0.012 A 
HETATM   12  C   UNL     1     -45.867  56.978 -59.711  1.00  0.00     0.037 A 
HETATM   13  C   UNL     1     -45.705  55.912 -60.597  1.00  0.00     0.068 A 
HETATM   14  C   UNL     1     -44.549  55.135 -60.523  1.00  0.00     0.037 A 
HETATM   15  C   UNL     1     -43.560  55.427 -59.574  1.00  0.00     0.012 A 
BRANCH  13  16
HETATM   16  O   UNL     1     -46.742  55.737 -61.471  1.00  0.00    -0.356 OA
HETATM   17  C   UNL     1     -47.785  56.702 -61.429  1.00  0.00     0.210 C 
ENDBRANCH  13  16
ENDBRANCH   7  10
ENDBRANCH   5   7
ENDBRANCH   2   5
BRANCH   1  18
HETATM   18  C   UNL     1     -43.223  56.463 -53.117  1.00  0.00     0.105 A 
HETATM   19  C   UNL     1     -42.323  55.421 -52.970  1.00  0.00     0.169 A 
HETATM   20  N   UNL     1     -41.667  54.650 -53.897  1.00  0.00    -0.233 NA
HETATM   21  N   UNL     1     -42.174  55.219 -51.593  1.00  0.00    -0.219 N 
HETATM   22  C   UNL     1     -40.902  53.705 -53.426  1.00  0.00     0.035 A 
HETATM   23  C   UNL     1     -40.160  52.824 -54.397  1.00  0.00     0.070 C 
HETATM   24  C   UNL     1     -40.694  53.411 -51.973  1.00  0.00     0.053 A 
HETATM   25  C   UNL     1     -41.350  54.197 -51.101  1.00  0.00     0.036 A 
HETATM   26  C   UNL     1     -41.250  54.027 -49.617  1.00  0.00     0.070 C 
HETATM   27  N   UNL     1     -42.909  56.103 -50.876  1.00  0.00    -0.170 NA
HETATM   28  C   UNL     1     -43.546  56.844 -51.787  1.00  0.00     0.071 A 
HETATM   29  C   UNL     1     -44.468  57.923 -51.347  1.00  0.00     0.073 C 
ENDBRANCH   1  18
TORSDOF 6
ENDMDL
MODEL 4
REMARK VINA RESULT:      -7.1      2.342      5.062
REMARK  6 active torsions:
REMARK  status: ('A' for Active; 'I' for Inactive)
REMARK    1  A    between atoms: C_9  and  C_10 
REMARK       I    between atoms: C_10  and  N_11 
REMARK    2  A    between atoms: N_11  and  C_12 
REMARK    3  A    between atoms: C_12  and  C_13 
REMARK    4  A    between atoms: C_13  and  O_14 
REMARK    5  A    between atoms: C_13  and  C_15 
REMARK    6  A    between atoms: C_18  and  O_19 
ROOT
HETATM    1  C   UNL     1     -42.946  56.499 -53.207  1.00  0.00     0.258 C 
HETATM    2  N   UNL     1     -42.364  57.614 -53.774  1.00  0.00    -0.350 N 
HETATM    3  O   UNL     1     -43.978  56.555 -52.544  1.00  0.00    -0.267 OA
HETATM    4  H   UNL     1     -41.581  57.438 -54.403  1.00  0.00     0.163 HD
ENDROOT
BRANCH   2   5
HETATM    5  C   UNL     1     -43.024  58.928 -53.834  1.00  0.00     0.114 C 
HETATM    6  C   UNL     1     -42.613  59.776 -52.629  1.00  0.00     0.035 C 
BRANCH   5   7
HETATM    7  C   UNL     1     -42.813  59.628 -55.210  1.00  0.00     0.173 C 
BRANCH   7   8
HETATM    8  O   UNL     1     -41.431  60.010 -55.315  1.00  0.00    -0.389 OA
HETATM    9  H   UNL     1     -41.146  59.691 -56.189  1.00  0.00     0.210 HD
ENDBRANCH   7   8
BRANCH   7  10
HETATM   10  C   UNL     1     -43.176  58.780 -56.412  1.00  0.00    -0.028 A 
HETATM   11  C   UNL     1     -42.167  58.379 -57.300  1.00  0.00     0.012 A 
HETATM   12  C   UNL     1     -42.473  57.611 -58.425  1.00  0.00     0.037 A 
HETATM   13  C   UNL     1     -43.787  57.223 -58.684  1.00  0.00     0.068 A 
HETATM   14  C   UNL     1     -44.800  57.623 -57.811  1.00  0.00     0.037 A 
HETATM   15  C   UNL     1     -44.496  58.398 -56.684  1.00  0.00     0.012 A 
BRANCH  13  16
HETATM   16  O   UNL     1     -43.945  56.469 -59.814  1.00  0.00    -0.356 OA
HETATM   17  C   UNL     1     -44.067  55.064 -59.634  1.00  0.00     0.210 C 
ENDBRANCH  13  16
ENDBRANCH   7  10
ENDBRANCH   5   7
ENDBRANCH   2   5
BRANCH   1  18
HETATM   18  C   UNL     1     -42.264  55.242 -53.449  1.00  0.00     0.105 A 
HETATM   19  C   UNL     1     -41.467  54.520 -52.577  1.00  0.00     0.169 A 
HETATM   20  N   UNL     1     -41.106  54.751 -51.273  1.00  0.00    -0.233 NA
HETATM   21  N   UNL     1     -41.006  53.408 -53.291  1.00  0.00    -0.219 N 
HETATM   22  C   UNL     1     -40.296  53.884 -50.735  1.00  0.00     0.035 A 
HETATM   23  C   UNL     1     -39.862  54.089 -49.306  1.00  0.00     0.070 C 
HETATM   24  C   UNL     1     -39.746  52.675 -51.426  1.00  0.00     0.053 A 
HETATM   25  C   UNL     1     -40.134  52.484 -52.699  1.00  0.00     0.036 A 
HETATM   26  C   UNL     1     -39.667  51.327 -53.528  1.00  0.00     0.070 C 
HETATM   27  N   UNL     1     -41.502  53.384 -54.552  1.00  0.00    -0.170 NA
HETATM   28  C   UNL     1     -42.249  54.487 -54.652  1.00  0.00     0.071 A 
HETATM   29  C   UNL     1     -42.944  54.795 -55.929  1.00  0.00     0.073 C 
ENDBRANCH   1  18
TORSDOF 6
ENDMDL
MODEL 5
REMARK VINA RESULT:      -7.1      3.253      7.814
REMARK  6 active torsions:
REMARK  status: ('A' for Active; 'I' for Inactive)
REMARK    1  A    between atoms: C_9  and  C_10 
REMARK       I    between atoms: C_10  and  N_11 
REMARK    2  A    between atoms: N_11  and  C_12 
REMARK    3  A    between atoms: C_12  and  C_13 
REMARK    4  A    between atoms: C_13  and  O_14 
REMARK    5  A    between atoms: C_13  and  C_15 
REMARK    6  A    between atoms: C_18  and  O_19 
ROOT
HETATM    1  C   UNL     1     -42.094  57.610 -54.501  1.00  0.00     0.258 C 
HETATM    2  N   UNL     1     -42.676  56.438 -54.935  1.00  0.00    -0.350 N 
HETATM    3  O   UNL     1     -41.500  57.699 -53.431  1.00  0.00    -0.267 OA
HETATM    4  H   UNL     1     -43.036  56.444 -55.889  1.00  0.00     0.163 HD
ENDROOT
BRANCH   2   5
HETATM    5  C   UNL     1     -42.458  55.137 -54.281  1.00  0.00     0.114 C 
HETATM    6  C   UNL     1     -43.758  54.331 -54.272  1.00  0.00     0.035 C 
BRANCH   5   7
HETATM    7  C   UNL     1     -41.238  54.376 -54.882  1.00  0.00     0.173 C 
BRANCH   7   8
HETATM    8  O   UNL     1     -40.186  55.327 -55.122  1.00  0.00    -0.389 OA
HETATM    9  H   UNL     1     -40.532  56.174 -54.791  1.00  0.00     0.210 HD
ENDBRANCH   7   8
BRANCH   7  10
HETATM   10  C   UNL     1     -40.698  53.262 -54.010  1.00  0.00    -0.028 A 
HETATM   11  C   UNL     1     -40.548  53.479 -52.631  1.00  0.00     0.012 A 
HETATM   12  C   UNL     1     -40.038  52.477 -51.804  1.00  0.00     0.037 A 
HETATM   13  C   UNL     1     -39.671  51.239 -52.331  1.00  0.00     0.068 A 
HETATM   14  C   UNL     1     -39.808  51.015 -53.701  1.00  0.00     0.037 A 
HETATM   15  C   UNL     1     -40.316  52.021 -54.535  1.00  0.00     0.012 A 
BRANCH  13  16
HETATM   16  O   UNL     1     -39.193  50.348 -51.411  1.00  0.00    -0.356 OA
HETATM   17  C   UNL     1     -40.015  50.093 -50.280  1.00  0.00     0.210 C 
ENDBRANCH  13  16
ENDBRANCH   7  10
ENDBRANCH   5   7
ENDBRANCH   2   5
BRANCH   1  18
HETATM   18  C   UNL     1     -42.220  58.744 -55.398  1.00  0.00     0.105 A 
HETATM   19  C   UNL     1     -42.243  58.742 -56.783  1.00  0.00     0.169 A 
HETATM   20  N   UNL     1     -42.169  57.715 -57.690  1.00  0.00    -0.233 NA
HETATM   21  N   UNL     1     -42.335  60.081 -57.179  1.00  0.00    -0.219 N 
HETATM   22  C   UNL     1     -42.177  58.054 -58.949  1.00  0.00     0.035 A 
HETATM   23  C   UNL     1     -42.095  56.968 -59.991  1.00  0.00     0.070 C 
HETATM   24  C   UNL     1     -42.261  59.458 -59.461  1.00  0.00     0.053 A 
HETATM   25  C   UNL     1     -42.340  60.430 -58.536  1.00  0.00     0.036 A 
HETATM   26  C   UNL     1     -42.424  61.884 -58.887  1.00  0.00     0.070 C 
HETATM   27  N   UNL     1     -42.404  60.914 -56.112  1.00  0.00    -0.170 NA
HETATM   28  C   UNL     1     -42.327  60.115 -55.043  1.00  0.00     0.071 A 
HETATM   29  C   UNL     1     -42.358  60.703 -53.679  1.00  0.00     0.073 C 
ENDBRANCH   1  18
TORSDOF 6
ENDMDL
MODEL 6
REMARK VINA RESULT:      -7.1      1.846      4.311
REMARK  6 active torsions:
REMARK  status: ('A' for Active; 'I' for Inactive)
REMARK    1  A    between atoms: C_9  and  C_10 
REMARK       I    between atoms: C_10  and  N_11 
REMARK    2  A    between atoms: N_11  and  C_12 
REMARK    3  A    between atoms: C_12  and  C_13 
REMARK    4  A    between atoms: C_13  and  O_14 
REMARK    5  A    between atoms: C_13  and  C_15 
REMARK    6  A    between atoms: C_18  and  O_19 
ROOT
HETATM    1  C   UNL     1     -41.561  56.328 -50.879  1.00  0.00     0.258 C 
HETATM    2  N   UNL     1     -40.835  57.455 -51.202  1.00  0.00    -0.350 N 
HETATM    3  O   UNL     1     -42.625  56.378 -50.269  1.00  0.00    -0.267 OA
HETATM    4  H   UNL     1     -40.031  57.308 -51.813  1.00  0.00     0.163 HD
ENDROOT
BRANCH   2   5
HETATM    5  C   UNL     1     -41.357  58.823 -51.055  1.00  0.00     0.114 C 
HETATM    6  C   UNL     1     -40.565  59.573 -49.983  1.00  0.00     0.035 C 
BRANCH   5   7
HETATM    7  C   UNL     1     -41.446  59.567 -52.421  1.00  0.00     0.173 C 
BRANCH   7   8
HETATM    8  O   UNL     1     -40.197  59.393 -53.112  1.00  0.00    -0.389 OA
HETATM    9  H   UNL     1     -40.163  58.448 -53.339  1.00  0.00     0.210 HD
ENDBRANCH   7   8
BRANCH   7  10
HETATM   10  C   UNL     1     -42.570  59.100 -53.322  1.00  0.00    -0.028 A 
HETATM   11  C   UNL     1     -43.898  59.381 -52.967  1.00  0.00     0.012 A 
HETATM   12  C   UNL     1     -44.956  58.949 -53.769  1.00  0.00     0.037 A 
HETATM   13  C   UNL     1     -44.713  58.235 -54.942  1.00  0.00     0.068 A 
HETATM   14  C   UNL     1     -43.396  57.945 -55.301  1.00  0.00     0.037 A 
HETATM   15  C   UNL     1     -42.332  58.372 -54.495  1.00  0.00     0.012 A 
BRANCH  13  16
HETATM   16  O   UNL     1     -45.837  57.880 -55.635  1.00  0.00    -0.356 OA
HETATM   17  C   UNL     1     -45.971  58.405 -56.949  1.00  0.00     0.210 C 
ENDBRANCH  13  16
ENDBRANCH   7  10
ENDBRANCH   5   7
ENDBRANCH   2   5
BRANCH   1  18
HETATM   18  C   UNL     1     -40.990  55.066 -51.311  1.00  0.00     0.105 A 
HETATM   19  C   UNL     1     -41.027  54.499 -52.574  1.00  0.00     0.169 A 
HETATM   20  N   UNL     1     -41.575  54.940 -53.752  1.00  0.00    -0.233 NA
HETATM   21  N   UNL     1     -40.378  53.263 -52.471  1.00  0.00    -0.219 N 
HETATM   22  C   UNL     1     -41.471  54.138 -54.774  1.00  0.00     0.035 A 
HETATM   23  C   UNL     1     -42.058  54.568 -56.094  1.00  0.00     0.070 C 
HETATM   24  C   UNL     1     -40.806  52.797 -54.752  1.00  0.00     0.053 A 
HETATM   25  C   UNL     1     -40.275  52.410 -53.578  1.00  0.00     0.036 A 
HETATM   26  C   UNL     1     -39.583  51.096 -53.392  1.00  0.00     0.070 C 
HETATM   27  N   UNL     1     -39.911  53.047 -51.217  1.00  0.00    -0.170 NA
HETATM   28  C   UNL     1     -40.284  54.123 -50.518  1.00  0.00     0.071 A 
HETATM   29  C   UNL     1     -39.947  54.219 -49.074  1.00  0.00     0.073 C 
ENDBRANCH   1  18
TORSDOF 6
ENDMDL
MODEL 7
REMARK VINA RESULT:      -7.0      2.625      7.471
REMARK  6 active torsions:
REMARK  status: ('A' for Active; 'I' for Inactive)
REMARK    1  A    between atoms: C_9  and  C_10 
REMARK       I    between atoms: C_10  and  N_11 
REMARK    2  A    between atoms: N_11  and  C_12 
REMARK    3  A    between atoms: C_12  and  C_13 
REMARK    4  A    between atoms: C_13  and  O_14 
REMARK    5  A    between atoms: C_13  and  C_15 
REMARK    6  A    between atoms: C_18  and  O_19 
ROOT
HETATM    1  C   UNL     1     -43.710  57.622 -52.205  1.00  0.00     0.258 C 
HETATM    2  N   UNL     1     -43.769  56.244 -52.182  1.00  0.00    -0.350 N 
HETATM    3  O   UNL     1     -43.192  58.278 -51.306  1.00  0.00    -0.267 OA
HETATM    4  H   UNL     1     -44.110  55.798 -53.033  1.00  0.00     0.163 HD
ENDROOT
BRANCH   2   5
HETATM    5  C   UNL     1     -43.035  55.419 -51.209  1.00  0.00     0.114 C 
HETATM    6  C   UNL     1     -43.639  54.015 -51.152  1.00  0.00     0.035 C 
BRANCH   5   7
HETATM    7  C   UNL     1     -41.497  55.444 -51.461  1.00  0.00     0.173 C 
BRANCH   7   8
HETATM    8  O   UNL     1     -40.838  55.686 -50.206  1.00  0.00    -0.389 OA
HETATM    9  H   UNL     1     -41.122  54.957 -49.627  1.00  0.00     0.210 HD
ENDBRANCH   7   8
BRANCH   7  10
HETATM   10  C   UNL     1     -40.937  54.176 -52.068  1.00  0.00    -0.028 A 
HETATM   11  C   UNL     1     -40.250  53.266 -51.250  1.00  0.00     0.012 A 
HETATM   12  C   UNL     1     -39.708  52.096 -51.783  1.00  0.00     0.037 A 
HETATM   13  C   UNL     1     -39.843  51.805 -53.141  1.00  0.00     0.068 A 
HETATM   14  C   UNL     1     -40.518  52.706 -53.966  1.00  0.00     0.037 A 
HETATM   15  C   UNL     1     -41.059  53.884 -53.433  1.00  0.00     0.012 A 
BRANCH  13  16
HETATM   16  O   UNL     1     -39.272  50.625 -53.529  1.00  0.00    -0.356 OA
HETATM   17  C   UNL     1     -39.928  49.908 -54.567  1.00  0.00     0.210 C 
ENDBRANCH  13  16
ENDBRANCH   7  10
ENDBRANCH   5   7
ENDBRANCH   2   5
BRANCH   1  18
HETATM   18  C   UNL     1     -44.295  58.257 -53.370  1.00  0.00     0.105 A 
HETATM   19  C   UNL     1     -44.180  57.881 -54.698  1.00  0.00     0.169 A 
HETATM   20  N   UNL     1     -43.520  56.834 -55.292  1.00  0.00    -0.233 NA
HETATM   21  N   UNL     1     -44.886  58.835 -55.442  1.00  0.00    -0.219 N 
HETATM   22  C   UNL     1     -43.574  56.780 -56.593  1.00  0.00     0.035 A 
HETATM   23  C   UNL     1     -42.865  55.654 -57.300  1.00  0.00     0.070 C 
HETATM   24  C   UNL     1     -44.294  57.760 -57.466  1.00  0.00     0.053 A 
HETATM   25  C   UNL     1     -44.934  58.764 -56.840  1.00  0.00     0.036 A 
HETATM   26  C   UNL     1     -45.693  59.827 -57.572  1.00  0.00     0.070 C 
HETATM   27  N   UNL     1     -45.462  59.765 -54.642  1.00  0.00    -0.170 NA
HETATM   28  C   UNL     1     -45.101  59.426 -53.401  1.00  0.00     0.071 A 
HETATM   29  C   UNL     1     -45.551  60.252 -52.250  1.00  0.00     0.073 C 
ENDBRANCH   1  18
TORSDOF 6
ENDMDL
MODEL 8
REMARK VINA RESULT:      -7.0      3.068      7.689
REMARK  6 active torsions:
REMARK  status: ('A' for Active; 'I' for Inactive)
REMARK    1  A    between atoms: C_9  and  C_10 
REMARK       I    between atoms: C_10  and  N_11 
REMARK    2  A    between atoms: N_11  and  C_12 
REMARK    3  A    between atoms: C_12  and  C_13 
REMARK    4  A    between atoms: C_13  and  O_14 
REMARK    5  A    between atoms: C_13  and  C_15 
REMARK    6  A    between atoms: C_18  and  O_19 
ROOT
HETATM    1  C   UNL     1     -43.461  57.624 -55.067  1.00  0.00     0.258 C 
HETATM    2  N   UNL     1     -42.703  56.543 -54.668  1.00  0.00    -0.350 N 
HETATM    3  O   UNL     1     -44.377  58.078 -54.388  1.00  0.00    -0.267 OA
HETATM    4  H   UNL     1     -41.894  56.326 -55.249  1.00  0.00     0.163 HD
ENDROOT
BRANCH   2   5
HETATM    5  C   UNL     1     -42.761  55.972 -53.313  1.00  0.00     0.114 C 
HETATM    6  C   UNL     1     -43.629  54.713 -53.312  1.00  0.00     0.035 C 
BRANCH   5   7
HETATM    7  C   UNL     1     -41.343  55.772 -52.700  1.00  0.00     0.173 C 
BRANCH   7   8
HETATM    8  O   UNL     1     -41.403  56.109 -51.303  1.00  0.00    -0.389 OA
HETATM    9  H   UNL     1     -40.787  56.855 -51.197  1.00  0.00     0.210 HD
ENDBRANCH   7   8
BRANCH   7  10
HETATM   10  C   UNL     1     -40.788  54.369 -52.838  1.00  0.00    -0.028 A 
HETATM   11  C   UNL     1     -40.524  53.857 -54.118  1.00  0.00     0.012 A 
HETATM   12  C   UNL     1     -40.028  52.563 -54.278  1.00  0.00     0.037 A 
HETATM   13  C   UNL     1     -39.780  51.754 -53.169  1.00  0.00     0.068 A 
HETATM   14  C   UNL     1     -40.045  52.251 -51.892  1.00  0.00     0.037 A 
HETATM   15  C   UNL     1     -40.548  53.548 -51.729  1.00  0.00     0.012 A 
BRANCH  13  16
HETATM   16  O   UNL     1     -39.289  50.514 -53.468  1.00  0.00    -0.356 OA
HETATM   17  C   UNL     1     -39.922  49.813 -54.530  1.00  0.00     0.210 C 
ENDBRANCH  13  16
ENDBRANCH   7  10
ENDBRANCH   5   7
ENDBRANCH   2   5
BRANCH   1  18
HETATM   18  C   UNL     1     -43.104  58.203 -56.349  1.00  0.00     0.105 A 
HETATM   19  C   UNL     1     -43.208  57.630 -57.605  1.00  0.00     0.169 A 
HETATM   20  N   UNL     1     -43.672  56.402 -58.008  1.00  0.00    -0.233 NA
HETATM   21  N   UNL     1     -42.696  58.566 -58.511  1.00  0.00    -0.219 N 
HETATM   22  C   UNL     1     -43.598  56.146 -59.284  1.00  0.00     0.035 A 
HETATM   23  C   UNL     1     -44.089  54.812 -59.784  1.00  0.00     0.070 C 
HETATM   24  C   UNL     1     -43.056  57.082 -60.319  1.00  0.00     0.053 A 
HETATM   25  C   UNL     1     -42.621  58.276 -59.880  1.00  0.00     0.036 A 
HETATM   26  C   UNL     1     -42.046  59.318 -60.789  1.00  0.00     0.070 C 
HETATM   27  N   UNL     1     -42.309  59.705 -57.886  1.00  0.00    -0.170 NA
HETATM   28  C   UNL     1     -42.544  59.486 -56.589  1.00  0.00     0.071 A 
HETATM   29  C   UNL     1     -42.218  60.538 -55.592  1.00  0.00     0.073 C 
ENDBRANCH   1  18
TORSDOF 6
ENDMDL
MODEL 9
REMARK VINA RESULT:      -7.0      2.860      6.731
REMARK  6 active torsions:
REMARK  status: ('A' for Active; 'I' for Inactive)
REMARK    1  A    between atoms: C_9  and  C_10 
REMARK       I    between atoms: C_10  and  N_11 
REMARK    2  A    between atoms: N_11  and  C_12 
REMARK    3  A    between atoms: C_12  and  C_13 
REMARK    4  A    between atoms: C_13  and  O_14 
REMARK    5  A    between atoms: C_13  and  C_15 
REMARK    6  A    between atoms: C_18  and  O_19 
ROOT
HETATM    1  C   UNL     1     -42.064  57.394 -54.296  1.00  0.00     0.258 C 
HETATM    2  N   UNL     1     -43.110  57.959 -53.597  1.00  0.00    -0.350 N 
HETATM    3  O   UNL     1     -40.911  57.391 -53.876  1.00  0.00    -0.267 OA
HETATM    4  H   UNL     1     -44.041  57.799 -53.980  1.00  0.00     0.163 HD
ENDROOT
BRANCH   2   5
HETATM    5  C   UNL     1     -42.999  58.408 -52.199  1.00  0.00     0.114 C 
HETATM    6  C   UNL     1     -43.572  59.819 -52.056  1.00  0.00     0.035 C 
BRANCH   5   7
HETATM    7  C   UNL     1     -43.595  57.371 -51.201  1.00  0.00     0.173 C 
BRANCH   7   8
HETATM    8  O   UNL     1     -44.866  56.932 -51.712  1.00  0.00    -0.389 OA
HETATM    9  H   UNL     1     -44.736  56.847 -52.673  1.00  0.00     0.210 HD
ENDBRANCH   7   8
BRANCH   7  10
HETATM   10  C   UNL     1     -42.723  56.158 -50.956  1.00  0.00    -0.028 A 
HETATM   11  C   UNL     1     -43.213  54.882 -51.277  1.00  0.00     0.012 A 
HETATM   12  C   UNL     1     -42.440  53.744 -51.047  1.00  0.00     0.037 A 
HETATM   13  C   UNL     1     -41.162  53.852 -50.499  1.00  0.00     0.068 A 
HETATM   14  C   UNL     1     -40.667  55.114 -50.170  1.00  0.00     0.037 A 
HETATM   15  C   UNL     1     -41.444  56.259 -50.394  1.00  0.00     0.012 A 
BRANCH  13  16
HETATM   16  O   UNL     1     -40.511  52.660 -50.334  1.00  0.00    -0.356 OA
HETATM   17  C   UNL     1     -39.777  52.172 -51.449  1.00  0.00     0.210 C 
ENDBRANCH  13  16
ENDBRANCH   7  10
ENDBRANCH   5   7
ENDBRANCH   2   5
BRANCH   1  18
HETATM   18  C   UNL     1     -42.412  56.792 -55.569  1.00  0.00     0.105 A 
HETATM   19  C   UNL     1     -42.431  57.386 -56.820  1.00  0.00     0.169 A 
HETATM   20  N   UNL     1     -42.129  58.663 -57.224  1.00  0.00    -0.233 NA
HETATM   21  N   UNL     1     -42.876  56.407 -57.716  1.00  0.00    -0.219 N 
HETATM   22  C   UNL     1     -42.290  58.922 -58.491  1.00  0.00     0.035 A 
HETATM   23  C   UNL     1     -41.978  60.308 -58.991  1.00  0.00     0.070 C 
HETATM   24  C   UNL     1     -42.770  57.941 -59.515  1.00  0.00     0.053 A 
HETATM   25  C   UNL     1     -43.046  56.701 -59.076  1.00  0.00     0.036 A 
HETATM   26  C   UNL     1     -43.541  55.610 -59.974  1.00  0.00     0.070 C 
HETATM   27  N   UNL     1     -43.101  55.225 -57.093  1.00  0.00    -0.170 NA
HETATM   28  C   UNL     1     -42.833  55.456 -55.804  1.00  0.00     0.071 A 
HETATM   29  C   UNL     1     -42.991  54.363 -54.810  1.00  0.00     0.073 C 
ENDBRANCH   1  18
TORSDOF 6
ENDMDL
MODEL 10
REMARK VINA RESULT:      -6.9      3.461      8.207
REMARK  6 active torsions:
REMARK  status: ('A' for Active; 'I' for Inactive)
REMARK    1  A    between atoms: C_9  and  C_10 
REMARK       I    between atoms: C_10  and  N_11 
REMARK    2  A    between atoms: N_11  and  C_12 
REMARK    3  A    between atoms: C_12  and  C_13 
REMARK    4  A    between atoms: C_13  and  O_14 
REMARK    5  A    between atoms: C_13  and  C_15 
REMARK    6  A    between atoms: C_18  and  O_19 
ROOT
HETATM    1  C   UNL     1     -41.276  59.136 -53.097  1.00  0.00     0.258 C 
HETATM    2  N   UNL     1     -41.976  58.100 -52.516  1.00  0.00    -0.350 N 
HETATM    3  O   UNL     1     -40.050  59.173 -53.128  1.00  0.00    -0.267 OA
HETATM    4  H   UNL     1     -42.986  58.110 -52.654  1.00  0.00     0.163 HD
ENDROOT
BRANCH   2   5
HETATM    5  C   UNL     1     -41.346  56.843 -52.081  1.00  0.00     0.114 C 
HETATM    6  C   UNL     1     -40.966  56.932 -50.602  1.00  0.00     0.035 C 
BRANCH   5   7
HETATM    7  C   UNL     1     -42.208  55.597 -52.445  1.00  0.00     0.173 C 
BRANCH   7   8
HETATM    8  O   UNL     1     -43.090  55.958 -53.522  1.00  0.00    -0.389 OA
HETATM    9  H   UNL     1     -43.720  56.589 -53.131  1.00  0.00     0.210 HD
ENDBRANCH   7   8
BRANCH   7  10
HETATM   10  C   UNL     1     -41.411  54.377 -52.857  1.00  0.00    -0.028 A 
HETATM   11  C   UNL     1     -40.907  53.518 -51.868  1.00  0.00     0.012 A 
HETATM   12  C   UNL     1     -40.156  52.395 -52.216  1.00  0.00     0.037 A 
HETATM   13  C   UNL     1     -39.896  52.100 -53.554  1.00  0.00     0.068 A 
HETATM   14  C   UNL     1     -40.386  52.950 -54.546  1.00  0.00     0.037 A 
HETATM   15  C   UNL     1     -41.137  54.082 -54.199  1.00  0.00     0.012 A 
BRANCH  13  16
HETATM   16  O   UNL     1     -39.156  50.968 -53.754  1.00  0.00    -0.356 OA
HETATM   17  C   UNL     1     -39.769  49.925 -54.499  1.00  0.00     0.210 C 
ENDBRANCH  13  16
ENDBRANCH   7  10
ENDBRANCH   5   7
ENDBRANCH   2   5
BRANCH   1  18
HETATM   18  C   UNL     1     -42.084  60.190 -53.682  1.00  0.00     0.105 A 
HETATM   19  C   UNL     1     -42.298  60.460 -55.023  1.00  0.00     0.169 A 
HETATM   20  N   UNL     1     -41.845  59.836 -56.158  1.00  0.00    -0.233 NA
HETATM   21  N   UNL     1     -43.109  61.600 -55.072  1.00  0.00    -0.219 N 
HETATM   22  C   UNL     1     -42.202  60.369 -57.293  1.00  0.00     0.035 A 
HETATM   23  C   UNL     1     -41.731  59.729 -58.573  1.00  0.00     0.070 C 
HETATM   24  C   UNL     1     -43.055  61.590 -57.439  1.00  0.00     0.053 A 
HETATM   25  C   UNL     1     -43.483  62.163 -56.300  1.00  0.00     0.036 A 
HETATM   26  C   UNL     1     -44.338  63.392 -56.278  1.00  0.00     0.070 C 
HETATM   27  N   UNL     1     -43.438  62.033 -53.831  1.00  0.00    -0.170 NA
HETATM   28  C   UNL     1     -42.817  61.195 -52.996  1.00  0.00     0.071 A 
HETATM   29  C   UNL     1     -42.947  61.385 -51.528  1.00  0.00     0.073 C 
ENDBRANCH   1  18
TORSDOF 6
ENDMDL
