MODEL 1
REMARK VINA RESULT:      -7.4      0.000      0.000
REMARK  6 active torsions:
REMARK  status: ('A' for Active; 'I' for Inactive)
REMARK    1  A    between atoms: O_2  and  C_3 
REMARK    2  A    between atoms: C_6  and  S_7 
REMARK    3  A    between atoms: S_7  and  C_8 
REMARK    4  A    between atoms: C_11  and  N_12 
REMARK       I    between atoms: N_12  and  C_13 
REMARK    5  A    between atoms: C_13  and  C_14 
REMARK    6  A    between atoms: C_14  and  C_15 
ROOT
HETATM    1  C   UNL     1     -42.053  56.028 -52.576  1.00  0.00     0.005 A 
HETATM    2  C   UNL     1     -41.437  56.948 -53.427  1.00  0.00     0.021 A 
HETATM    3  C   UNL     1     -42.094  57.412 -54.574  1.00  0.00     0.031 A 
HETATM    4  C   UNL     1     -43.371  56.950 -54.894  1.00  0.00     0.034 A 
HETATM    5  C   UNL     1     -43.990  56.033 -54.034  1.00  0.00     0.031 A 
HETATM    6  C   UNL     1     -43.338  55.576 -52.882  1.00  0.00     0.021 A 
ENDROOT
BRANCH   4   7
HETATM    7  N   UNL     1     -44.066  57.308 -56.069  1.00  0.00    -0.327 N 
HETATM    8  C   UNL     1     -43.550  57.425 -57.348  1.00  0.00     0.227 C 
HETATM    9  O   UNL     1     -42.359  57.394 -57.656  1.00  0.00    -0.273 OA
HETATM   10  H   UNL     1     -45.050  57.518 -55.953  1.00  0.00     0.169 HD
BRANCH   8  11
HETATM   11  C   UNL     1     -44.624  57.612 -58.418  1.00  0.00     0.159 C 
BRANCH  11  12
HETATM   12  C   UNL     1     -44.722  56.424 -59.321  1.00  0.00     0.017 A 
HETATM   13  N   UNL     1     -44.333  55.164 -58.921  1.00  0.00    -0.369 N 
HETATM   14  H   UNL     1     -43.928  54.945 -58.015  1.00  0.00     0.165 HD
HETATM   15  C   UNL     1     -44.558  54.271 -59.934  1.00  0.00     0.088 A 
HETATM   16  C   UNL     1     -45.113  54.956 -60.991  1.00  0.00     0.019 A 
HETATM   17  C   UNL     1     -45.218  56.313 -60.606  1.00  0.00     0.027 A 
ENDBRANCH  11  12
ENDBRANCH   8  11
ENDBRANCH   4   7
BRANCH   1  18
HETATM   18  S   UNL     1     -41.160  55.368 -51.188  1.00  0.00    -0.091 SA
BRANCH  18  19
HETATM   19  C   UNL     1     -40.665  53.739 -51.720  1.00  0.00     0.005 A 
HETATM   20  C   UNL     1     -40.651  53.476 -53.093  1.00  0.00     0.021 A 
HETATM   21  C   UNL     1     -40.202  52.244 -53.579  1.00  0.00     0.038 A 
HETATM   22  C   UNL     1     -39.748  51.259 -52.702  1.00  0.00     0.068 A 
HETATM   23  C   UNL     1     -39.770  51.508 -51.330  1.00  0.00     0.038 A 
HETATM   24  C   UNL     1     -40.221  52.744 -50.844  1.00  0.00     0.021 A 
BRANCH  22  25
HETATM   25  O   UNL     1     -39.314  50.111 -53.304  1.00  0.00    -0.356 OA
HETATM   26  C   UNL     1     -39.747  49.889 -54.640  1.00  0.00     0.210 C 
ENDBRANCH  22  25
ENDBRANCH  18  19
ENDBRANCH   1  18
TORSDOF 6
ENDMDL
MODEL 2
REMARK VINA RESULT:      -7.3      0.825      1.338
REMARK  6 active torsions:
REMARK  status: ('A' for Active; 'I' for Inactive)
REMARK    1  A    between atoms: O_2  and  C_3 
REMARK    2  A    between atoms: C_6  and  S_7 
REMARK    3  A    between atoms: S_7  and  C_8 
REMARK    4  A    between atoms: C_11  and  N_12 
REMARK       I    between atoms: N_12  and  C_13 
REMARK    5  A    between atoms: C_13  and  C_14 
REMARK    6  A    between atoms: C_14  and  C_15 
ROOT
HETATM    1  C   UNL     1     -42.187  56.390 -52.621  1.00  0.00     0.005 A 
HETATM    2  C   UNL     1     -41.442  57.298 -53.375  1.00  0.00     0.021 A 
HETATM    3  C   UNL     1     -42.002  57.928 -54.493  1.00  0.00     0.031 A 
HETATM    4  C   UNL     1     -43.312  57.647 -54.882  1.00  0.00     0.034 A 
HETATM    5  C   UNL     1     -44.061  56.742 -54.119  1.00  0.00     0.031 A 
HETATM    6  C   UNL     1     -43.505  56.119 -52.995  1.00  0.00     0.021 A 
ENDROOT
BRANCH   4   7
HETATM    7  N   UNL     1     -43.921  58.179 -56.039  1.00  0.00    -0.327 N 
HETATM    8  C   UNL     1     -43.669  57.835 -57.356  1.00  0.00     0.227 C 
HETATM    9  O   UNL     1     -42.752  57.118 -57.756  1.00  0.00    -0.273 OA
HETATM   10  H   UNL     1     -44.608  58.906 -55.881  1.00  0.00     0.169 HD
BRANCH   8  11
HETATM   11  C   UNL     1     -44.664  58.446 -58.341  1.00  0.00     0.159 C 
BRANCH  11  12
HETATM   12  C   UNL     1     -45.384  57.398 -59.127  1.00  0.00     0.017 A 
HETATM   13  N   UNL     1     -44.824  56.168 -59.395  1.00  0.00    -0.369 N 
HETATM   14  H   UNL     1     -43.888  55.886 -59.117  1.00  0.00     0.165 HD
HETATM   15  C   UNL     1     -45.713  55.404 -60.103  1.00  0.00     0.088 A 
HETATM   16  C   UNL     1     -46.862  56.138 -60.279  1.00  0.00     0.019 A 
HETATM   17  C   UNL     1     -46.657  57.396 -59.663  1.00  0.00     0.027 A 
ENDBRANCH  11  12
ENDBRANCH   8  11
ENDBRANCH   4   7
BRANCH   1  18
HETATM   18  S   UNL     1     -41.424  55.518 -51.272  1.00  0.00    -0.091 SA
BRANCH  18  19
HETATM   19  C   UNL     1     -40.762  54.043 -52.024  1.00  0.00     0.005 A 
HETATM   20  C   UNL     1     -40.149  53.103 -51.189  1.00  0.00     0.021 A 
HETATM   21  C   UNL     1     -39.675  51.893 -51.705  1.00  0.00     0.038 A 
HETATM   22  C   UNL     1     -39.818  51.595 -53.060  1.00  0.00     0.068 A 
HETATM   23  C   UNL     1     -40.417  52.532 -53.902  1.00  0.00     0.038 A 
HETATM   24  C   UNL     1     -40.891  53.746 -53.384  1.00  0.00     0.021 A 
BRANCH  22  25
HETATM   25  O   UNL     1     -39.336  50.372 -53.433  1.00  0.00    -0.356 OA
HETATM   26  C   UNL     1     -39.808  49.848 -54.667  1.00  0.00     0.210 C 
ENDBRANCH  22  25
ENDBRANCH  18  19
ENDBRANCH   1  18
TORSDOF 6
ENDMDL
MODEL 3
REMARK VINA RESULT:      -7.1      3.223      8.331
REMARK  6 active torsions:
REMARK  status: ('A' for Active; 'I' for Inactive)
REMARK    1  A    between atoms: O_2  and  C_3 
REMARK    2  A    between atoms: C_6  and  S_7 
REMARK    3  A    between atoms: S_7  and  C_8 
REMARK    4  A    between atoms: C_11  and  N_12 
REMARK       I    between atoms: N_12  and  C_13 
REMARK    5  A    between atoms: C_13  and  C_14 
REMARK    6  A    between atoms: C_14  and  C_15 
ROOT
HETATM    1  C   UNL     1     -42.859  57.775 -56.260  1.00  0.00     0.005 A 
HETATM    2  C   UNL     1     -42.807  56.421 -56.596  1.00  0.00     0.021 A 
HETATM    3  C   UNL     1     -42.163  55.501 -55.761  1.00  0.00     0.031 A 
HETATM    4  C   UNL     1     -41.545  55.925 -54.583  1.00  0.00     0.034 A 
HETATM    5  C   UNL     1     -41.606  57.283 -54.243  1.00  0.00     0.031 A 
HETATM    6  C   UNL     1     -42.258  58.202 -55.074  1.00  0.00     0.021 A 
ENDROOT
BRANCH   4   7
HETATM    7  N   UNL     1     -40.810  55.075 -53.730  1.00  0.00    -0.327 N 
HETATM    8  C   UNL     1     -41.292  54.014 -52.982  1.00  0.00     0.227 C 
HETATM    9  O   UNL     1     -42.476  53.729 -52.805  1.00  0.00    -0.273 OA
HETATM   10  H   UNL     1     -39.822  55.278 -53.648  1.00  0.00     0.169 HD
BRANCH   8  11
HETATM   11  C   UNL     1     -40.187  53.171 -52.347  1.00  0.00     0.159 C 
BRANCH  11  12
HETATM   12  C   UNL     1     -40.029  51.853 -53.035  1.00  0.00     0.017 A 
HETATM   13  N   UNL     1     -39.612  50.722 -52.367  1.00  0.00    -0.369 N 
HETATM   14  H   UNL     1     -39.354  50.693 -51.385  1.00  0.00     0.165 HD
HETATM   15  C   UNL     1     -39.585  49.662 -53.233  1.00  0.00     0.088 A 
HETATM   16  C   UNL     1     -40.004  50.106 -54.466  1.00  0.00     0.019 A 
HETATM   17  C   UNL     1     -40.286  51.488 -54.342  1.00  0.00     0.027 A 
ENDBRANCH  11  12
ENDBRANCH   8  11
ENDBRANCH   4   7
BRANCH   1  18
HETATM   18  S   UNL     1     -43.584  58.943 -57.386  1.00  0.00    -0.091 SA
BRANCH  18  19
HETATM   19  C   UNL     1     -44.484  57.932 -58.548  1.00  0.00     0.005 A 
HETATM   20  C   UNL     1     -45.864  57.796 -58.365  1.00  0.00     0.021 A 
HETATM   21  C   UNL     1     -46.637  57.078 -59.282  1.00  0.00     0.038 A 
HETATM   22  C   UNL     1     -46.048  56.494 -60.403  1.00  0.00     0.068 A 
HETATM   23  C   UNL     1     -44.671  56.613 -60.586  1.00  0.00     0.038 A 
HETATM   24  C   UNL     1     -43.895  57.333 -59.666  1.00  0.00     0.021 A 
BRANCH  22  25
HETATM   25  O   UNL     1     -46.916  55.841 -61.232  1.00  0.00    -0.356 OA
HETATM   26  C   UNL     1     -47.944  56.624 -61.825  1.00  0.00     0.210 C 
ENDBRANCH  22  25
ENDBRANCH  18  19
ENDBRANCH   1  18
TORSDOF 6
ENDMDL
MODEL 4
REMARK VINA RESULT:      -6.9      4.436      6.701
REMARK  6 active torsions:
REMARK  status: ('A' for Active; 'I' for Inactive)
REMARK    1  A    between atoms: O_2  and  C_3 
REMARK    2  A    between atoms: C_6  and  S_7 
REMARK    3  A    between atoms: S_7  and  C_8 
REMARK    4  A    between atoms: C_11  and  N_12 
REMARK       I    between atoms: N_12  and  C_13 
REMARK    5  A    between atoms: C_13  and  C_14 
REMARK    6  A    between atoms: C_14  and  C_15 
ROOT
HETATM    1  C   UNL     1     -42.299  56.337 -54.291  1.00  0.00     0.005 A 
HETATM    2  C   UNL     1     -41.754  57.453 -53.654  1.00  0.00     0.021 A 
HETATM    3  C   UNL     1     -42.581  58.400 -53.038  1.00  0.00     0.031 A 
HETATM    4  C   UNL     1     -43.969  58.253 -53.066  1.00  0.00     0.034 A 
HETATM    5  C   UNL     1     -44.513  57.127 -53.698  1.00  0.00     0.031 A 
HETATM    6  C   UNL     1     -43.686  56.175 -54.306  1.00  0.00     0.021 A 
ENDROOT
BRANCH   4   7
HETATM    7  N   UNL     1     -44.871  59.201 -52.538  1.00  0.00    -0.327 N 
HETATM    8  C   UNL     1     -45.503  59.165 -51.307  1.00  0.00     0.227 C 
HETATM    9  O   UNL     1     -45.514  58.216 -50.523  1.00  0.00    -0.273 OA
HETATM   10  H   UNL     1     -45.088  59.986 -53.140  1.00  0.00     0.169 HD
BRANCH   8  11
HETATM   11  C   UNL     1     -46.237  60.461 -50.967  1.00  0.00     0.159 C 
BRANCH  11  12
HETATM   12  C   UNL     1     -45.651  61.134 -49.768  1.00  0.00     0.017 A 
HETATM   13  N   UNL     1     -45.331  60.441 -48.620  1.00  0.00    -0.369 N 
HETATM   14  H   UNL     1     -45.491  59.447 -48.481  1.00  0.00     0.165 HD
HETATM   15  C   UNL     1     -44.788  61.300 -47.702  1.00  0.00     0.088 A 
HETATM   16  C   UNL     1     -44.740  62.554 -48.266  1.00  0.00     0.019 A 
HETATM   17  C   UNL     1     -45.283  62.451 -49.569  1.00  0.00     0.027 A 
ENDBRANCH  11  12
ENDBRANCH   8  11
ENDBRANCH   4   7
BRANCH   1  18
HETATM   18  S   UNL     1     -41.240  55.205 -55.161  1.00  0.00    -0.091 SA
BRANCH  18  19
HETATM   19  C   UNL     1     -40.814  53.977 -53.940  1.00  0.00     0.005 A 
HETATM   20  C   UNL     1     -40.354  52.736 -54.393  1.00  0.00     0.021 A 
HETATM   21  C   UNL     1     -39.935  51.757 -53.488  1.00  0.00     0.038 A 
HETATM   22  C   UNL     1     -39.955  52.005 -52.116  1.00  0.00     0.068 A 
HETATM   23  C   UNL     1     -40.423  53.235 -51.655  1.00  0.00     0.038 A 
HETATM   24  C   UNL     1     -40.845  54.216 -52.563  1.00  0.00     0.021 A 
BRANCH  22  25
HETATM   25  O   UNL     1     -39.497  50.977 -51.340  1.00  0.00    -0.356 OA
HETATM   26  C   UNL     1     -39.539  49.676 -51.915  1.00  0.00     0.210 C 
ENDBRANCH  22  25
ENDBRANCH  18  19
ENDBRANCH   1  18
TORSDOF 6
ENDMDL
MODEL 5
REMARK VINA RESULT:      -6.8      4.559      8.316
REMARK  6 active torsions:
REMARK  status: ('A' for Active; 'I' for Inactive)
REMARK    1  A    between atoms: O_2  and  C_3 
REMARK    2  A    between atoms: C_6  and  S_7 
REMARK    3  A    between atoms: S_7  and  C_8 
REMARK    4  A    between atoms: C_11  and  N_12 
REMARK       I    between atoms: N_12  and  C_13 
REMARK    5  A    between atoms: C_13  and  C_14 
REMARK    6  A    between atoms: C_14  and  C_15 
ROOT
HETATM    1  C   UNL     1     -42.250  58.796 -53.658  1.00  0.00     0.005 A 
HETATM    2  C   UNL     1     -42.554  58.116 -54.838  1.00  0.00     0.021 A 
HETATM    3  C   UNL     1     -42.018  56.848 -55.092  1.00  0.00     0.031 A 
HETATM    4  C   UNL     1     -41.155  56.248 -54.174  1.00  0.00     0.034 A 
HETATM    5  C   UNL     1     -40.858  56.928 -52.986  1.00  0.00     0.031 A 
HETATM    6  C   UNL     1     -41.402  58.192 -52.727  1.00  0.00     0.021 A 
ENDROOT
BRANCH   4   7
HETATM    7  N   UNL     1     -40.513  55.010 -54.391  1.00  0.00    -0.327 N 
HETATM    8  C   UNL     1     -40.943  53.758 -53.987  1.00  0.00     0.227 C 
HETATM    9  O   UNL     1     -41.880  53.523 -53.224  1.00  0.00    -0.273 OA
HETATM   10  H   UNL     1     -39.630  55.051 -54.886  1.00  0.00     0.169 HD
BRANCH   8  11
HETATM   11  C   UNL     1     -40.122  52.615 -54.583  1.00  0.00     0.159 C 
BRANCH  11  12
HETATM   12  C   UNL     1     -39.878  51.528 -53.586  1.00  0.00     0.017 A 
HETATM   13  N   UNL     1     -39.712  51.787 -52.243  1.00  0.00    -0.369 N 
HETATM   14  H   UNL     1     -39.709  52.715 -51.829  1.00  0.00     0.165 HD
HETATM   15  C   UNL     1     -39.535  50.609 -51.567  1.00  0.00     0.088 A 
HETATM   16  C   UNL     1     -39.604  49.580 -52.477  1.00  0.00     0.019 A 
HETATM   17  C   UNL     1     -39.821  50.157 -53.751  1.00  0.00     0.027 A 
ENDBRANCH  11  12
ENDBRANCH   8  11
ENDBRANCH   4   7
BRANCH   1  18
HETATM   18  S   UNL     1     -42.852  60.449 -53.404  1.00  0.00    -0.091 SA
BRANCH  18  19
HETATM   19  C   UNL     1     -43.800  60.344 -51.897  1.00  0.00     0.005 A 
HETATM   20  C   UNL     1     -43.412  61.153 -50.823  1.00  0.00     0.021 A 
HETATM   21  C   UNL     1     -44.156  61.172 -49.640  1.00  0.00     0.038 A 
HETATM   22  C   UNL     1     -45.307  60.394 -49.513  1.00  0.00     0.068 A 
HETATM   23  C   UNL     1     -45.693  59.575 -50.574  1.00  0.00     0.038 A 
HETATM   24  C   UNL     1     -44.946  59.556 -51.760  1.00  0.00     0.021 A 
BRANCH  22  25
HETATM   25  O   UNL     1     -45.956  60.521 -48.317  1.00  0.00    -0.356 OA
HETATM   26  C   UNL     1     -45.352  61.370 -47.350  1.00  0.00     0.210 C 
ENDBRANCH  22  25
ENDBRANCH  18  19
ENDBRANCH   1  18
TORSDOF 6
ENDMDL
MODEL 6
REMARK VINA RESULT:      -6.7     14.828     17.973
REMARK  6 active torsions:
REMARK  status: ('A' for Active; 'I' for Inactive)
REMARK    1  A    between atoms: O_2  and  C_3 
REMARK    2  A    between atoms: C_6  and  S_7 
REMARK    3  A    between atoms: S_7  and  C_8 
REMARK    4  A    between atoms: C_11  and  N_12 
REMARK       I    between atoms: N_12  and  C_13 
REMARK    5  A    between atoms: C_13  and  C_14 
REMARK    6  A    between atoms: C_14  and  C_15 
ROOT
HETATM    1  C   UNL     1     -32.804  39.156 -49.416  1.00  0.00     0.005 A 
HETATM    2  C   UNL     1     -31.904  39.610 -50.382  1.00  0.00     0.021 A 
HETATM    3  C   UNL     1     -32.320  40.488 -51.391  1.00  0.00     0.031 A 
HETATM    4  C   UNL     1     -33.648  40.912 -51.457  1.00  0.00     0.034 A 
HETATM    5  C   UNL     1     -34.547  40.462 -50.482  1.00  0.00     0.031 A 
HETATM    6  C   UNL     1     -34.130  39.592 -49.467  1.00  0.00     0.021 A 
ENDROOT
BRANCH   4   7
HETATM    7  N   UNL     1     -34.161  41.731 -52.485  1.00  0.00    -0.327 N 
HETATM    8  C   UNL     1     -35.190  41.433 -53.363  1.00  0.00     0.227 C 
HETATM    9  O   UNL     1     -35.728  40.335 -53.504  1.00  0.00    -0.273 OA
HETATM   10  H   UNL     1     -33.711  42.631 -52.598  1.00  0.00     0.169 HD
BRANCH   8  11
HETATM   11  C   UNL     1     -35.636  42.631 -54.199  1.00  0.00     0.159 C 
BRANCH  11  12
HETATM   12  C   UNL     1     -36.088  42.219 -55.563  1.00  0.00     0.017 A 
HETATM   13  N   UNL     1     -37.400  41.899 -55.837  1.00  0.00    -0.369 N 
HETATM   14  H   UNL     1     -38.147  41.885 -55.149  1.00  0.00     0.165 HD
HETATM   15  C   UNL     1     -37.529  41.588 -57.164  1.00  0.00     0.088 A 
HETATM   16  C   UNL     1     -36.295  41.724 -57.757  1.00  0.00     0.019 A 
HETATM   17  C   UNL     1     -35.385  42.123 -56.749  1.00  0.00     0.027 A 
ENDBRANCH  11  12
ENDBRANCH   8  11
ENDBRANCH   4   7
BRANCH   1  18
HETATM   18  S   UNL     1     -32.284  37.957 -48.211  1.00  0.00    -0.091 SA
BRANCH  18  19
HETATM   19  C   UNL     1     -31.449  38.922 -46.965  1.00  0.00     0.005 A 
HETATM   20  C   UNL     1     -31.583  38.524 -45.631  1.00  0.00     0.021 A 
HETATM   21  C   UNL     1     -30.895  39.194 -44.614  1.00  0.00     0.038 A 
HETATM   22  C   UNL     1     -30.051  40.263 -44.915  1.00  0.00     0.068 A 
HETATM   23  C   UNL     1     -29.922  40.675 -46.240  1.00  0.00     0.038 A 
HETATM   24  C   UNL     1     -30.613  40.004 -47.259  1.00  0.00     0.021 A 
BRANCH  22  25
HETATM   25  O   UNL     1     -29.419  40.815 -43.836  1.00  0.00    -0.356 OA
HETATM   26  C   UNL     1     -28.592  39.950 -43.069  1.00  0.00     0.210 C 
ENDBRANCH  22  25
ENDBRANCH  18  19
ENDBRANCH   1  18
TORSDOF 6
ENDMDL
MODEL 7
REMARK VINA RESULT:      -6.7      1.873      2.263
REMARK  6 active torsions:
REMARK  status: ('A' for Active; 'I' for Inactive)
REMARK    1  A    between atoms: O_2  and  C_3 
REMARK    2  A    between atoms: C_6  and  S_7 
REMARK    3  A    between atoms: S_7  and  C_8 
REMARK    4  A    between atoms: C_11  and  N_12 
REMARK       I    between atoms: N_12  and  C_13 
REMARK    5  A    between atoms: C_13  and  C_14 
REMARK    6  A    between atoms: C_14  and  C_15 
ROOT
HETATM    1  C   UNL     1     -42.070  55.818 -52.860  1.00  0.00     0.005 A 
HETATM    2  C   UNL     1     -41.330  56.566 -53.778  1.00  0.00     0.021 A 
HETATM    3  C   UNL     1     -41.772  56.717 -55.098  1.00  0.00     0.031 A 
HETATM    4  C   UNL     1     -42.954  56.108 -55.523  1.00  0.00     0.034 A 
HETATM    5  C   UNL     1     -43.699  55.366 -54.598  1.00  0.00     0.031 A 
HETATM    6  C   UNL     1     -43.262  55.222 -53.275  1.00  0.00     0.021 A 
ENDROOT
BRANCH   4   7
HETATM    7  N   UNL     1     -43.425  56.148 -56.853  1.00  0.00    -0.327 N 
HETATM    8  C   UNL     1     -43.869  57.256 -57.554  1.00  0.00     0.227 C 
HETATM    9  O   UNL     1     -44.084  58.374 -57.085  1.00  0.00    -0.273 OA
HETATM   10  H   UNL     1     -43.454  55.260 -57.338  1.00  0.00     0.169 HD
BRANCH   8  11
HETATM   11  C   UNL     1     -44.095  56.981 -59.040  1.00  0.00     0.159 C 
BRANCH  11  12
HETATM   12  C   UNL     1     -43.465  58.028 -59.901  1.00  0.00     0.017 A 
HETATM   13  N   UNL     1     -44.163  59.129 -60.348  1.00  0.00    -0.369 N 
HETATM   14  H   UNL     1     -45.147  59.304 -60.162  1.00  0.00     0.165 HD
HETATM   15  C   UNL     1     -43.334  59.929 -61.088  1.00  0.00     0.088 A 
HETATM   16  C   UNL     1     -42.086  59.350 -61.106  1.00  0.00     0.019 A 
HETATM   17  C   UNL     1     -42.167  58.151 -60.357  1.00  0.00     0.027 A 
ENDBRANCH  11  12
ENDBRANCH   8  11
ENDBRANCH   4   7
BRANCH   1  18
HETATM   18  S   UNL     1     -41.436  55.545 -51.221  1.00  0.00    -0.091 SA
BRANCH  18  19
HETATM   19  C   UNL     1     -40.875  53.853 -51.244  1.00  0.00     0.005 A 
HETATM   20  C   UNL     1     -40.425  53.329 -52.460  1.00  0.00     0.021 A 
HETATM   21  C   UNL     1     -39.904  52.034 -52.530  1.00  0.00     0.038 A 
HETATM   22  C   UNL     1     -39.812  51.244 -51.384  1.00  0.00     0.068 A 
HETATM   23  C   UNL     1     -40.270  51.753 -50.170  1.00  0.00     0.038 A 
HETATM   24  C   UNL     1     -40.793  53.052 -50.101  1.00  0.00     0.021 A 
BRANCH  22  25
HETATM   25  O   UNL     1     -39.262  50.008 -51.583  1.00  0.00    -0.356 OA
HETATM   26  C   UNL     1     -39.519  49.389 -52.837  1.00  0.00     0.210 C 
ENDBRANCH  22  25
ENDBRANCH  18  19
ENDBRANCH   1  18
TORSDOF 6
ENDMDL
MODEL 8
REMARK VINA RESULT:      -6.6      4.865      9.482
REMARK  6 active torsions:
REMARK  status: ('A' for Active; 'I' for Inactive)
REMARK    1  A    between atoms: O_2  and  C_3 
REMARK    2  A    between atoms: C_6  and  S_7 
REMARK    3  A    between atoms: S_7  and  C_8 
REMARK    4  A    between atoms: C_11  and  N_12 
REMARK       I    between atoms: N_12  and  C_13 
REMARK    5  A    between atoms: C_13  and  C_14 
REMARK    6  A    between atoms: C_14  and  C_15 
ROOT
HETATM    1  C   UNL     1     -43.351  58.801 -59.935  1.00  0.00     0.005 A 
HETATM    2  C   UNL     1     -44.094  58.855 -58.754  1.00  0.00     0.021 A 
HETATM    3  C   UNL     1     -44.072  57.790 -57.846  1.00  0.00     0.031 A 
HETATM    4  C   UNL     1     -43.319  56.646 -58.114  1.00  0.00     0.034 A 
HETATM    5  C   UNL     1     -42.567  56.597 -59.295  1.00  0.00     0.031 A 
HETATM    6  C   UNL     1     -42.581  57.666 -60.199  1.00  0.00     0.021 A 
ENDROOT
BRANCH   4   7
HETATM    7  N   UNL     1     -43.307  55.501 -57.289  1.00  0.00    -0.327 N 
HETATM    8  C   UNL     1     -42.634  55.336 -56.090  1.00  0.00     0.227 C 
HETATM    9  O   UNL     1     -41.796  56.103 -55.616  1.00  0.00    -0.273 OA
HETATM   10  H   UNL     1     -43.841  54.709 -57.625  1.00  0.00     0.169 HD
BRANCH   8  11
HETATM   11  C   UNL     1     -43.019  54.055 -55.352  1.00  0.00     0.159 C 
BRANCH  11  12
HETATM   12  C   UNL     1     -41.999  53.676 -54.327  1.00  0.00     0.017 A 
HETATM   13  N   UNL     1     -41.989  54.225 -53.063  1.00  0.00    -0.369 N 
HETATM   14  H   UNL     1     -42.635  54.937 -52.737  1.00  0.00     0.165 HD
HETATM   15  C   UNL     1     -40.968  53.676 -52.333  1.00  0.00     0.088 A 
HETATM   16  C   UNL     1     -40.324  52.754 -53.125  1.00  0.00     0.019 A 
HETATM   17  C   UNL     1     -40.974  52.751 -54.383  1.00  0.00     0.027 A 
ENDBRANCH  11  12
ENDBRANCH   8  11
ENDBRANCH   4   7
BRANCH   1  18
HETATM   18  S   UNL     1     -43.478  60.114 -61.126  1.00  0.00    -0.091 SA
BRANCH  18  19
HETATM   19  C   UNL     1     -42.046  61.131 -60.812  1.00  0.00     0.005 A 
HETATM   20  C   UNL     1     -41.453  61.779 -61.900  1.00  0.00     0.021 A 
HETATM   21  C   UNL     1     -40.374  62.647 -61.711  1.00  0.00     0.038 A 
HETATM   22  C   UNL     1     -39.878  62.894 -60.430  1.00  0.00     0.068 A 
HETATM   23  C   UNL     1     -40.455  62.242 -59.341  1.00  0.00     0.038 A 
HETATM   24  C   UNL     1     -41.537  61.370 -59.532  1.00  0.00     0.021 A 
BRANCH  22  25
HETATM   25  O   UNL     1     -38.839  63.780 -60.379  1.00  0.00    -0.356 OA
HETATM   26  C   UNL     1     -38.720  64.557 -59.194  1.00  0.00     0.210 C 
ENDBRANCH  22  25
ENDBRANCH  18  19
ENDBRANCH   1  18
TORSDOF 6
ENDMDL
MODEL 9
REMARK VINA RESULT:      -6.6      4.696      6.969
REMARK  6 active torsions:
REMARK  status: ('A' for Active; 'I' for Inactive)
REMARK    1  A    between atoms: O_2  and  C_3 
REMARK    2  A    between atoms: C_6  and  S_7 
REMARK    3  A    between atoms: S_7  and  C_8 
REMARK    4  A    between atoms: C_11  and  N_12 
REMARK       I    between atoms: N_12  and  C_13 
REMARK    5  A    between atoms: C_13  and  C_14 
REMARK    6  A    between atoms: C_14  and  C_15 
ROOT
HETATM    1  C   UNL     1     -42.479  56.256 -53.537  1.00  0.00     0.005 A 
HETATM    2  C   UNL     1     -43.690  56.397 -52.857  1.00  0.00     0.021 A 
HETATM    3  C   UNL     1     -43.875  57.433 -51.933  1.00  0.00     0.031 A 
HETATM    4  C   UNL     1     -42.844  58.334 -51.664  1.00  0.00     0.034 A 
HETATM    5  C   UNL     1     -41.633  58.197 -52.354  1.00  0.00     0.031 A 
HETATM    6  C   UNL     1     -41.451  57.166 -53.286  1.00  0.00     0.021 A 
ENDROOT
BRANCH   4   7
HETATM    7  N   UNL     1     -42.925  59.355 -50.693  1.00  0.00    -0.327 N 
HETATM    8  C   UNL     1     -43.452  60.625 -50.850  1.00  0.00     0.227 C 
HETATM    9  O   UNL     1     -43.794  61.143 -51.913  1.00  0.00    -0.273 OA
HETATM   10  H   UNL     1     -42.538  59.130 -49.784  1.00  0.00     0.169 HD
BRANCH   8  11
HETATM   11  C   UNL     1     -43.582  61.392 -49.535  1.00  0.00     0.159 C 
BRANCH  11  12
HETATM   12  C   UNL     1     -44.925  62.034 -49.398  1.00  0.00     0.017 A 
HETATM   13  N   UNL     1     -45.468  62.822 -50.390  1.00  0.00    -0.369 N 
HETATM   14  H   UNL     1     -45.002  63.054 -51.263  1.00  0.00     0.165 HD
HETATM   15  C   UNL     1     -46.710  63.251 -50.007  1.00  0.00     0.088 A 
HETATM   16  C   UNL     1     -46.981  62.723 -48.766  1.00  0.00     0.019 A 
HETATM   17  C   UNL     1     -45.857  61.954 -48.380  1.00  0.00     0.027 A 
ENDBRANCH  11  12
ENDBRANCH   8  11
ENDBRANCH   4   7
BRANCH   1  18
HETATM   18  S   UNL     1     -42.226  54.871 -54.622  1.00  0.00    -0.091 SA
BRANCH  18  19
HETATM   19  C   UNL     1     -41.353  53.683 -53.619  1.00  0.00     0.005 A 
HETATM   20  C   UNL     1     -40.655  52.662 -54.273  1.00  0.00     0.021 A 
HETATM   21  C   UNL     1     -39.891  51.742 -53.548  1.00  0.00     0.038 A 
HETATM   22  C   UNL     1     -39.800  51.835 -52.159  1.00  0.00     0.068 A 
HETATM   23  C   UNL     1     -40.503  52.841 -51.498  1.00  0.00     0.038 A 
HETATM   24  C   UNL     1     -41.270  53.763 -52.226  1.00  0.00     0.021 A 
BRANCH  22  25
HETATM   25  O   UNL     1     -39.004  50.892 -51.573  1.00  0.00    -0.356 OA
HETATM   26  C   UNL     1     -39.662  49.862 -50.846  1.00  0.00     0.210 C 
ENDBRANCH  22  25
ENDBRANCH  18  19
ENDBRANCH   1  18
TORSDOF 6
ENDMDL
MODEL 10
REMARK VINA RESULT:      -6.4      3.604      4.906
REMARK  6 active torsions:
REMARK  status: ('A' for Active; 'I' for Inactive)
REMARK    1  A    between atoms: O_2  and  C_3 
REMARK    2  A    between atoms: C_6  and  S_7 
REMARK    3  A    between atoms: S_7  and  C_8 
REMARK    4  A    between atoms: C_11  and  N_12 
REMARK       I    between atoms: N_12  and  C_13 
REMARK    5  A    between atoms: C_13  and  C_14 
REMARK    6  A    between atoms: C_14  and  C_15 
ROOT
HETATM    1  C   UNL     1     -42.140  54.979 -55.123  1.00  0.00     0.005 A 
HETATM    2  C   UNL     1     -42.593  55.063 -56.440  1.00  0.00     0.021 A 
HETATM    3  C   UNL     1     -42.900  56.303 -57.013  1.00  0.00     0.031 A 
HETATM    4  C   UNL     1     -42.774  57.477 -56.269  1.00  0.00     0.034 A 
HETATM    5  C   UNL     1     -42.311  57.391 -54.950  1.00  0.00     0.031 A 
HETATM    6  C   UNL     1     -41.995  56.152 -54.379  1.00  0.00     0.021 A 
ENDROOT
BRANCH   4   7
HETATM    7  N   UNL     1     -43.137  58.754 -56.747  1.00  0.00    -0.327 N 
HETATM    8  C   UNL     1     -42.435  59.938 -56.599  1.00  0.00     0.227 C 
HETATM    9  O   UNL     1     -41.450  60.113 -55.881  1.00  0.00    -0.273 OA
HETATM   10  H   UNL     1     -44.019  58.806 -57.242  1.00  0.00     0.169 HD
BRANCH   8  11
HETATM   11  C   UNL     1     -43.003  61.086 -57.432  1.00  0.00     0.159 C 
BRANCH  11  12
HETATM   12  C   UNL     1     -41.974  61.672 -58.344  1.00  0.00     0.017 A 
HETATM   13  N   UNL     1     -40.867  62.342 -57.869  1.00  0.00    -0.369 N 
HETATM   14  H   UNL     1     -40.675  62.517 -56.887  1.00  0.00     0.165 HD
HETATM   15  C   UNL     1     -40.087  62.743 -58.920  1.00  0.00     0.088 A 
HETATM   16  C   UNL     1     -40.685  62.315 -60.083  1.00  0.00     0.019 A 
HETATM   17  C   UNL     1     -41.874  61.639 -59.722  1.00  0.00     0.027 A 
ENDBRANCH  11  12
ENDBRANCH   8  11
ENDBRANCH   4   7
BRANCH   1  18
HETATM   18  S   UNL     1     -41.862  53.388 -54.379  1.00  0.00    -0.091 SA
BRANCH  18  19
HETATM   19  C   UNL     1     -41.810  53.726 -52.628  1.00  0.00     0.005 A 
HETATM   20  C   UNL     1     -40.561  53.725 -51.999  1.00  0.00     0.021 A 
HETATM   21  C   UNL     1     -40.444  54.054 -50.645  1.00  0.00     0.038 A 
HETATM   22  C   UNL     1     -41.571  54.403 -49.901  1.00  0.00     0.068 A 
HETATM   23  C   UNL     1     -42.822  54.394 -50.517  1.00  0.00     0.038 A 
HETATM   24  C   UNL     1     -42.938  54.063 -51.874  1.00  0.00     0.021 A 
BRANCH  22  25
HETATM   25  O   UNL     1     -41.319  54.727 -48.597  1.00  0.00    -0.356 OA
HETATM   26  C   UNL     1     -40.312  53.972 -47.935  1.00  0.00     0.210 C 
ENDBRANCH  22  25
ENDBRANCH  18  19
ENDBRANCH   1  18
TORSDOF 6
ENDMDL
