MODEL 1
REMARK VINA RESULT:      -7.8      0.000      0.000
REMARK  2 active torsions:
REMARK  status: ('A' for Active; 'I' for Inactive)
REMARK    1  A    between atoms: C_2  and  C_3 
REMARK    2  A    between atoms: C_6  and  C_7 
ROOT
HETATM    1  C   UNL     1     -41.922  56.562 -52.822  1.00  0.00     0.197 C 
HETATM    2  N   UNL     1     -42.210  56.404 -54.264  1.00  0.00    -0.345 N 
HETATM    3  C   UNL     1     -41.831  55.292 -54.894  1.00  0.00     0.113 C 
HETATM    4  N   UNL     1     -42.079  55.118 -56.184  1.00  0.00    -0.376 N 
HETATM    5  H   UNL     1     -41.829  54.229 -56.600  1.00  0.00     0.161 HD
HETATM    6  C   UNL     1     -41.133  54.231 -54.145  1.00  0.00     0.029 A 
HETATM    7  C   UNL     1     -41.301  54.250 -52.755  1.00  0.00     0.025 A 
HETATM    8  N   UNL     1     -42.093  55.261 -52.200  1.00  0.00    -0.267 NA
HETATM    9  C   UNL     1     -40.350  53.224 -54.730  1.00  0.00     0.019 A 
HETATM   10  C   UNL     1     -39.798  52.215 -53.937  1.00  0.00     0.025 A 
HETATM   11  C   UNL     1     -40.037  52.203 -52.565  1.00  0.00     0.035 A 
HETATM   12 CL   UNL     1     -39.384  50.942 -51.597  1.00  0.00    -0.084 Cl
HETATM   13  C   UNL     1     -40.797  53.208 -51.973  1.00  0.00     0.048 A 
HETATM   14  C   UNL     1     -42.853  57.508 -55.000  1.00  0.00     0.128 C 
HETATM   15  C   UNL     1     -42.458  57.481 -56.461  1.00  0.00     0.039 C 
HETATM   16  C   UNL     1     -42.774  56.109 -56.999  1.00  0.00     0.123 C 
HETATM   17  H   UNL     1     -41.988  55.325 -51.188  1.00  0.00     0.130 HD
ENDROOT
BRANCH   1  18
HETATM   18  C   UNL     1     -42.855  57.544 -52.139  1.00  0.00    -0.021 A 
HETATM   19  C   UNL     1     -44.176  57.191 -51.810  1.00  0.00     0.011 A 
HETATM   20  C   UNL     1     -45.028  58.109 -51.190  1.00  0.00     0.007 A 
HETATM   21  C   UNL     1     -44.579  59.398 -50.884  1.00  0.00    -0.059 A 
HETATM   22  C   UNL     1     -43.262  59.752 -51.198  1.00  0.00     0.007 A 
HETATM   23  C   UNL     1     -42.409  58.837 -51.820  1.00  0.00     0.011 A 
BRANCH  21  24
HETATM   24  C   UNL     1     -45.491  60.379 -50.190  1.00  0.00     0.034 C 
HETATM   25  C   UNL     1     -44.739  61.239 -49.185  1.00  0.00     0.010 C 
ENDBRANCH  21  24
ENDBRANCH   1  18
TORSDOF 2
ENDMDL
MODEL 2
REMARK VINA RESULT:      -7.7      2.981      6.908
REMARK  2 active torsions:
REMARK  status: ('A' for Active; 'I' for Inactive)
REMARK    1  A    between atoms: C_2  and  C_3 
REMARK    2  A    between atoms: C_6  and  C_7 
ROOT
HETATM    1  C   UNL     1     -41.540  55.002 -54.207  1.00  0.00     0.197 C 
HETATM    2  N   UNL     1     -42.531  55.650 -53.320  1.00  0.00    -0.345 N 
HETATM    3  C   UNL     1     -43.470  56.436 -53.846  1.00  0.00     0.113 C 
HETATM    4  N   UNL     1     -44.376  57.027 -53.079  1.00  0.00    -0.376 N 
HETATM    5  H   UNL     1     -45.108  57.561 -53.533  1.00  0.00     0.161 HD
HETATM    6  C   UNL     1     -43.515  56.646 -55.304  1.00  0.00     0.029 A 
HETATM    7  C   UNL     1     -42.866  55.680 -56.082  1.00  0.00     0.025 A 
HETATM    8  N   UNL     1     -42.231  54.619 -55.425  1.00  0.00    -0.267 NA
HETATM    9  C   UNL     1     -44.165  57.716 -55.937  1.00  0.00     0.019 A 
HETATM   10  C   UNL     1     -44.218  57.779 -57.332  1.00  0.00     0.025 A 
HETATM   11  C   UNL     1     -43.634  56.770 -58.094  1.00  0.00     0.035 A 
HETATM   12 CL   UNL     1     -43.729  56.832 -59.809  1.00  0.00    -0.084 Cl
HETATM   13  C   UNL     1     -42.970  55.714 -57.475  1.00  0.00     0.048 A 
HETATM   14  C   UNL     1     -42.424  55.472 -51.861  1.00  0.00     0.128 C 
HETATM   15  C   UNL     1     -43.008  56.662 -51.131  1.00  0.00     0.039 C 
HETATM   16  C   UNL     1     -44.414  56.865 -51.629  1.00  0.00     0.123 C 
HETATM   17  H   UNL     1     -41.616  54.092 -56.043  1.00  0.00     0.130 HD
ENDROOT
BRANCH   1  18
HETATM   18  C   UNL     1     -40.927  53.757 -53.594  1.00  0.00    -0.021 A 
HETATM   19  C   UNL     1     -40.470  53.744 -52.264  1.00  0.00     0.011 A 
HETATM   20  C   UNL     1     -39.899  52.593 -51.716  1.00  0.00     0.007 A 
HETATM   21  C   UNL     1     -39.773  51.429 -52.482  1.00  0.00    -0.059 A 
HETATM   22  C   UNL     1     -40.237  51.432 -53.803  1.00  0.00     0.007 A 
HETATM   23  C   UNL     1     -40.806  52.582 -54.355  1.00  0.00     0.011 A 
BRANCH  21  24
HETATM   24  C   UNL     1     -39.181  50.179 -51.880  1.00  0.00     0.034 C 
HETATM   25  C   UNL     1     -39.824  49.835 -50.544  1.00  0.00     0.010 C 
ENDBRANCH  21  24
ENDBRANCH   1  18
TORSDOF 2
ENDMDL
MODEL 3
REMARK VINA RESULT:      -7.6      2.424      4.220
REMARK  2 active torsions:
REMARK  status: ('A' for Active; 'I' for Inactive)
REMARK    1  A    between atoms: C_2  and  C_3 
REMARK    2  A    between atoms: C_6  and  C_7 
ROOT
HETATM    1  C   UNL     1     -41.701  54.840 -52.518  1.00  0.00     0.197 C 
HETATM    2  N   UNL     1     -41.106  54.703 -51.170  1.00  0.00    -0.345 N 
HETATM    3  C   UNL     1     -40.414  53.606 -50.863  1.00  0.00     0.113 C 
HETATM    4  N   UNL     1     -39.865  53.457 -49.666  1.00  0.00    -0.376 N 
HETATM    5  H   UNL     1     -39.295  52.635 -49.504  1.00  0.00     0.161 HD
HETATM    6  C   UNL     1     -40.245  52.544 -51.871  1.00  0.00     0.029 A 
HETATM    7  C   UNL     1     -40.430  52.930 -53.204  1.00  0.00     0.025 A 
HETATM    8  N   UNL     1     -40.764  54.263 -53.466  1.00  0.00    -0.267 NA
HETATM    9  C   UNL     1     -39.902  51.215 -51.580  1.00  0.00     0.019 A 
HETATM   10  C   UNL     1     -39.685  50.303 -52.616  1.00  0.00     0.025 A 
HETATM   11  C   UNL     1     -39.797  50.720 -53.940  1.00  0.00     0.035 A 
HETATM   12 CL   UNL     1     -39.496  49.605 -55.213  1.00  0.00    -0.084 Cl
HETATM   13  C   UNL     1     -40.155  52.032 -54.238  1.00  0.00     0.048 A 
HETATM   14  C   UNL     1     -41.345  55.753 -50.163  1.00  0.00     0.128 C 
HETATM   15  C   UNL     1     -41.288  55.179 -48.764  1.00  0.00     0.039 C 
HETATM   16  C   UNL     1     -39.972  54.462 -48.614  1.00  0.00     0.123 C 
HETATM   17  H   UNL     1     -41.083  54.402 -54.424  1.00  0.00     0.130 HD
ENDROOT
BRANCH   1  18
HETATM   18  C   UNL     1     -41.948  56.284 -52.909  1.00  0.00    -0.021 A 
HETATM   19  C   UNL     1     -43.231  56.856 -52.828  1.00  0.00     0.011 A 
HETATM   20  C   UNL     1     -43.446  58.184 -53.202  1.00  0.00     0.007 A 
HETATM   21  C   UNL     1     -42.386  58.972 -53.662  1.00  0.00    -0.059 A 
HETATM   22  C   UNL     1     -41.104  58.414 -53.735  1.00  0.00     0.007 A 
HETATM   23  C   UNL     1     -40.887  57.084 -53.364  1.00  0.00     0.011 A 
BRANCH  21  24
HETATM   24  C   UNL     1     -42.614  60.416 -54.039  1.00  0.00     0.034 C 
HETATM   25  C   UNL     1     -42.921  61.276 -52.823  1.00  0.00     0.010 C 
ENDBRANCH  21  24
ENDBRANCH   1  18
TORSDOF 2
ENDMDL
MODEL 4
REMARK VINA RESULT:      -7.6      2.178      4.419
REMARK  2 active torsions:
REMARK  status: ('A' for Active; 'I' for Inactive)
REMARK    1  A    between atoms: C_2  and  C_3 
REMARK    2  A    between atoms: C_6  and  C_7 
ROOT
HETATM    1  C   UNL     1     -42.858  54.951 -53.831  1.00  0.00     0.197 C 
HETATM    2  N   UNL     1     -42.257  55.546 -52.617  1.00  0.00    -0.345 N 
HETATM    3  C   UNL     1     -41.294  54.891 -51.970  1.00  0.00     0.113 C 
HETATM    4  N   UNL     1     -40.733  55.400 -50.882  1.00  0.00    -0.376 N 
HETATM    5  H   UNL     1     -39.961  54.894 -50.465  1.00  0.00     0.161 HD
HETATM    6  C   UNL     1     -40.834  53.585 -52.473  1.00  0.00     0.029 A 
HETATM    7  C   UNL     1     -41.109  53.316 -53.820  1.00  0.00     0.025 A 
HETATM    8  N   UNL     1     -41.793  54.286 -54.561  1.00  0.00    -0.267 NA
HETATM    9  C   UNL     1     -40.143  52.633 -51.709  1.00  0.00     0.019 A 
HETATM   10  C   UNL     1     -39.678  51.457 -52.304  1.00  0.00     0.025 A 
HETATM   11  C   UNL     1     -39.891  51.238 -53.663  1.00  0.00     0.035 A 
HETATM   12 CL   UNL     1     -39.289  49.807 -54.401  1.00  0.00    -0.084 Cl
HETATM   13  C   UNL     1     -40.592  52.168 -54.426  1.00  0.00     0.048 A 
HETATM   14  C   UNL     1     -42.781  56.825 -52.101  1.00  0.00     0.128 C 
HETATM   15  C   UNL     1     -42.578  56.923 -50.605  1.00  0.00     0.039 C 
HETATM   16  C   UNL     1     -41.117  56.691 -50.322  1.00  0.00     0.123 C 
HETATM   17  H   UNL     1     -42.132  53.926 -55.452  1.00  0.00     0.130 HD
ENDROOT
BRANCH   1  18
HETATM   18  C   UNL     1     -43.488  55.986 -54.744  1.00  0.00    -0.021 A 
HETATM   19  C   UNL     1     -44.671  56.657 -54.384  1.00  0.00     0.011 A 
HETATM   20  C   UNL     1     -45.246  57.600 -55.239  1.00  0.00     0.007 A 
HETATM   21  C   UNL     1     -44.652  57.896 -56.471  1.00  0.00    -0.059 A 
HETATM   22  C   UNL     1     -43.468  57.241 -56.830  1.00  0.00     0.007 A 
HETATM   23  C   UNL     1     -42.892  56.296 -55.978  1.00  0.00     0.011 A 
BRANCH  21  24
HETATM   24  C   UNL     1     -45.259  58.935 -57.381  1.00  0.00     0.034 C 
HETATM   25  C   UNL     1     -46.678  58.569 -57.791  1.00  0.00     0.010 C 
ENDBRANCH  21  24
ENDBRANCH   1  18
TORSDOF 2
ENDMDL
MODEL 5
REMARK VINA RESULT:      -7.6      2.726      6.714
REMARK  2 active torsions:
REMARK  status: ('A' for Active; 'I' for Inactive)
REMARK    1  A    between atoms: C_2  and  C_3 
REMARK    2  A    between atoms: C_6  and  C_7 
ROOT
HETATM    1  C   UNL     1     -43.214  55.529 -53.722  1.00  0.00     0.197 C 
HETATM    2  N   UNL     1     -43.070  56.331 -54.957  1.00  0.00    -0.345 N 
HETATM    3  C   UNL     1     -43.525  57.583 -54.986  1.00  0.00     0.113 C 
HETATM    4  N   UNL     1     -43.407  58.329 -56.076  1.00  0.00    -0.376 N 
HETATM    5  H   UNL     1     -43.709  59.294 -56.025  1.00  0.00     0.161 HD
HETATM    6  C   UNL     1     -44.160  58.157 -53.786  1.00  0.00     0.029 A 
HETATM    7  C   UNL     1     -43.857  57.528 -52.573  1.00  0.00     0.025 A 
HETATM    8  N   UNL     1     -43.000  56.422 -52.598  1.00  0.00    -0.267 NA
HETATM    9  C   UNL     1     -45.011  59.273 -53.790  1.00  0.00     0.019 A 
HETATM   10  C   UNL     1     -45.497  59.789 -52.586  1.00  0.00     0.025 A 
HETATM   11  C   UNL     1     -45.125  59.200 -51.380  1.00  0.00     0.035 A 
HETATM   12 CL   UNL     1     -45.697  59.856 -49.898  1.00  0.00    -0.084 Cl
HETATM   13  C   UNL     1     -44.296  58.081 -51.367  1.00  0.00     0.048 A 
HETATM   14  C   UNL     1     -42.487  55.710 -56.161  1.00  0.00     0.128 C 
HETATM   15  C   UNL     1     -43.023  56.364 -57.416  1.00  0.00     0.039 C 
HETATM   16  C   UNL     1     -42.781  57.846 -57.302  1.00  0.00     0.123 C 
HETATM   17  H   UNL     1     -43.005  55.907 -51.718  1.00  0.00     0.130 HD
ENDROOT
BRANCH   1  18
HETATM   18  C   UNL     1     -42.205  54.399 -53.633  1.00  0.00    -0.021 A 
HETATM   19  C   UNL     1     -41.219  54.376 -52.629  1.00  0.00     0.011 A 
HETATM   20  C   UNL     1     -40.290  53.335 -52.565  1.00  0.00     0.007 A 
HETATM   21  C   UNL     1     -40.325  52.293 -53.499  1.00  0.00    -0.059 A 
HETATM   22  C   UNL     1     -41.311  52.305 -54.493  1.00  0.00     0.007 A 
HETATM   23  C   UNL     1     -42.240  53.345 -54.561  1.00  0.00     0.011 A 
BRANCH  21  24
HETATM   24  C   UNL     1     -39.338  51.155 -53.411  1.00  0.00     0.034 C 
HETATM   25  C   UNL     1     -39.694  50.023 -54.363  1.00  0.00     0.010 C 
ENDBRANCH  21  24
ENDBRANCH   1  18
TORSDOF 2
ENDMDL
MODEL 6
REMARK VINA RESULT:      -7.4      2.104      5.610
REMARK  2 active torsions:
REMARK  status: ('A' for Active; 'I' for Inactive)
REMARK    1  A    between atoms: C_2  and  C_3 
REMARK    2  A    between atoms: C_6  and  C_7 
ROOT
HETATM    1  C   UNL     1     -42.809  55.745 -56.125  1.00  0.00     0.197 C 
HETATM    2  N   UNL     1     -43.176  56.476 -54.892  1.00  0.00    -0.345 N 
HETATM    3  C   UNL     1     -42.766  56.018 -53.709  1.00  0.00     0.113 C 
HETATM    4  N   UNL     1     -43.074  56.654 -52.587  1.00  0.00    -0.376 N 
HETATM    5  H   UNL     1     -42.684  56.302 -51.721  1.00  0.00     0.161 HD
HETATM    6  C   UNL     1     -41.949  54.794 -53.643  1.00  0.00     0.029 A 
HETATM    7  C   UNL     1     -41.285  54.436 -54.823  1.00  0.00     0.025 A 
HETATM    8  N   UNL     1     -41.456  55.248 -55.950  1.00  0.00    -0.267 NA
HETATM    9  C   UNL     1     -41.789  54.002 -52.496  1.00  0.00     0.019 A 
HETATM   10  C   UNL     1     -40.924  52.905 -52.515  1.00  0.00     0.025 A 
HETATM   11  C   UNL     1     -40.211  52.605 -53.673  1.00  0.00     0.035 A 
HETATM   12 CL   UNL     1     -39.123  51.275 -53.686  1.00  0.00    -0.084 Cl
HETATM   13  C   UNL     1     -40.377  53.374 -54.822  1.00  0.00     0.048 A 
HETATM   14  C   UNL     1     -44.047  57.662 -54.984  1.00  0.00     0.128 C 
HETATM   15  C   UNL     1     -44.841  57.845 -53.710  1.00  0.00     0.039 C 
HETATM   16  C   UNL     1     -43.867  57.878 -52.561  1.00  0.00     0.123 C 
HETATM   17  H   UNL     1     -41.117  54.805 -56.802  1.00  0.00     0.130 HD
ENDROOT
BRANCH   1  18
HETATM   18  C   UNL     1     -42.838  56.624 -57.361  1.00  0.00    -0.021 A 
HETATM   19  C   UNL     1     -42.083  57.809 -57.435  1.00  0.00     0.011 A 
HETATM   20  C   UNL     1     -42.127  58.615 -58.575  1.00  0.00     0.007 A 
HETATM   21  C   UNL     1     -42.923  58.254 -59.668  1.00  0.00    -0.059 A 
HETATM   22  C   UNL     1     -43.667  57.071 -59.606  1.00  0.00     0.007 A 
HETATM   23  C   UNL     1     -43.627  56.264 -58.466  1.00  0.00     0.011 A 
BRANCH  21  24
HETATM   24  C   UNL     1     -42.947  59.111 -60.910  1.00  0.00     0.034 C 
HETATM   25  C   UNL     1     -41.951  60.258 -60.826  1.00  0.00     0.010 C 
ENDBRANCH  21  24
ENDBRANCH   1  18
TORSDOF 2
ENDMDL
MODEL 7
REMARK VINA RESULT:      -7.3     15.036     17.083
REMARK  2 active torsions:
REMARK  status: ('A' for Active; 'I' for Inactive)
REMARK    1  A    between atoms: C_2  and  C_3 
REMARK    2  A    between atoms: C_6  and  C_7 
ROOT
HETATM    1  C   UNL     1     -37.060  40.385 -55.013  1.00  0.00     0.197 C 
HETATM    2  N   UNL     1     -38.163  40.922 -54.186  1.00  0.00    -0.345 N 
HETATM    3  C   UNL     1     -37.983  41.089 -52.876  1.00  0.00     0.113 C 
HETATM    4  N   UNL     1     -38.951  41.573 -52.109  1.00  0.00    -0.376 N 
HETATM    5  H   UNL     1     -38.742  41.742 -51.133  1.00  0.00     0.161 HD
HETATM    6  C   UNL     1     -36.687  40.742 -52.267  1.00  0.00     0.029 A 
HETATM    7  C   UNL     1     -35.596  40.682 -53.142  1.00  0.00     0.025 A 
HETATM    8  N   UNL     1     -35.821  40.941 -54.499  1.00  0.00    -0.267 NA
HETATM    9  C   UNL     1     -36.488  40.494 -50.900  1.00  0.00     0.019 A 
HETATM   10  C   UNL     1     -35.202  40.253 -50.410  1.00  0.00     0.025 A 
HETATM   11  C   UNL     1     -34.114  40.273 -51.280  1.00  0.00     0.035 A 
HETATM   12 CL   UNL     1     -32.529  40.009 -50.671  1.00  0.00    -0.084 Cl
HETATM   13  C   UNL     1     -34.304  40.499 -52.641  1.00  0.00     0.048 A 
HETATM   14  C   UNL     1     -39.469  41.202 -54.812  1.00  0.00     0.128 C 
HETATM   15  C   UNL     1     -40.587  41.068 -53.803  1.00  0.00     0.039 C 
HETATM   16  C   UNL     1     -40.259  41.955 -52.630  1.00  0.00     0.123 C 
HETATM   17  H   UNL     1     -35.031  40.671 -55.082  1.00  0.00     0.130 HD
ENDROOT
BRANCH   1  18
HETATM   18  C   UNL     1     -37.182  40.765 -56.477  1.00  0.00    -0.021 A 
HETATM   19  C   UNL     1     -36.641  41.967 -56.969  1.00  0.00     0.011 A 
HETATM   20  C   UNL     1     -36.770  42.309 -58.317  1.00  0.00     0.007 A 
HETATM   21  C   UNL     1     -37.439  41.459 -59.204  1.00  0.00    -0.059 A 
HETATM   22  C   UNL     1     -37.969  40.256 -58.723  1.00  0.00     0.007 A 
HETATM   23  C   UNL     1     -37.844  39.912 -57.375  1.00  0.00     0.011 A 
BRANCH  21  24
HETATM   24  C   UNL     1     -37.553  41.817 -60.665  1.00  0.00     0.034 C 
HETATM   25  C   UNL     1     -37.438  43.317 -60.891  1.00  0.00     0.010 C 
ENDBRANCH  21  24
ENDBRANCH   1  18
TORSDOF 2
ENDMDL
MODEL 8
REMARK VINA RESULT:      -7.3      3.537      6.586
REMARK  2 active torsions:
REMARK  status: ('A' for Active; 'I' for Inactive)
REMARK    1  A    between atoms: C_2  and  C_3 
REMARK    2  A    between atoms: C_6  and  C_7 
ROOT
HETATM    1  C   UNL     1     -41.618  55.580 -55.858  1.00  0.00     0.197 C 
HETATM    2  N   UNL     1     -42.052  56.895 -55.338  1.00  0.00    -0.345 N 
HETATM    3  C   UNL     1     -42.876  57.651 -56.064  1.00  0.00     0.113 C 
HETATM    4  N   UNL     1     -43.287  58.832 -55.623  1.00  0.00    -0.376 N 
HETATM    5  H   UNL     1     -43.964  59.338 -56.182  1.00  0.00     0.161 HD
HETATM    6  C   UNL     1     -43.349  57.166 -57.373  1.00  0.00     0.029 A 
HETATM    7  C   UNL     1     -43.271  55.784 -57.578  1.00  0.00     0.025 A 
HETATM    8  N   UNL     1     -42.751  54.991 -56.549  1.00  0.00    -0.267 NA
HETATM    9  C   UNL     1     -43.873  57.985 -58.385  1.00  0.00     0.019 A 
HETATM   10  C   UNL     1     -44.370  57.416 -59.560  1.00  0.00     0.025 A 
HETATM   11  C   UNL     1     -44.357  56.032 -59.720  1.00  0.00     0.035 A 
HETATM   12 CL   UNL     1     -45.000  55.332 -61.151  1.00  0.00    -0.084 Cl
HETATM   13  C   UNL     1     -43.822  55.213 -58.728  1.00  0.00     0.048 A 
HETATM   14  C   UNL     1     -41.514  57.381 -54.054  1.00  0.00     0.128 C 
HETATM   15  C   UNL     1     -41.491  58.894 -54.020  1.00  0.00     0.039 C 
HETATM   16  C   UNL     1     -42.880  59.383 -54.335  1.00  0.00     0.123 C 
HETATM   17  H   UNL     1     -42.536  54.044 -56.859  1.00  0.00     0.130 HD
ENDROOT
BRANCH   1  18
HETATM   18  C   UNL     1     -41.181  54.628 -54.760  1.00  0.00    -0.021 A 
HETATM   19  C   UNL     1     -40.158  53.686 -54.973  1.00  0.00     0.011 A 
HETATM   20  C   UNL     1     -39.772  52.808 -53.957  1.00  0.00     0.007 A 
HETATM   21  C   UNL     1     -40.397  52.853 -52.706  1.00  0.00    -0.059 A 
HETATM   22  C   UNL     1     -41.408  53.796 -52.484  1.00  0.00     0.007 A 
HETATM   23  C   UNL     1     -41.797  54.673 -53.499  1.00  0.00     0.011 A 
BRANCH  21  24
HETATM   24  C   UNL     1     -39.961  51.923 -51.600  1.00  0.00     0.034 C 
HETATM   25  C   UNL     1     -40.448  52.396 -50.239  1.00  0.00     0.010 C 
ENDBRANCH  21  24
ENDBRANCH   1  18
TORSDOF 2
ENDMDL
MODEL 9
REMARK VINA RESULT:      -7.1      2.009      4.790
REMARK  2 active torsions:
REMARK  status: ('A' for Active; 'I' for Inactive)
REMARK    1  A    between atoms: C_2  and  C_3 
REMARK    2  A    between atoms: C_6  and  C_7 
ROOT
HETATM    1  C   UNL     1     -43.054  56.399 -52.941  1.00  0.00     0.197 C 
HETATM    2  N   UNL     1     -42.472  57.449 -52.076  1.00  0.00    -0.345 N 
HETATM    3  C   UNL     1     -41.619  57.109 -51.110  1.00  0.00     0.113 C 
HETATM    4  N   UNL     1     -41.077  58.027 -50.322  1.00  0.00    -0.376 N 
HETATM    5  H   UNL     1     -40.385  57.724 -49.647  1.00  0.00     0.161 HD
HETATM    6  C   UNL     1     -41.260  55.693 -50.919  1.00  0.00     0.029 A 
HETATM    7  C   UNL     1     -41.477  54.852 -52.017  1.00  0.00     0.025 A 
HETATM    8  N   UNL     1     -42.017  55.411 -53.181  1.00  0.00    -0.267 NA
HETATM    9  C   UNL     1     -40.713  55.160 -49.741  1.00  0.00     0.019 A 
HETATM   10  C   UNL     1     -40.330  53.817 -49.690  1.00  0.00     0.025 A 
HETATM   11  C   UNL     1     -40.480  53.010 -50.815  1.00  0.00     0.035 A 
HETATM   12 CL   UNL     1     -39.978  51.368 -50.761  1.00  0.00    -0.084 Cl
HETATM   13  C   UNL     1     -41.040  53.525 -51.982  1.00  0.00     0.048 A 
HETATM   14  C   UNL     1     -42.898  58.850 -52.250  1.00  0.00     0.128 C 
HETATM   15  C   UNL     1     -42.778  59.613 -50.950  1.00  0.00     0.039 C 
HETATM   16  C   UNL     1     -41.366  59.451 -50.449  1.00  0.00     0.123 C 
HETATM   17  H   UNL     1     -42.335  54.702 -53.840  1.00  0.00     0.130 HD
ENDROOT
BRANCH   1  18
HETATM   18  C   UNL     1     -43.523  56.933 -54.281  1.00  0.00    -0.021 A 
HETATM   19  C   UNL     1     -44.847  57.367 -54.474  1.00  0.00     0.011 A 
HETATM   20  C   UNL     1     -45.268  57.846 -55.716  1.00  0.00     0.007 A 
HETATM   21  C   UNL     1     -44.377  57.906 -56.793  1.00  0.00    -0.059 A 
HETATM   22  C   UNL     1     -43.054  57.487 -56.605  1.00  0.00     0.007 A 
HETATM   23  C   UNL     1     -42.631  57.005 -55.364  1.00  0.00     0.011 A 
BRANCH  21  24
HETATM   24  C   UNL     1     -44.826  58.451 -58.127  1.00  0.00     0.034 C 
HETATM   25  C   UNL     1     -46.177  57.889 -58.541  1.00  0.00     0.010 C 
ENDBRANCH  21  24
ENDBRANCH   1  18
TORSDOF 2
ENDMDL
MODEL 10
REMARK VINA RESULT:      -7.1     16.754     18.909
REMARK  2 active torsions:
REMARK  status: ('A' for Active; 'I' for Inactive)
REMARK    1  A    between atoms: C_2  and  C_3 
REMARK    2  A    between atoms: C_6  and  C_7 
ROOT
HETATM    1  C   UNL     1     -34.096  40.580 -54.863  1.00  0.00     0.197 C 
HETATM    2  N   UNL     1     -32.814  39.930 -55.213  1.00  0.00    -0.345 N 
HETATM    3  C   UNL     1     -32.126  39.282 -54.274  1.00  0.00     0.113 C 
HETATM    4  N   UNL     1     -30.976  38.685 -54.557  1.00  0.00    -0.376 N 
HETATM    5  H   UNL     1     -30.525  38.151 -53.824  1.00  0.00     0.161 HD
HETATM    6  C   UNL     1     -32.652  39.215 -52.899  1.00  0.00     0.029 A 
HETATM    7  C   UNL     1     -34.026  39.442 -52.757  1.00  0.00     0.025 A 
HETATM    8  N   UNL     1     -34.772  39.720 -53.909  1.00  0.00    -0.267 NA
HETATM    9  C   UNL     1     -31.881  38.928 -51.762  1.00  0.00     0.019 A 
HETATM   10  C   UNL     1     -32.493  38.806 -50.512  1.00  0.00     0.025 A 
HETATM   11  C   UNL     1     -33.872  38.959 -50.397  1.00  0.00     0.035 A 
HETATM   12 CL   UNL     1     -34.627  38.777 -48.864  1.00  0.00    -0.084 Cl
HETATM   13  C   UNL     1     -34.643  39.263 -51.517  1.00  0.00     0.048 A 
HETATM   14  C   UNL     1     -32.281  40.067 -56.582  1.00  0.00     0.128 C 
HETATM   15  C   UNL     1     -30.771  39.974 -56.582  1.00  0.00     0.039 C 
HETATM   16  C   UNL     1     -30.388  38.690 -55.893  1.00  0.00     0.123 C 
HETATM   17  H   UNL     1     -35.702  40.076 -53.692  1.00  0.00     0.130 HD
ENDROOT
BRANCH   1  18
HETATM   18  C   UNL     1     -35.006  40.770 -56.062  1.00  0.00    -0.021 A 
HETATM   19  C   UNL     1     -35.642  39.678 -56.679  1.00  0.00     0.011 A 
HETATM   20  C   UNL     1     -36.469  39.866 -57.789  1.00  0.00     0.007 A 
HETATM   21  C   UNL     1     -36.683  41.149 -58.305  1.00  0.00    -0.059 A 
HETATM   22  C   UNL     1     -36.062  42.242 -57.688  1.00  0.00     0.007 A 
HETATM   23  C   UNL     1     -35.232  42.056 -56.580  1.00  0.00     0.011 A 
BRANCH  21  24
HETATM   24  C   UNL     1     -37.599  41.355 -59.486  1.00  0.00     0.034 C 
HETATM   25  C   UNL     1     -37.344  42.687 -60.175  1.00  0.00     0.010 C 
ENDBRANCH  21  24
ENDBRANCH   1  18
TORSDOF 2
ENDMDL
