MODEL 1
REMARK VINA RESULT:      -8.4      0.000      0.000
REMARK  5 active torsions:
REMARK  status: ('A' for Active; 'I' for Inactive)
REMARK    1  A    between atoms: C_2  and  C_3 
REMARK    2  A    between atoms: C_2  and  C_19 
REMARK       I    between atoms: C_3  and  N_4 
REMARK    3  A    between atoms: N_4  and  C_5 
REMARK    4  A    between atoms: C_8  and  O_9 
REMARK    5  A    between atoms: O_9  and  C_10 
ROOT
HETATM    1  C   UNL     1     -41.676  55.352 -53.632  1.00  0.00     0.234 C 
HETATM    2  N   UNL     1     -42.887  55.278 -54.303  1.00  0.00    -0.325 N 
HETATM    3  O   UNL     1     -40.729  56.052 -53.981  1.00  0.00    -0.272 OA
HETATM    4  H   UNL     1     -43.604  54.688 -53.898  1.00  0.00     0.169 HD
ENDROOT
BRANCH   2   5
HETATM    5  C   UNL     1     -43.202  55.886 -55.536  1.00  0.00     0.052 A 
HETATM    6  C   UNL     1     -43.840  57.115 -55.690  1.00  0.00     0.149 A 
HETATM    7  N   UNL     1     -44.080  57.707 -56.889  1.00  0.00    -0.235 NA
HETATM    8  C   UNL     1     -43.643  57.061 -57.988  1.00  0.00     0.169 A 
HETATM    9  C   UNL     1     -43.040  55.814 -57.946  1.00  0.00     0.060 A 
HETATM   10  C   UNL     1     -42.822  55.219 -56.703  1.00  0.00     0.035 A 
BRANCH   8  11
HETATM   11  O   UNL     1     -43.833  57.603 -59.252  1.00  0.00    -0.291 OA
BRANCH  11  12
HETATM   12  C   UNL     1     -45.053  57.498 -59.871  1.00  0.00     0.095 A 
HETATM   13  C   UNL     1     -45.672  58.692 -60.222  1.00  0.00     0.153 A 
HETATM   14  N   UNL     1     -46.901  58.784 -60.789  1.00  0.00    -0.270 NA
HETATM   15  C   UNL     1     -47.543  57.620 -61.018  1.00  0.00     0.116 A 
HETATM   16  C   UNL     1     -47.023  56.378 -60.690  1.00  0.00     0.022 A 
HETATM   17  C   UNL     1     -45.764  56.321 -60.092  1.00  0.00     0.040 A 
ENDBRANCH  11  12
ENDBRANCH   8  11
ENDBRANCH   2   5
BRANCH   1  18
HETATM   18  C   UNL     1     -41.591  54.432 -52.377  1.00  0.00     0.061 C 
HETATM   19  C   UNL     1     -40.937  55.250 -51.238  1.00  0.00     0.030 C 
HETATM   20  C   UNL     1     -43.021  54.082 -51.903  1.00  0.00     0.030 C 
BRANCH  18  21
HETATM   21  C   UNL     1     -40.862  53.120 -52.718  1.00  0.00    -0.041 A 
HETATM   22  C   UNL     1     -41.014  52.557 -54.004  1.00  0.00     0.011 A 
HETATM   23  C   UNL     1     -40.400  51.350 -54.344  1.00  0.00     0.043 A 
HETATM   24  C   UNL     1     -39.623  50.691 -53.404  1.00  0.00     0.116 A 
HETATM   25  F   UNL     1     -39.038  49.530 -53.726  1.00  0.00    -0.206 F 
HETATM   26  C   UNL     1     -39.450  51.218 -52.133  1.00  0.00     0.043 A 
HETATM   27  C   UNL     1     -40.067  52.424 -51.788  1.00  0.00     0.011 A 
ENDBRANCH  18  21
ENDBRANCH   1  18
TORSDOF 5
ENDMDL
MODEL 2
REMARK VINA RESULT:      -7.9      1.787      2.255
REMARK  5 active torsions:
REMARK  status: ('A' for Active; 'I' for Inactive)
REMARK    1  A    between atoms: C_2  and  C_3 
REMARK    2  A    between atoms: C_2  and  C_19 
REMARK       I    between atoms: C_3  and  N_4 
REMARK    3  A    between atoms: N_4  and  C_5 
REMARK    4  A    between atoms: C_8  and  O_9 
REMARK    5  A    between atoms: O_9  and  C_10 
ROOT
HETATM    1  C   UNL     1     -42.865  54.858 -53.941  1.00  0.00     0.234 C 
HETATM    2  N   UNL     1     -42.257  55.673 -54.884  1.00  0.00    -0.325 N 
HETATM    3  O   UNL     1     -44.009  54.421 -54.034  1.00  0.00    -0.272 OA
HETATM    4  H   UNL     1     -41.296  55.943 -54.709  1.00  0.00     0.169 HD
ENDROOT
BRANCH   2   5
HETATM    5  C   UNL     1     -42.863  56.227 -56.031  1.00  0.00     0.052 A 
HETATM    6  C   UNL     1     -43.427  57.497 -56.111  1.00  0.00     0.149 A 
HETATM    7  N   UNL     1     -43.954  58.030 -57.245  1.00  0.00    -0.235 NA
HETATM    8  C   UNL     1     -43.891  57.277 -58.360  1.00  0.00     0.169 A 
HETATM    9  C   UNL     1     -43.392  55.984 -58.376  1.00  0.00     0.060 A 
HETATM   10  C   UNL     1     -42.876  55.453 -57.194  1.00  0.00     0.035 A 
BRANCH   8  11
HETATM   11  O   UNL     1     -44.392  57.751 -59.565  1.00  0.00    -0.291 OA
BRANCH  11  12
HETATM   12  C   UNL     1     -43.715  58.722 -60.259  1.00  0.00     0.095 A 
HETATM   13  C   UNL     1     -44.494  59.653 -60.936  1.00  0.00     0.153 A 
HETATM   14  N   UNL     1     -44.001  60.647 -61.717  1.00  0.00    -0.270 NA
HETATM   15  C   UNL     1     -42.658  60.712 -61.826  1.00  0.00     0.116 A 
HETATM   16  C   UNL     1     -41.793  59.823 -61.208  1.00  0.00     0.022 A 
HETATM   17  C   UNL     1     -42.335  58.802 -60.426  1.00  0.00     0.040 A 
ENDBRANCH  11  12
ENDBRANCH   8  11
ENDBRANCH   2   5
BRANCH   1  18
HETATM   18  C   UNL     1     -41.973  54.549 -52.701  1.00  0.00     0.061 C 
HETATM   19  C   UNL     1     -41.165  55.828 -52.374  1.00  0.00     0.030 C 
HETATM   20  C   UNL     1     -42.877  54.274 -51.477  1.00  0.00     0.030 C 
BRANCH  18  21
HETATM   21  C   UNL     1     -41.111  53.299 -52.955  1.00  0.00    -0.041 A 
HETATM   22  C   UNL     1     -41.211  52.630 -54.194  1.00  0.00     0.011 A 
HETATM   23  C   UNL     1     -40.475  51.472 -54.453  1.00  0.00     0.043 A 
HETATM   24  C   UNL     1     -39.628  50.970 -53.478  1.00  0.00     0.116 A 
HETATM   25  F   UNL     1     -38.925  49.856 -53.721  1.00  0.00    -0.206 F 
HETATM   26  C   UNL     1     -39.503  51.605 -52.251  1.00  0.00     0.043 A 
HETATM   27  C   UNL     1     -40.242  52.762 -51.987  1.00  0.00     0.011 A 
ENDBRANCH  18  21
ENDBRANCH   1  18
TORSDOF 5
ENDMDL
MODEL 3
REMARK VINA RESULT:      -7.7      4.626      6.786
REMARK  5 active torsions:
REMARK  status: ('A' for Active; 'I' for Inactive)
REMARK    1  A    between atoms: C_2  and  C_3 
REMARK    2  A    between atoms: C_2  and  C_19 
REMARK       I    between atoms: C_3  and  N_4 
REMARK    3  A    between atoms: N_4  and  C_5 
REMARK    4  A    between atoms: C_8  and  O_9 
REMARK    5  A    between atoms: O_9  and  C_10 
ROOT
HETATM    1  C   UNL     1     -41.873  55.246 -53.295  1.00  0.00     0.234 C 
HETATM    2  N   UNL     1     -41.097  56.394 -53.249  1.00  0.00    -0.325 N 
HETATM    3  O   UNL     1     -42.940  55.104 -52.704  1.00  0.00    -0.272 OA
HETATM    4  H   UNL     1     -40.251  56.402 -53.807  1.00  0.00     0.169 HD
ENDROOT
BRANCH   2   5
HETATM    5  C   UNL     1     -41.325  57.531 -52.446  1.00  0.00     0.052 A 
HETATM    6  C   UNL     1     -40.991  57.647 -51.099  1.00  0.00     0.149 A 
HETATM    7  N   UNL     1     -41.169  58.774 -50.361  1.00  0.00    -0.235 NA
HETATM    8  C   UNL     1     -41.678  59.847 -50.998  1.00  0.00     0.169 A 
HETATM    9  C   UNL     1     -42.086  59.821 -52.322  1.00  0.00     0.060 A 
HETATM   10  C   UNL     1     -41.910  58.646 -53.052  1.00  0.00     0.035 A 
BRANCH   8  11
HETATM   11  O   UNL     1     -41.878  61.044 -50.323  1.00  0.00    -0.291 OA
BRANCH  11  12
HETATM   12  C   UNL     1     -43.132  61.594 -50.251  1.00  0.00     0.095 A 
HETATM   13  C   UNL     1     -43.267  62.889 -50.737  1.00  0.00     0.153 A 
HETATM   14  N   UNL     1     -44.414  63.612 -50.696  1.00  0.00    -0.270 NA
HETATM   15  C   UNL     1     -45.484  63.005 -50.142  1.00  0.00     0.116 A 
HETATM   16  C   UNL     1     -45.452  61.725 -49.613  1.00  0.00     0.022 A 
HETATM   17  C   UNL     1     -44.251  61.017 -49.655  1.00  0.00     0.040 A 
ENDBRANCH  11  12
ENDBRANCH   8  11
ENDBRANCH   2   5
BRANCH   1  18
HETATM   18  C   UNL     1     -41.261  54.102 -54.159  1.00  0.00     0.061 C 
HETATM   19  C   UNL     1     -42.370  53.582 -55.104  1.00  0.00     0.030 C 
HETATM   20  C   UNL     1     -40.149  54.685 -55.062  1.00  0.00     0.030 C 
BRANCH  18  21
HETATM   21  C   UNL     1     -40.634  53.023 -53.258  1.00  0.00    -0.041 A 
HETATM   22  C   UNL     1     -40.161  51.826 -53.840  1.00  0.00     0.011 A 
HETATM   23  C   UNL     1     -39.618  50.805 -53.057  1.00  0.00     0.043 A 
HETATM   24  C   UNL     1     -39.539  50.969 -51.683  1.00  0.00     0.116 A 
HETATM   25  F   UNL     1     -39.024  49.989 -50.928  1.00  0.00    -0.206 F 
HETATM   26  C   UNL     1     -39.991  52.134 -51.080  1.00  0.00     0.043 A 
HETATM   27  C   UNL     1     -40.539  53.155 -51.861  1.00  0.00     0.011 A 
ENDBRANCH  18  21
ENDBRANCH   1  18
TORSDOF 5
ENDMDL
MODEL 4
REMARK VINA RESULT:      -7.6      3.432      8.991
REMARK  5 active torsions:
REMARK  status: ('A' for Active; 'I' for Inactive)
REMARK    1  A    between atoms: C_2  and  C_3 
REMARK    2  A    between atoms: C_2  and  C_19 
REMARK       I    between atoms: C_3  and  N_4 
REMARK    3  A    between atoms: N_4  and  C_5 
REMARK    4  A    between atoms: C_8  and  O_9 
REMARK    5  A    between atoms: O_9  and  C_10 
ROOT
HETATM    1  C   UNL     1     -42.550  57.275 -57.358  1.00  0.00     0.234 C 
HETATM    2  N   UNL     1     -42.332  55.920 -57.159  1.00  0.00    -0.325 N 
HETATM    3  O   UNL     1     -42.564  58.116 -56.463  1.00  0.00    -0.272 OA
HETATM    4  H   UNL     1     -42.313  55.330 -57.983  1.00  0.00     0.169 HD
ENDROOT
BRANCH   2   5
HETATM    5  C   UNL     1     -42.207  55.263 -55.917  1.00  0.00     0.052 A 
HETATM    6  C   UNL     1     -43.256  54.977 -55.046  1.00  0.00     0.149 A 
HETATM    7  N   UNL     1     -43.118  54.292 -53.882  1.00  0.00    -0.235 NA
HETATM    8  C   UNL     1     -41.884  53.843 -53.579  1.00  0.00     0.169 A 
HETATM    9  C   UNL     1     -40.767  54.112 -54.354  1.00  0.00     0.060 A 
HETATM   10  C   UNL     1     -40.933  54.836 -55.536  1.00  0.00     0.035 A 
BRANCH   8  11
HETATM   11  O   UNL     1     -41.658  53.120 -52.416  1.00  0.00    -0.291 OA
BRANCH  11  12
HETATM   12  C   UNL     1     -41.352  53.770 -51.248  1.00  0.00     0.095 A 
HETATM   13  C   UNL     1     -40.649  53.037 -50.299  1.00  0.00     0.153 A 
HETATM   14  N   UNL     1     -40.310  53.496 -49.068  1.00  0.00    -0.270 NA
HETATM   15  C   UNL     1     -40.694  54.755 -48.772  1.00  0.00     0.116 A 
HETATM   16  C   UNL     1     -41.413  55.563 -49.639  1.00  0.00     0.022 A 
HETATM   17  C   UNL     1     -41.760  55.053 -50.890  1.00  0.00     0.040 A 
ENDBRANCH  11  12
ENDBRANCH   8  11
ENDBRANCH   2   5
BRANCH   1  18
HETATM   18  C   UNL     1     -42.810  57.663 -58.845  1.00  0.00     0.061 C 
HETATM   19  C   UNL     1     -42.521  59.176 -58.993  1.00  0.00     0.030 C 
HETATM   20  C   UNL     1     -41.793  56.928 -59.749  1.00  0.00     0.030 C 
BRANCH  18  21
HETATM   21  C   UNL     1     -44.228  57.241 -59.272  1.00  0.00    -0.041 A 
HETATM   22  C   UNL     1     -44.384  56.257 -60.273  1.00  0.00     0.011 A 
HETATM   23  C   UNL     1     -45.650  55.870 -60.717  1.00  0.00     0.043 A 
HETATM   24  C   UNL     1     -46.776  56.460 -60.164  1.00  0.00     0.116 A 
HETATM   25  F   UNL     1     -47.992  56.095 -60.592  1.00  0.00    -0.206 F 
HETATM   26  C   UNL     1     -46.658  57.427 -59.177  1.00  0.00     0.043 A 
HETATM   27  C   UNL     1     -45.391  57.819 -58.734  1.00  0.00     0.011 A 
ENDBRANCH  18  21
ENDBRANCH   1  18
TORSDOF 5
ENDMDL
MODEL 5
REMARK VINA RESULT:      -7.6     15.233     16.689
REMARK  5 active torsions:
REMARK  status: ('A' for Active; 'I' for Inactive)
REMARK    1  A    between atoms: C_2  and  C_3 
REMARK    2  A    between atoms: C_2  and  C_19 
REMARK       I    between atoms: C_3  and  N_4 
REMARK    3  A    between atoms: N_4  and  C_5 
REMARK    4  A    between atoms: C_8  and  O_9 
REMARK    5  A    between atoms: O_9  and  C_10 
ROOT
HETATM    1  C   UNL     1     -34.617  40.626 -53.039  1.00  0.00     0.234 C 
HETATM    2  N   UNL     1     -34.737  41.748 -53.846  1.00  0.00    -0.325 N 
HETATM    3  O   UNL     1     -34.899  39.483 -53.390  1.00  0.00    -0.272 OA
HETATM    4  H   UNL     1     -34.441  42.633 -53.452  1.00  0.00     0.169 HD
ENDROOT
BRANCH   2   5
HETATM    5  C   UNL     1     -35.299  41.796 -55.138  1.00  0.00     0.052 A 
HETATM    6  C   UNL     1     -34.634  41.477 -56.320  1.00  0.00     0.149 A 
HETATM    7  N   UNL     1     -35.214  41.475 -57.548  1.00  0.00    -0.235 NA
HETATM    8  C   UNL     1     -36.526  41.778 -57.604  1.00  0.00     0.169 A 
HETATM    9  C   UNL     1     -37.267  42.153 -56.495  1.00  0.00     0.060 A 
HETATM   10  C   UNL     1     -36.642  42.166 -55.248  1.00  0.00     0.035 A 
BRANCH   8  11
HETATM   11  O   UNL     1     -37.202  41.784 -58.817  1.00  0.00    -0.291 OA
BRANCH  11  12
HETATM   12  C   UNL     1     -37.604  40.605 -59.390  1.00  0.00     0.095 A 
HETATM   13  C   UNL     1     -37.202  40.386 -60.701  1.00  0.00     0.153 A 
HETATM   14  N   UNL     1     -37.552  39.306 -61.444  1.00  0.00    -0.270 NA
HETATM   15  C   UNL     1     -38.345  38.396 -60.841  1.00  0.00     0.116 A 
HETATM   16  C   UNL     1     -38.816  38.528 -59.545  1.00  0.00     0.022 A 
HETATM   17  C   UNL     1     -38.452  39.660 -58.816  1.00  0.00     0.040 A 
ENDBRANCH  11  12
ENDBRANCH   8  11
ENDBRANCH   2   5
BRANCH   1  18
HETATM   18  C   UNL     1     -34.105  40.934 -51.600  1.00  0.00     0.061 C 
HETATM   19  C   UNL     1     -32.565  40.776 -51.605  1.00  0.00     0.030 C 
HETATM   20  C   UNL     1     -34.395  42.415 -51.261  1.00  0.00     0.030 C 
BRANCH  18  21
HETATM   21  C   UNL     1     -34.831  40.052 -50.568  1.00  0.00    -0.041 A 
HETATM   22  C   UNL     1     -36.205  40.266 -50.321  1.00  0.00     0.011 A 
HETATM   23  C   UNL     1     -36.895  39.513 -49.368  1.00  0.00     0.043 A 
HETATM   24  C   UNL     1     -36.221  38.536 -48.652  1.00  0.00     0.116 A 
HETATM   25  F   UNL     1     -36.879  37.817 -47.733  1.00  0.00    -0.206 F 
HETATM   26  C   UNL     1     -34.872  38.299 -48.873  1.00  0.00     0.043 A 
HETATM   27  C   UNL     1     -34.178  39.053 -49.823  1.00  0.00     0.011 A 
ENDBRANCH  18  21
ENDBRANCH   1  18
TORSDOF 5
ENDMDL
MODEL 6
REMARK VINA RESULT:      -7.6      3.324      9.091
REMARK  5 active torsions:
REMARK  status: ('A' for Active; 'I' for Inactive)
REMARK    1  A    between atoms: C_2  and  C_3 
REMARK    2  A    between atoms: C_2  and  C_19 
REMARK       I    between atoms: C_3  and  N_4 
REMARK    3  A    between atoms: N_4  and  C_5 
REMARK    4  A    between atoms: C_8  and  O_9 
REMARK    5  A    between atoms: O_9  and  C_10 
ROOT
HETATM    1  C   UNL     1     -43.124  56.182 -57.483  1.00  0.00     0.234 C 
HETATM    2  N   UNL     1     -42.702  56.625 -56.238  1.00  0.00    -0.325 N 
HETATM    3  O   UNL     1     -43.236  55.001 -57.800  1.00  0.00    -0.272 OA
HETATM    4  H   UNL     1     -42.681  57.627 -56.087  1.00  0.00     0.169 HD
ENDROOT
BRANCH   2   5
HETATM    5  C   UNL     1     -42.227  55.824 -55.179  1.00  0.00     0.052 A 
HETATM    6  C   UNL     1     -43.024  55.131 -54.271  1.00  0.00     0.149 A 
HETATM    7  N   UNL     1     -42.543  54.319 -53.294  1.00  0.00    -0.235 NA
HETATM    8  C   UNL     1     -41.206  54.164 -53.232  1.00  0.00     0.169 A 
HETATM    9  C   UNL     1     -40.324  54.844 -54.057  1.00  0.00     0.060 A 
HETATM   10  C   UNL     1     -40.844  55.687 -55.039  1.00  0.00     0.035 A 
BRANCH   8  11
HETATM   11  O   UNL     1     -40.631  53.340 -52.274  1.00  0.00    -0.291 OA
BRANCH  11  12
HETATM   12  C   UNL     1     -40.301  52.046 -52.585  1.00  0.00     0.095 A 
HETATM   13  C   UNL     1     -39.851  51.254 -51.535  1.00  0.00     0.153 A 
HETATM   14  N   UNL     1     -39.429  49.971 -51.664  1.00  0.00    -0.270 NA
HETATM   15  C   UNL     1     -39.461  49.453 -52.910  1.00  0.00     0.116 A 
HETATM   16  C   UNL     1     -39.874  50.162 -54.026  1.00  0.00     0.022 A 
HETATM   17  C   UNL     1     -40.285  51.485 -53.860  1.00  0.00     0.040 A 
ENDBRANCH  11  12
ENDBRANCH   8  11
ENDBRANCH   2   5
BRANCH   1  18
HETATM   18  C   UNL     1     -43.430  57.330 -58.492  1.00  0.00     0.061 C 
HETATM   19  C   UNL     1     -43.483  58.655 -57.694  1.00  0.00     0.030 C 
HETATM   20  C   UNL     1     -42.254  57.462 -59.487  1.00  0.00     0.030 C 
BRANCH  18  21
HETATM   21  C   UNL     1     -44.707  57.018 -59.293  1.00  0.00    -0.041 A 
HETATM   22  C   UNL     1     -45.929  57.610 -58.905  1.00  0.00     0.011 A 
HETATM   23  C   UNL     1     -47.118  57.327 -59.581  1.00  0.00     0.043 A 
HETATM   24  C   UNL     1     -47.100  56.450 -60.654  1.00  0.00     0.116 A 
HETATM   25  F   UNL     1     -48.240  56.171 -61.301  1.00  0.00    -0.206 F 
HETATM   26  C   UNL     1     -45.916  55.853 -61.063  1.00  0.00     0.043 A 
HETATM   27  C   UNL     1     -44.725  56.131 -60.385  1.00  0.00     0.011 A 
ENDBRANCH  18  21
ENDBRANCH   1  18
TORSDOF 5
ENDMDL
MODEL 7
REMARK VINA RESULT:      -7.4      4.623      7.136
REMARK  5 active torsions:
REMARK  status: ('A' for Active; 'I' for Inactive)
REMARK    1  A    between atoms: C_2  and  C_3 
REMARK    2  A    between atoms: C_2  and  C_19 
REMARK       I    between atoms: C_3  and  N_4 
REMARK    3  A    between atoms: N_4  and  C_5 
REMARK    4  A    between atoms: C_8  and  O_9 
REMARK    5  A    between atoms: O_9  and  C_10 
ROOT
HETATM    1  C   UNL     1     -42.415  55.281 -53.273  1.00  0.00     0.234 C 
HETATM    2  N   UNL     1     -42.287  56.632 -53.556  1.00  0.00    -0.325 N 
HETATM    3  O   UNL     1     -43.152  54.818 -52.406  1.00  0.00    -0.272 OA
HETATM    4  H   UNL     1     -41.670  56.888 -54.318  1.00  0.00     0.169 HD
ENDROOT
BRANCH   2   5
HETATM    5  C   UNL     1     -42.872  57.699 -52.842  1.00  0.00     0.052 A 
HETATM    6  C   UNL     1     -42.280  58.382 -51.783  1.00  0.00     0.149 A 
HETATM    7  N   UNL     1     -42.841  59.445 -51.148  1.00  0.00    -0.235 NA
HETATM    8  C   UNL     1     -44.036  59.868 -51.606  1.00  0.00     0.169 A 
HETATM    9  C   UNL     1     -44.729  59.230 -52.622  1.00  0.00     0.060 A 
HETATM   10  C   UNL     1     -44.139  58.129 -53.244  1.00  0.00     0.035 A 
BRANCH   8  11
HETATM   11  O   UNL     1     -44.673  60.956 -51.025  1.00  0.00    -0.291 OA
BRANCH  11  12
HETATM   12  C   UNL     1     -44.899  60.983 -49.673  1.00  0.00     0.095 A 
HETATM   13  C   UNL     1     -45.730  59.992 -49.165  1.00  0.00     0.153 A 
HETATM   14  N   UNL     1     -46.109  59.895 -47.867  1.00  0.00    -0.270 NA
HETATM   15  C   UNL     1     -45.630  60.840 -47.031  1.00  0.00     0.116 A 
HETATM   16  C   UNL     1     -44.810  61.880 -47.438  1.00  0.00     0.022 A 
HETATM   17  C   UNL     1     -44.454  61.960 -48.784  1.00  0.00     0.040 A 
ENDBRANCH  11  12
ENDBRANCH   8  11
ENDBRANCH   2   5
BRANCH   1  18
HETATM   18  C   UNL     1     -41.508  54.363 -54.147  1.00  0.00     0.061 C 
HETATM   19  C   UNL     1     -42.385  53.776 -55.279  1.00  0.00     0.030 C 
HETATM   20  C   UNL     1     -40.421  55.223 -54.832  1.00  0.00     0.030 C 
BRANCH  18  21
HETATM   21  C   UNL     1     -40.807  53.307 -53.273  1.00  0.00    -0.041 A 
HETATM   22  C   UNL     1     -40.357  52.107 -53.865  1.00  0.00     0.011 A 
HETATM   23  C   UNL     1     -39.749  51.108 -53.103  1.00  0.00     0.043 A 
HETATM   24  C   UNL     1     -39.580  51.296 -51.740  1.00  0.00     0.116 A 
HETATM   25  F   UNL     1     -39.002  50.336 -51.006  1.00  0.00    -0.206 F 
HETATM   26  C   UNL     1     -40.008  52.465 -51.128  1.00  0.00     0.043 A 
HETATM   27  C   UNL     1     -40.621  53.465 -51.887  1.00  0.00     0.011 A 
ENDBRANCH  18  21
ENDBRANCH   1  18
TORSDOF 5
ENDMDL
MODEL 8
REMARK VINA RESULT:      -7.1      3.630      9.182
REMARK  5 active torsions:
REMARK  status: ('A' for Active; 'I' for Inactive)
REMARK    1  A    between atoms: C_2  and  C_3 
REMARK    2  A    between atoms: C_2  and  C_19 
REMARK       I    between atoms: C_3  and  N_4 
REMARK    3  A    between atoms: N_4  and  C_5 
REMARK    4  A    between atoms: C_8  and  O_9 
REMARK    5  A    between atoms: O_9  and  C_10 
ROOT
HETATM    1  C   UNL     1     -43.405  56.506 -57.823  1.00  0.00     0.234 C 
HETATM    2  N   UNL     1     -43.541  56.479 -56.443  1.00  0.00    -0.325 N 
HETATM    3  O   UNL     1     -42.653  55.776 -58.463  1.00  0.00    -0.272 OA
HETATM    4  H   UNL     1     -44.220  57.111 -56.034  1.00  0.00     0.169 HD
ENDROOT
BRANCH   2   5
HETATM    5  C   UNL     1     -42.778  55.711 -55.539  1.00  0.00     0.052 A 
HETATM    6  C   UNL     1     -41.697  56.180 -54.796  1.00  0.00     0.149 A 
HETATM    7  N   UNL     1     -41.014  55.435 -53.888  1.00  0.00    -0.235 NA
HETATM    8  C   UNL     1     -41.441  54.173 -53.687  1.00  0.00     0.169 A 
HETATM    9  C   UNL     1     -42.476  53.598 -54.407  1.00  0.00     0.060 A 
HETATM   10  C   UNL     1     -43.148  54.378 -55.348  1.00  0.00     0.035 A 
BRANCH   8  11
HETATM   11  O   UNL     1     -40.809  53.349 -52.766  1.00  0.00    -0.291 OA
BRANCH  11  12
HETATM   12  C   UNL     1     -40.784  53.689 -51.438  1.00  0.00     0.095 A 
HETATM   13  C   UNL     1     -41.997  54.064 -50.873  1.00  0.00     0.153 A 
HETATM   14  N   UNL     1     -42.154  54.485 -49.593  1.00  0.00    -0.270 NA
HETATM   15  C   UNL     1     -41.036  54.532 -48.838  1.00  0.00     0.116 A 
HETATM   16  C   UNL     1     -39.777  54.198 -49.308  1.00  0.00     0.022 A 
HETATM   17  C   UNL     1     -39.650  53.786 -50.634  1.00  0.00     0.040 A 
ENDBRANCH  11  12
ENDBRANCH   8  11
ENDBRANCH   2   5
BRANCH   1  18
HETATM   18  C   UNL     1     -44.285  57.584 -58.525  1.00  0.00     0.061 C 
HETATM   19  C   UNL     1     -45.159  56.864 -59.580  1.00  0.00     0.030 C 
HETATM   20  C   UNL     1     -45.259  58.199 -57.492  1.00  0.00     0.030 C 
BRANCH  18  21
HETATM   21  C   UNL     1     -43.407  58.714 -59.090  1.00  0.00    -0.041 A 
HETATM   22  C   UNL     1     -43.353  58.916 -60.487  1.00  0.00     0.011 A 
HETATM   23  C   UNL     1     -42.542  59.906 -61.045  1.00  0.00     0.043 A 
HETATM   24  C   UNL     1     -41.775  60.708 -60.215  1.00  0.00     0.116 A 
HETATM   25  F   UNL     1     -40.991  61.655 -60.747  1.00  0.00    -0.206 F 
HETATM   26  C   UNL     1     -41.807  60.539 -58.838  1.00  0.00     0.043 A 
HETATM   27  C   UNL     1     -42.615  59.546 -58.277  1.00  0.00     0.011 A 
ENDBRANCH  18  21
ENDBRANCH   1  18
TORSDOF 5
ENDMDL
MODEL 9
REMARK VINA RESULT:      -7.1      5.214      6.489
REMARK  5 active torsions:
REMARK  status: ('A' for Active; 'I' for Inactive)
REMARK    1  A    between atoms: C_2  and  C_3 
REMARK    2  A    between atoms: C_2  and  C_19 
REMARK       I    between atoms: C_3  and  N_4 
REMARK    3  A    between atoms: N_4  and  C_5 
REMARK    4  A    between atoms: C_8  and  O_9 
REMARK    5  A    between atoms: O_9  and  C_10 
ROOT
HETATM    1  C   UNL     1     -41.469  54.474 -50.747  1.00  0.00     0.234 C 
HETATM    2  N   UNL     1     -41.022  55.683 -51.259  1.00  0.00    -0.325 N 
HETATM    3  O   UNL     1     -42.640  54.224 -50.475  1.00  0.00    -0.272 OA
HETATM    4  H   UNL     1     -40.035  55.757 -51.474  1.00  0.00     0.169 HD
ENDROOT
BRANCH   2   5
HETATM    5  C   UNL     1     -41.791  56.851 -51.447  1.00  0.00     0.052 A 
HETATM    6  C   UNL     1     -41.597  58.059 -50.782  1.00  0.00     0.149 A 
HETATM    7  N   UNL     1     -42.314  59.188 -51.022  1.00  0.00    -0.235 NA
HETATM    8  C   UNL     1     -43.251  59.123 -51.988  1.00  0.00     0.169 A 
HETATM    9  C   UNL     1     -43.553  57.958 -52.676  1.00  0.00     0.060 A 
HETATM   10  C   UNL     1     -42.814  56.808 -52.396  1.00  0.00     0.035 A 
BRANCH   8  11
HETATM   11  O   UNL     1     -44.019  60.234 -52.309  1.00  0.00    -0.291 OA
BRANCH  11  12
HETATM   12  C   UNL     1     -44.496  61.052 -51.317  1.00  0.00     0.095 A 
HETATM   13  C   UNL     1     -45.588  60.580 -50.599  1.00  0.00     0.153 A 
HETATM   14  N   UNL     1     -46.227  61.274 -49.623  1.00  0.00    -0.270 NA
HETATM   15  C   UNL     1     -45.745  62.505 -49.351  1.00  0.00     0.116 A 
HETATM   16  C   UNL     1     -44.675  63.075 -50.020  1.00  0.00     0.022 A 
HETATM   17  C   UNL     1     -44.053  62.341 -51.030  1.00  0.00     0.040 A 
ENDBRANCH  11  12
ENDBRANCH   8  11
ENDBRANCH   2   5
BRANCH   1  18
HETATM   18  C   UNL     1     -40.336  53.431 -50.508  1.00  0.00     0.061 C 
HETATM   19  C   UNL     1     -39.055  54.209 -50.121  1.00  0.00     0.030 C 
HETATM   20  C   UNL     1     -40.701  52.550 -49.291  1.00  0.00     0.030 C 
BRANCH  18  21
HETATM   21  C   UNL     1     -40.178  52.516 -51.736  1.00  0.00    -0.041 A 
HETATM   22  C   UNL     1     -39.713  51.195 -51.558  1.00  0.00     0.011 A 
HETATM   23  C   UNL     1     -39.521  50.342 -52.647  1.00  0.00     0.043 A 
HETATM   24  C   UNL     1     -39.793  50.798 -53.927  1.00  0.00     0.116 A 
HETATM   25  F   UNL     1     -39.604  49.985 -54.975  1.00  0.00    -0.206 F 
HETATM   26  C   UNL     1     -40.254  52.090 -54.137  1.00  0.00     0.043 A 
HETATM   27  C   UNL     1     -40.443  52.947 -53.049  1.00  0.00     0.011 A 
ENDBRANCH  18  21
ENDBRANCH   1  18
TORSDOF 5
ENDMDL
MODEL 10
REMARK VINA RESULT:      -7.1      3.502      9.044
REMARK  5 active torsions:
REMARK  status: ('A' for Active; 'I' for Inactive)
REMARK    1  A    between atoms: C_2  and  C_3 
REMARK    2  A    between atoms: C_2  and  C_19 
REMARK       I    between atoms: C_3  and  N_4 
REMARK    3  A    between atoms: N_4  and  C_5 
REMARK    4  A    between atoms: C_8  and  O_9 
REMARK    5  A    between atoms: O_9  and  C_10 
ROOT
HETATM    1  C   UNL     1     -42.983  56.688 -57.464  1.00  0.00     0.234 C 
HETATM    2  N   UNL     1     -43.169  57.610 -56.444  1.00  0.00    -0.325 N 
HETATM    3  O   UNL     1     -42.729  55.500 -57.290  1.00  0.00    -0.272 OA
HETATM    4  H   UNL     1     -43.406  58.557 -56.715  1.00  0.00     0.169 HD
ENDROOT
BRANCH   2   5
HETATM    5  C   UNL     1     -42.990  57.381 -55.064  1.00  0.00     0.052 A 
HETATM    6  C   UNL     1     -43.893  56.724 -54.231  1.00  0.00     0.149 A 
HETATM    7  N   UNL     1     -43.672  56.465 -52.916  1.00  0.00    -0.235 NA
HETATM    8  C   UNL     1     -42.485  56.852 -52.408  1.00  0.00     0.169 A 
HETATM    9  C   UNL     1     -41.538  57.553 -53.139  1.00  0.00     0.060 A 
HETATM   10  C   UNL     1     -41.799  57.823 -54.483  1.00  0.00     0.035 A 
BRANCH   8  11
HETATM   11  O   UNL     1     -42.171  56.613 -51.077  1.00  0.00    -0.291 OA
BRANCH  11  12
HETATM   12  C   UNL     1     -41.607  55.420 -50.705  1.00  0.00     0.095 A 
HETATM   13  C   UNL     1     -41.610  55.133 -49.345  1.00  0.00     0.153 A 
HETATM   14  N   UNL     1     -41.048  54.030 -48.789  1.00  0.00    -0.270 NA
HETATM   15  C   UNL     1     -40.453  53.169 -49.640  1.00  0.00     0.116 A 
HETATM   16  C   UNL     1     -40.378  53.369 -51.009  1.00  0.00     0.022 A 
HETATM   17  C   UNL     1     -40.951  54.523 -51.545  1.00  0.00     0.040 A 
ENDBRANCH  11  12
ENDBRANCH   8  11
ENDBRANCH   2   5
BRANCH   1  18
HETATM   18  C   UNL     1     -43.098  57.297 -58.894  1.00  0.00     0.061 C 
HETATM   19  C   UNL     1     -42.734  58.798 -58.797  1.00  0.00     0.030 C 
HETATM   20  C   UNL     1     -42.038  56.645 -59.813  1.00  0.00     0.030 C 
BRANCH  18  21
HETATM   21  C   UNL     1     -44.490  57.017 -59.490  1.00  0.00    -0.041 A 
HETATM   22  C   UNL     1     -44.657  55.933 -60.379  1.00  0.00     0.011 A 
HETATM   23  C   UNL     1     -45.893  55.664 -60.969  1.00  0.00     0.043 A 
HETATM   24  C   UNL     1     -46.979  56.475 -60.678  1.00  0.00     0.116 A 
HETATM   25  F   UNL     1     -48.165  56.223 -61.248  1.00  0.00    -0.206 F 
HETATM   26  C   UNL     1     -46.850  57.546 -59.806  1.00  0.00     0.043 A 
HETATM   27  C   UNL     1     -45.612  57.819 -59.216  1.00  0.00     0.011 A 
ENDBRANCH  18  21
ENDBRANCH   1  18
TORSDOF 5
ENDMDL
