MODEL 1
REMARK VINA RESULT:      -8.6      0.000      0.000
REMARK  4 active torsions:
REMARK  status: ('A' for Active; 'I' for Inactive)
REMARK    1  A    between atoms: O_2  and  C_3 
REMARK    2  A    between atoms: C_6  and  C_7 
REMARK    3  A    between atoms: C_11  and  C_12 
REMARK       I    between atoms: C_12  and  N_13 
REMARK    4  A    between atoms: N_13  and  N_14 
ROOT
HETATM    1  C   UNL     1     -41.597  57.271 -53.803  1.00  0.00     0.289 C 
HETATM    2  N   UNL     1     -42.164  56.275 -53.024  1.00  0.00    -0.241 N 
HETATM    3  O   UNL     1     -40.626  57.949 -53.486  1.00  0.00    -0.264 OA
HETATM    4  H   UNL     1     -43.072  55.920 -53.282  1.00  0.00     0.192 HD
ENDROOT
BRANCH   1   5
HETATM    5  C   UNL     1     -42.250  57.439 -55.081  1.00  0.00     0.121 A 
HETATM    6  N   UNL     1     -42.106  58.575 -55.827  1.00  0.00    -0.272 N 
HETATM    7  N   UNL     1     -42.768  58.550 -56.997  1.00  0.00    -0.174 NA
HETATM    8  H   UNL     1     -41.561  59.397 -55.585  1.00  0.00     0.189 HD
HETATM    9  C   UNL     1     -43.348  57.341 -57.034  1.00  0.00     0.089 A 
HETATM   10  C   UNL     1     -43.066  56.625 -55.839  1.00  0.00     0.071 A 
BRANCH   9  11
HETATM   11  C   UNL     1     -44.153  56.886 -58.171  1.00  0.00    -0.005 A 
HETATM   12  C   UNL     1     -45.369  57.508 -58.484  1.00  0.00     0.016 A 
HETATM   13  C   UNL     1     -46.121  57.091 -59.586  1.00  0.00     0.037 A 
HETATM   14  C   UNL     1     -45.673  56.050 -60.398  1.00  0.00     0.068 A 
HETATM   15  C   UNL     1     -44.475  55.409 -60.085  1.00  0.00     0.037 A 
HETATM   16  C   UNL     1     -43.723  55.824 -58.977  1.00  0.00     0.016 A 
BRANCH  14  17
HETATM   17  O   UNL     1     -46.496  55.755 -61.449  1.00  0.00    -0.356 OA
HETATM   18  C   UNL     1     -47.699  56.506 -61.548  1.00  0.00     0.210 C 
ENDBRANCH  14  17
ENDBRANCH   9  11
ENDBRANCH   1   5
BRANCH   2  19
HETATM   19  N   UNL     1     -41.725  56.017 -51.762  1.00  0.00    -0.165 NA
HETATM   20  C   UNL     1     -41.129  54.885 -51.543  1.00  0.00     0.157 A 
HETATM   21  C   UNL     1     -40.798  54.411 -50.112  1.00  0.00     0.277 A 
HETATM   22  C   UNL     1     -40.664  53.808 -52.433  1.00  0.00     0.027 A 
HETATM   23  O   UNL     1     -40.969  55.028 -49.085  1.00  0.00    -0.266 OA
HETATM   24  N   UNL     1     -40.296  53.136 -50.258  1.00  0.00    -0.321 N 
HETATM   25  C   UNL     1     -40.208  52.784 -51.599  1.00  0.00     0.048 A 
HETATM   26  H   UNL     1     -39.993  52.580 -49.473  1.00  0.00     0.169 HD
HETATM   27  C   UNL     1     -39.704  51.601 -52.102  1.00  0.00     0.030 A 
HETATM   28  C   UNL     1     -39.644  51.462 -53.490  1.00  0.00     0.002 A 
HETATM   29  C   UNL     1     -40.061  52.505 -54.337  1.00  0.00     0.001 A 
HETATM   30  C   UNL     1     -40.566  53.699 -53.809  1.00  0.00     0.016 A 
ENDBRANCH   2  19
TORSDOF 4
ENDMDL
MODEL 2
REMARK VINA RESULT:      -8.6      2.669      3.216
REMARK  4 active torsions:
REMARK  status: ('A' for Active; 'I' for Inactive)
REMARK    1  A    between atoms: O_2  and  C_3 
REMARK    2  A    between atoms: C_6  and  C_7 
REMARK    3  A    between atoms: C_11  and  C_12 
REMARK       I    between atoms: C_12  and  N_13 
REMARK    4  A    between atoms: N_13  and  N_14 
ROOT
HETATM    1  C   UNL     1     -42.454  54.919 -53.533  1.00  0.00     0.289 C 
HETATM    2  N   UNL     1     -41.150  54.929 -53.064  1.00  0.00    -0.241 N 
HETATM    3  O   UNL     1     -43.440  54.614 -52.872  1.00  0.00    -0.264 OA
HETATM    4  H   UNL     1     -40.398  54.996 -53.733  1.00  0.00     0.192 HD
ENDROOT
BRANCH   1   5
HETATM    5  C   UNL     1     -42.569  55.338 -54.911  1.00  0.00     0.121 A 
HETATM    6  N   UNL     1     -43.228  54.590 -55.846  1.00  0.00    -0.272 N 
HETATM    7  N   UNL     1     -43.254  55.141 -57.071  1.00  0.00    -0.174 NA
HETATM    8  H   UNL     1     -43.683  53.694 -55.697  1.00  0.00     0.189 HD
HETATM    9  C   UNL     1     -42.611  56.311 -56.932  1.00  0.00     0.089 A 
HETATM   10  C   UNL     1     -42.146  56.458 -55.597  1.00  0.00     0.071 A 
BRANCH   9  11
HETATM   11  C   UNL     1     -42.439  57.254 -58.040  1.00  0.00    -0.005 A 
HETATM   12  C   UNL     1     -42.505  56.818 -59.370  1.00  0.00     0.016 A 
HETATM   13  C   UNL     1     -42.369  57.725 -60.425  1.00  0.00     0.037 A 
HETATM   14  C   UNL     1     -42.169  59.082 -60.174  1.00  0.00     0.068 A 
HETATM   15  C   UNL     1     -42.081  59.525 -58.855  1.00  0.00     0.037 A 
HETATM   16  C   UNL     1     -42.213  58.615 -57.797  1.00  0.00     0.016 A 
BRANCH  14  17
HETATM   17  O   UNL     1     -42.070  59.858 -61.295  1.00  0.00    -0.356 OA
HETATM   18  C   UNL     1     -41.648  61.202 -61.104  1.00  0.00     0.210 C 
ENDBRANCH  14  17
ENDBRANCH   9  11
ENDBRANCH   1   5
BRANCH   2  19
HETATM   19  N   UNL     1     -40.837  54.503 -51.810  1.00  0.00    -0.165 NA
HETATM   20  C   UNL     1     -40.475  53.266 -51.659  1.00  0.00     0.157 A 
HETATM   21  C   UNL     1     -40.317  52.637 -50.258  1.00  0.00     0.277 A 
HETATM   22  C   UNL     1     -40.169  52.187 -52.613  1.00  0.00     0.027 A 
HETATM   23  O   UNL     1     -40.426  53.200 -49.193  1.00  0.00    -0.266 OA
HETATM   24  N   UNL     1     -40.053  51.304 -50.486  1.00  0.00    -0.321 N 
HETATM   25  C   UNL     1     -39.959  51.038 -51.846  1.00  0.00     0.048 A 
HETATM   26  H   UNL     1     -39.903  50.645 -49.736  1.00  0.00     0.169 HD
HETATM   27  C   UNL     1     -39.657  49.820 -52.422  1.00  0.00     0.030 A 
HETATM   28  C   UNL     1     -39.547  49.772 -53.814  1.00  0.00     0.002 A 
HETATM   29  C   UNL     1     -39.715  50.932 -54.590  1.00  0.00     0.001 A 
HETATM   30  C   UNL     1     -40.018  52.160 -53.989  1.00  0.00     0.016 A 
ENDBRANCH   2  19
TORSDOF 4
ENDMDL
MODEL 3
REMARK VINA RESULT:      -8.6      1.642      2.080
REMARK  4 active torsions:
REMARK  status: ('A' for Active; 'I' for Inactive)
REMARK    1  A    between atoms: O_2  and  C_3 
REMARK    2  A    between atoms: C_6  and  C_7 
REMARK    3  A    between atoms: C_11  and  C_12 
REMARK       I    between atoms: C_12  and  N_13 
REMARK    4  A    between atoms: N_13  and  N_14 
ROOT
HETATM    1  C   UNL     1     -43.288  56.757 -51.892  1.00  0.00     0.289 C 
HETATM    2  N   UNL     1     -41.966  56.423 -51.643  1.00  0.00    -0.241 N 
HETATM    3  O   UNL     1     -44.178  56.791 -51.050  1.00  0.00    -0.264 OA
HETATM    4  H   UNL     1     -41.363  56.227 -52.428  1.00  0.00     0.192 HD
ENDROOT
BRANCH   1   5
HETATM    5  C   UNL     1     -43.541  57.100 -53.272  1.00  0.00     0.121 A 
HETATM    6  N   UNL     1     -43.842  58.375 -53.661  1.00  0.00    -0.272 N 
HETATM    7  N   UNL     1     -44.026  58.516 -54.985  1.00  0.00    -0.174 NA
HETATM    8  H   UNL     1     -43.928  59.190 -53.060  1.00  0.00     0.189 HD
HETATM    9  C   UNL     1     -43.813  57.292 -55.490  1.00  0.00     0.089 A 
HETATM   10  C   UNL     1     -43.530  56.372 -54.444  1.00  0.00     0.071 A 
BRANCH   9  11
HETATM   11  C   UNL     1     -43.884  57.007 -56.926  1.00  0.00    -0.005 A 
HETATM   12  C   UNL     1     -43.114  55.983 -57.494  1.00  0.00     0.016 A 
HETATM   13  C   UNL     1     -43.205  55.696 -58.859  1.00  0.00     0.037 A 
HETATM   14  C   UNL     1     -44.067  56.420 -59.682  1.00  0.00     0.068 A 
HETATM   15  C   UNL     1     -44.822  57.456 -59.132  1.00  0.00     0.037 A 
HETATM   16  C   UNL     1     -44.728  57.747 -57.764  1.00  0.00     0.016 A 
BRANCH  14  17
HETATM   17  O   UNL     1     -44.070  56.025 -60.990  1.00  0.00    -0.356 OA
HETATM   18  C   UNL     1     -45.026  55.038 -61.356  1.00  0.00     0.210 C 
ENDBRANCH  14  17
ENDBRANCH   9  11
ENDBRANCH   1   5
BRANCH   2  19
HETATM   19  N   UNL     1     -41.551  56.008 -50.416  1.00  0.00    -0.165 NA
HETATM   20  C   UNL     1     -41.034  54.822 -50.315  1.00  0.00     0.157 A 
HETATM   21  C   UNL     1     -40.742  54.182 -48.941  1.00  0.00     0.277 A 
HETATM   22  C   UNL     1     -40.638  53.813 -51.312  1.00  0.00     0.027 A 
HETATM   23  O   UNL     1     -40.874  54.701 -47.857  1.00  0.00    -0.266 OA
HETATM   24  N   UNL     1     -40.326  52.898 -49.219  1.00  0.00    -0.321 N 
HETATM   25  C   UNL     1     -40.257  52.680 -50.589  1.00  0.00     0.048 A 
HETATM   26  H   UNL     1     -40.065  52.245 -48.495  1.00  0.00     0.169 HD
HETATM   27  C   UNL     1     -39.832  51.523 -51.212  1.00  0.00     0.030 A 
HETATM   28  C   UNL     1     -39.775  51.524 -52.607  1.00  0.00     0.002 A 
HETATM   29  C   UNL     1     -40.117  52.673 -53.342  1.00  0.00     0.001 A 
HETATM   30  C   UNL     1     -40.542  53.839 -52.693  1.00  0.00     0.016 A 
ENDBRANCH   2  19
TORSDOF 4
ENDMDL
MODEL 4
REMARK VINA RESULT:      -8.3      3.000      8.443
REMARK  4 active torsions:
REMARK  status: ('A' for Active; 'I' for Inactive)
REMARK    1  A    between atoms: O_2  and  C_3 
REMARK    2  A    between atoms: C_6  and  C_7 
REMARK    3  A    between atoms: C_11  and  C_12 
REMARK       I    between atoms: C_12  and  N_13 
REMARK    4  A    between atoms: N_13  and  N_14 
ROOT
HETATM    1  C   UNL     1     -41.453  58.953 -53.889  1.00  0.00     0.289 C 
HETATM    2  N   UNL     1     -41.824  58.978 -55.225  1.00  0.00    -0.241 N 
HETATM    3  O   UNL     1     -41.232  59.943 -53.199  1.00  0.00    -0.264 OA
HETATM    4  H   UNL     1     -41.783  58.119 -55.751  1.00  0.00     0.192 HD
ENDROOT
BRANCH   1   5
HETATM    5  C   UNL     1     -41.368  57.619 -53.344  1.00  0.00     0.121 A 
HETATM    6  N   UNL     1     -42.031  57.255 -52.206  1.00  0.00    -0.272 N 
HETATM    7  N   UNL     1     -41.855  55.969 -51.855  1.00  0.00    -0.174 NA
HETATM    8  H   UNL     1     -42.624  57.847 -51.631  1.00  0.00     0.189 HD
HETATM    9  C   UNL     1     -41.067  55.460 -52.815  1.00  0.00     0.089 A 
HETATM   10  C   UNL     1     -40.721  56.470 -53.753  1.00  0.00     0.071 A 
BRANCH   9  11
HETATM   11  C   UNL     1     -40.651  54.055 -52.831  1.00  0.00    -0.005 A 
HETATM   12  C   UNL     1     -40.231  53.417 -51.656  1.00  0.00     0.016 A 
HETATM   13  C   UNL     1     -39.862  52.069 -51.669  1.00  0.00     0.037 A 
HETATM   14  C   UNL     1     -39.908  51.331 -52.852  1.00  0.00     0.068 A 
HETATM   15  C   UNL     1     -40.303  51.961 -54.032  1.00  0.00     0.037 A 
HETATM   16  C   UNL     1     -40.670  53.314 -54.020  1.00  0.00     0.016 A 
BRANCH  14  17
HETATM   17  O   UNL     1     -39.537  50.023 -52.720  1.00  0.00    -0.356 OA
HETATM   18  C   UNL     1     -39.488  49.504 -51.397  1.00  0.00     0.210 C 
ENDBRANCH  14  17
ENDBRANCH   9  11
ENDBRANCH   1   5
BRANCH   2  19
HETATM   19  N   UNL     1     -41.892  60.142 -55.927  1.00  0.00    -0.165 NA
HETATM   20  C   UNL     1     -41.961  60.070 -57.221  1.00  0.00     0.157 A 
HETATM   21  C   UNL     1     -41.818  61.325 -58.108  1.00  0.00     0.277 A 
HETATM   22  C   UNL     1     -42.135  58.944 -58.155  1.00  0.00     0.027 A 
HETATM   23  O   UNL     1     -41.712  62.470 -57.733  1.00  0.00    -0.266 OA
HETATM   24  N   UNL     1     -41.815  60.856 -59.404  1.00  0.00    -0.321 N 
HETATM   25  C   UNL     1     -42.005  59.481 -59.438  1.00  0.00     0.048 A 
HETATM   26  H   UNL     1     -41.733  61.469 -60.201  1.00  0.00     0.169 HD
HETATM   27  C   UNL     1     -42.102  58.697 -60.571  1.00  0.00     0.030 A 
HETATM   28  C   UNL     1     -42.358  57.335 -60.396  1.00  0.00     0.002 A 
HETATM   29  C   UNL     1     -42.533  56.795 -59.110  1.00  0.00     0.001 A 
HETATM   30  C   UNL     1     -42.434  57.605 -57.972  1.00  0.00     0.016 A 
ENDBRANCH   2  19
TORSDOF 4
ENDMDL
MODEL 5
REMARK VINA RESULT:      -7.9      6.077      8.900
REMARK  4 active torsions:
REMARK  status: ('A' for Active; 'I' for Inactive)
REMARK    1  A    between atoms: O_2  and  C_3 
REMARK    2  A    between atoms: C_6  and  C_7 
REMARK    3  A    between atoms: C_11  and  C_12 
REMARK       I    between atoms: C_12  and  N_13 
REMARK    4  A    between atoms: N_13  and  N_14 
ROOT
HETATM    1  C   UNL     1     -45.428  58.893 -50.622  1.00  0.00     0.289 C 
HETATM    2  N   UNL     1     -44.995  59.720 -49.598  1.00  0.00    -0.241 N 
HETATM    3  O   UNL     1     -46.601  58.688 -50.917  1.00  0.00    -0.264 OA
HETATM    4  H   UNL     1     -44.031  59.663 -49.308  1.00  0.00     0.192 HD
ENDROOT
BRANCH   1   5
HETATM    5  C   UNL     1     -44.347  58.285 -51.362  1.00  0.00     0.121 A 
HETATM    6  N   UNL     1     -43.276  59.008 -51.809  1.00  0.00    -0.272 N 
HETATM    7  N   UNL     1     -42.355  58.277 -52.461  1.00  0.00    -0.174 NA
HETATM    8  H   UNL     1     -43.123  60.005 -51.692  1.00  0.00     0.189 HD
HETATM    9  C   UNL     1     -42.824  57.021 -52.418  1.00  0.00     0.089 A 
HETATM   10  C   UNL     1     -44.083  56.990 -51.758  1.00  0.00     0.071 A 
BRANCH   9  11
HETATM   11  C   UNL     1     -42.098  55.886 -52.995  1.00  0.00    -0.005 A 
HETATM   12  C   UNL     1     -42.410  54.571 -52.625  1.00  0.00     0.016 A 
HETATM   13  C   UNL     1     -41.734  53.490 -53.198  1.00  0.00     0.037 A 
HETATM   14  C   UNL     1     -40.739  53.699 -54.152  1.00  0.00     0.068 A 
HETATM   15  C   UNL     1     -40.405  55.004 -54.513  1.00  0.00     0.037 A 
HETATM   16  C   UNL     1     -41.079  56.089 -53.935  1.00  0.00     0.016 A 
BRANCH  14  17
HETATM   17  O   UNL     1     -40.173  52.556 -54.642  1.00  0.00    -0.356 OA
HETATM   18  C   UNL     1     -39.738  51.599 -53.685  1.00  0.00     0.210 C 
ENDBRANCH  14  17
ENDBRANCH   9  11
ENDBRANCH   1   5
BRANCH   2  19
HETATM   19  N   UNL     1     -45.870  60.328 -48.750  1.00  0.00    -0.165 NA
HETATM   20  C   UNL     1     -45.620  61.549 -48.388  1.00  0.00     0.157 A 
HETATM   21  C   UNL     1     -46.426  62.239 -47.267  1.00  0.00     0.277 A 
HETATM   22  C   UNL     1     -44.621  62.539 -48.823  1.00  0.00     0.027 A 
HETATM   23  O   UNL     1     -47.380  61.788 -46.677  1.00  0.00    -0.266 OA
HETATM   24  N   UNL     1     -45.809  63.456 -47.073  1.00  0.00    -0.321 N 
HETATM   25  C   UNL     1     -44.769  63.639 -47.974  1.00  0.00     0.048 A 
HETATM   26  H   UNL     1     -46.132  64.123 -46.388  1.00  0.00     0.169 HD
HETATM   27  C   UNL     1     -43.975  64.763 -48.090  1.00  0.00     0.030 A 
HETATM   28  C   UNL     1     -43.018  64.778 -49.107  1.00  0.00     0.002 A 
HETATM   29  C   UNL     1     -42.891  63.692 -49.992  1.00  0.00     0.001 A 
HETATM   30  C   UNL     1     -43.706  62.562 -49.862  1.00  0.00     0.016 A 
ENDBRANCH   2  19
TORSDOF 4
ENDMDL
MODEL 6
REMARK VINA RESULT:      -7.7      3.013      8.844
REMARK  4 active torsions:
REMARK  status: ('A' for Active; 'I' for Inactive)
REMARK    1  A    between atoms: O_2  and  C_3 
REMARK    2  A    between atoms: C_6  and  C_7 
REMARK    3  A    between atoms: C_11  and  C_12 
REMARK       I    between atoms: C_12  and  N_13 
REMARK    4  A    between atoms: N_13  and  N_14 
ROOT
HETATM    1  C   UNL     1     -43.887  57.524 -55.437  1.00  0.00     0.289 C 
HETATM    2  N   UNL     1     -44.823  57.483 -56.459  1.00  0.00    -0.241 N 
HETATM    3  O   UNL     1     -43.572  58.529 -54.808  1.00  0.00    -0.264 OA
HETATM    4  H   UNL     1     -44.860  56.661 -57.043  1.00  0.00     0.192 HD
ENDROOT
BRANCH   1   5
HETATM    5  C   UNL     1     -43.305  56.236 -55.142  1.00  0.00     0.121 A 
HETATM    6  N   UNL     1     -43.494  55.150 -55.950  1.00  0.00    -0.272 N 
HETATM    7  N   UNL     1     -42.863  54.039 -55.533  1.00  0.00    -0.174 NA
HETATM    8  H   UNL     1     -44.044  55.115 -56.804  1.00  0.00     0.189 HD
HETATM    9  C   UNL     1     -42.210  54.415 -54.423  1.00  0.00     0.089 A 
HETATM   10  C   UNL     1     -42.482  55.779 -54.132  1.00  0.00     0.071 A 
BRANCH   9  11
HETATM   11  C   UNL     1     -41.360  53.498 -53.659  1.00  0.00    -0.005 A 
HETATM   12  C   UNL     1     -41.144  53.693 -52.288  1.00  0.00     0.016 A 
HETATM   13  C   UNL     1     -40.355  52.801 -51.556  1.00  0.00     0.037 A 
HETATM   14  C   UNL     1     -39.770  51.697 -52.176  1.00  0.00     0.068 A 
HETATM   15  C   UNL     1     -39.960  51.504 -53.544  1.00  0.00     0.037 A 
HETATM   16  C   UNL     1     -40.747  52.401 -54.279  1.00  0.00     0.016 A 
BRANCH  14  17
HETATM   17  O   UNL     1     -39.039  50.899 -51.341  1.00  0.00    -0.356 OA
HETATM   18  C   UNL     1     -39.551  49.595 -51.095  1.00  0.00     0.210 C 
ENDBRANCH  14  17
ENDBRANCH   9  11
ENDBRANCH   1   5
BRANCH   2  19
HETATM   19  N   UNL     1     -45.428  58.610 -56.921  1.00  0.00    -0.165 NA
HETATM   20  C   UNL     1     -44.890  59.221 -57.932  1.00  0.00     0.157 A 
HETATM   21  C   UNL     1     -45.374  60.616 -58.382  1.00  0.00     0.277 A 
HETATM   22  C   UNL     1     -43.784  58.874 -58.840  1.00  0.00     0.027 A 
HETATM   23  O   UNL     1     -46.306  61.241 -57.931  1.00  0.00    -0.266 OA
HETATM   24  N   UNL     1     -44.505  60.996 -59.382  1.00  0.00    -0.321 N 
HETATM   25  C   UNL     1     -43.587  59.991 -59.657  1.00  0.00     0.048 A 
HETATM   26  H   UNL     1     -44.586  61.879 -59.863  1.00  0.00     0.169 HD
HETATM   27  C   UNL     1     -42.609  60.020 -60.631  1.00  0.00     0.030 A 
HETATM   28  C   UNL     1     -41.823  58.877 -60.793  1.00  0.00     0.002 A 
HETATM   29  C   UNL     1     -42.043  57.734 -60.004  1.00  0.00     0.001 A 
HETATM   30  C   UNL     1     -43.041  57.721 -59.023  1.00  0.00     0.016 A 
ENDBRANCH   2  19
TORSDOF 4
ENDMDL
MODEL 7
REMARK VINA RESULT:      -7.6     15.127     18.792
REMARK  4 active torsions:
REMARK  status: ('A' for Active; 'I' for Inactive)
REMARK    1  A    between atoms: O_2  and  C_3 
REMARK    2  A    between atoms: C_6  and  C_7 
REMARK    3  A    between atoms: C_11  and  C_12 
REMARK       I    between atoms: C_12  and  N_13 
REMARK    4  A    between atoms: N_13  and  N_14 
ROOT
HETATM    1  C   UNL     1     -35.934  42.258 -55.474  1.00  0.00     0.289 C 
HETATM    2  N   UNL     1     -37.139  42.069 -56.132  1.00  0.00    -0.241 N 
HETATM    3  O   UNL     1     -34.957  42.833 -55.941  1.00  0.00    -0.264 OA
HETATM    4  H   UNL     1     -37.802  41.415 -55.745  1.00  0.00     0.192 HD
ENDROOT
BRANCH   1   5
HETATM    5  C   UNL     1     -35.927  41.726 -54.131  1.00  0.00     0.121 A 
HETATM    6  N   UNL     1     -37.039  41.740 -53.337  1.00  0.00    -0.272 N 
HETATM    7  N   UNL     1     -36.857  41.186 -52.126  1.00  0.00    -0.174 NA
HETATM    8  H   UNL     1     -37.953  42.114 -53.576  1.00  0.00     0.189 HD
HETATM    9  C   UNL     1     -35.582  40.765 -52.133  1.00  0.00     0.089 A 
HETATM   10  C   UNL     1     -34.960  41.108 -53.365  1.00  0.00     0.071 A 
BRANCH   9  11
HETATM   11  C   UNL     1     -34.976  40.065 -50.998  1.00  0.00    -0.005 A 
HETATM   12  C   UNL     1     -33.622  40.246 -50.684  1.00  0.00     0.016 A 
HETATM   13  C   UNL     1     -33.053  39.599 -49.583  1.00  0.00     0.037 A 
HETATM   14  C   UNL     1     -33.823  38.764 -48.774  1.00  0.00     0.068 A 
HETATM   15  C   UNL     1     -35.166  38.559 -49.089  1.00  0.00     0.037 A 
HETATM   16  C   UNL     1     -35.736  39.205 -50.195  1.00  0.00     0.016 A 
BRANCH  14  17
HETATM   17  O   UNL     1     -33.146  38.209 -47.724  1.00  0.00    -0.356 OA
HETATM   18  C   UNL     1     -31.820  38.673 -47.503  1.00  0.00     0.210 C 
ENDBRANCH  14  17
ENDBRANCH   9  11
ENDBRANCH   1   5
BRANCH   2  19
HETATM   19  N   UNL     1     -37.313  42.445 -57.428  1.00  0.00    -0.165 NA
HETATM   20  C   UNL     1     -37.346  41.515 -58.334  1.00  0.00     0.157 A 
HETATM   21  C   UNL     1     -37.316  41.853 -59.839  1.00  0.00     0.277 A 
HETATM   22  C   UNL     1     -37.382  40.045 -58.260  1.00  0.00     0.027 A 
HETATM   23  O   UNL     1     -37.338  42.957 -60.335  1.00  0.00    -0.266 OA
HETATM   24  N   UNL     1     -37.236  40.638 -60.483  1.00  0.00    -0.321 N 
HETATM   25  C   UNL     1     -37.281  39.587 -59.576  1.00  0.00     0.048 A 
HETATM   26  H   UNL     1     -37.201  40.559 -61.489  1.00  0.00     0.169 HD
HETATM   27  C   UNL     1     -37.272  38.241 -59.883  1.00  0.00     0.030 A 
HETATM   28  C   UNL     1     -37.389  37.336 -58.826  1.00  0.00     0.002 A 
HETATM   29  C   UNL     1     -37.533  37.789 -57.503  1.00  0.00     0.001 A 
HETATM   30  C   UNL     1     -37.544  39.157 -57.210  1.00  0.00     0.016 A 
ENDBRANCH   2  19
TORSDOF 4
ENDMDL
MODEL 8
REMARK VINA RESULT:      -7.5      5.150      8.754
REMARK  4 active torsions:
REMARK  status: ('A' for Active; 'I' for Inactive)
REMARK    1  A    between atoms: O_2  and  C_3 
REMARK    2  A    between atoms: C_6  and  C_7 
REMARK    3  A    between atoms: C_11  and  C_12 
REMARK       I    between atoms: C_12  and  N_13 
REMARK    4  A    between atoms: N_13  and  N_14 
ROOT
HETATM    1  C   UNL     1     -44.879  57.921 -51.601  1.00  0.00     0.289 C 
HETATM    2  N   UNL     1     -44.894  58.828 -52.649  1.00  0.00    -0.241 N 
HETATM    3  O   UNL     1     -45.750  57.819 -50.743  1.00  0.00    -0.264 OA
HETATM    4  H   UNL     1     -44.045  58.969 -53.175  1.00  0.00     0.192 HD
ENDROOT
BRANCH   1   5
HETATM    5  C   UNL     1     -43.725  57.053 -51.613  1.00  0.00     0.121 A 
HETATM    6  N   UNL     1     -42.646  57.266 -50.802  1.00  0.00    -0.272 N 
HETATM    7  N   UNL     1     -41.673  56.348 -50.931  1.00  0.00    -0.174 NA
HETATM    8  H   UNL     1     -42.526  58.024 -50.136  1.00  0.00     0.189 HD
HETATM    9  C   UNL     1     -42.141  55.482 -51.842  1.00  0.00     0.089 A 
HETATM   10  C   UNL     1     -43.415  55.903 -52.311  1.00  0.00     0.071 A 
BRANCH   9  11
HETATM   11  C   UNL     1     -41.392  54.293 -52.258  1.00  0.00    -0.005 A 
HETATM   12  C   UNL     1     -41.389  53.879 -53.597  1.00  0.00     0.016 A 
HETATM   13  C   UNL     1     -40.650  52.761 -53.996  1.00  0.00     0.037 A 
HETATM   14  C   UNL     1     -39.900  52.038 -53.070  1.00  0.00     0.068 A 
HETATM   15  C   UNL     1     -39.913  52.427 -51.731  1.00  0.00     0.037 A 
HETATM   16  C   UNL     1     -40.656  53.545 -51.330  1.00  0.00     0.016 A 
BRANCH  14  17
HETATM   17  O   UNL     1     -39.214  50.979 -53.597  1.00  0.00    -0.356 OA
HETATM   18  C   UNL     1     -39.975  50.027 -54.328  1.00  0.00     0.210 C 
ENDBRANCH  14  17
ENDBRANCH   9  11
ENDBRANCH   1   5
BRANCH   2  19
HETATM   19  N   UNL     1     -45.868  59.771 -52.766  1.00  0.00    -0.165 NA
HETATM   20  C   UNL     1     -45.687  60.912 -52.174  1.00  0.00     0.157 A 
HETATM   21  C   UNL     1     -46.821  61.953 -52.064  1.00  0.00     0.277 A 
HETATM   22  C   UNL     1     -44.534  61.509 -51.480  1.00  0.00     0.027 A 
HETATM   23  O   UNL     1     -47.926  61.877 -52.552  1.00  0.00    -0.266 OA
HETATM   24  N   UNL     1     -46.312  62.964 -51.278  1.00  0.00    -0.321 N 
HETATM   25  C   UNL     1     -44.987  62.717 -50.942  1.00  0.00     0.048 A 
HETATM   26  H   UNL     1     -46.847  63.786 -51.039  1.00  0.00     0.169 HD
HETATM   27  C   UNL     1     -44.162  63.545 -50.207  1.00  0.00     0.030 A 
HETATM   28  C   UNL     1     -42.836  63.145 -50.031  1.00  0.00     0.002 A 
HETATM   29  C   UNL     1     -42.360  61.953 -50.604  1.00  0.00     0.001 A 
HETATM   30  C   UNL     1     -43.210  61.127 -51.349  1.00  0.00     0.016 A 
ENDBRANCH   2  19
TORSDOF 4
ENDMDL
MODEL 9
REMARK VINA RESULT:      -7.5      3.058      3.805
REMARK  4 active torsions:
REMARK  status: ('A' for Active; 'I' for Inactive)
REMARK    1  A    between atoms: O_2  and  C_3 
REMARK    2  A    between atoms: C_6  and  C_7 
REMARK    3  A    between atoms: C_11  and  C_12 
REMARK       I    between atoms: C_12  and  N_13 
REMARK    4  A    between atoms: N_13  and  N_14 
ROOT
HETATM    1  C   UNL     1     -42.259  54.620 -55.626  1.00  0.00     0.289 C 
HETATM    2  N   UNL     1     -40.953  54.298 -55.289  1.00  0.00    -0.241 N 
HETATM    3  O   UNL     1     -43.232  53.894 -55.454  1.00  0.00    -0.264 OA
HETATM    4  H   UNL     1     -40.207  54.871 -55.653  1.00  0.00     0.192 HD
ENDROOT
BRANCH   1   5
HETATM    5  C   UNL     1     -42.393  55.941 -56.194  1.00  0.00     0.121 A 
HETATM    6  N   UNL     1     -42.268  57.073 -55.439  1.00  0.00    -0.272 N 
HETATM    7  N   UNL     1     -42.403  58.215 -56.135  1.00  0.00    -0.174 NA
HETATM    8  H   UNL     1     -42.086  57.122 -54.440  1.00  0.00     0.189 HD
HETATM    9  C   UNL     1     -42.598  57.819 -57.403  1.00  0.00     0.089 A 
HETATM   10  C   UNL     1     -42.622  56.400 -57.475  1.00  0.00     0.071 A 
BRANCH   9  11
HETATM   11  C   UNL     1     -42.763  58.767 -58.508  1.00  0.00    -0.005 A 
HETATM   12  C   UNL     1     -43.595  58.463 -59.595  1.00  0.00     0.016 A 
HETATM   13  C   UNL     1     -43.772  59.381 -60.635  1.00  0.00     0.037 A 
HETATM   14  C   UNL     1     -43.127  60.617 -60.609  1.00  0.00     0.068 A 
HETATM   15  C   UNL     1     -42.280  60.922 -59.544  1.00  0.00     0.037 A 
HETATM   16  C   UNL     1     -42.099  60.000 -58.503  1.00  0.00     0.016 A 
BRANCH  14  17
HETATM   17  O   UNL     1     -43.402  61.423 -61.678  1.00  0.00    -0.356 OA
HETATM   18  C   UNL     1     -44.396  60.963 -62.584  1.00  0.00     0.210 C 
ENDBRANCH  14  17
ENDBRANCH   9  11
ENDBRANCH   1   5
BRANCH   2  19
HETATM   19  N   UNL     1     -40.621  53.071 -54.802  1.00  0.00    -0.165 NA
HETATM   20  C   UNL     1     -40.397  52.960 -53.529  1.00  0.00     0.157 A 
HETATM   21  C   UNL     1     -39.804  51.671 -52.922  1.00  0.00     0.277 A 
HETATM   22  C   UNL     1     -40.569  53.886 -52.396  1.00  0.00     0.027 A 
HETATM   23  O   UNL     1     -39.562  50.640 -53.507  1.00  0.00    -0.266 OA
HETATM   24  N   UNL     1     -39.590  51.959 -51.592  1.00  0.00    -0.321 N 
HETATM   25  C   UNL     1     -40.037  53.237 -51.280  1.00  0.00     0.048 A 
HETATM   26  H   UNL     1     -39.203  51.287 -50.947  1.00  0.00     0.169 HD
HETATM   27  C   UNL     1     -40.021  53.826 -50.030  1.00  0.00     0.030 A 
HETATM   28  C   UNL     1     -40.577  55.101 -49.909  1.00  0.00     0.002 A 
HETATM   29  C   UNL     1     -41.152  55.744 -51.019  1.00  0.00     0.001 A 
HETATM   30  C   UNL     1     -41.163  55.131 -52.277  1.00  0.00     0.016 A 
ENDBRANCH   2  19
TORSDOF 4
ENDMDL
MODEL 10
REMARK VINA RESULT:      -7.4      2.998      9.144
REMARK  4 active torsions:
REMARK  status: ('A' for Active; 'I' for Inactive)
REMARK    1  A    between atoms: O_2  and  C_3 
REMARK    2  A    between atoms: C_6  and  C_7 
REMARK    3  A    between atoms: C_11  and  C_12 
REMARK       I    between atoms: C_12  and  N_13 
REMARK    4  A    between atoms: N_13  and  N_14 
ROOT
HETATM    1  C   UNL     1     -42.907  56.136 -57.618  1.00  0.00     0.289 C 
HETATM    2  N   UNL     1     -42.168  57.305 -57.711  1.00  0.00    -0.241 N 
HETATM    3  O   UNL     1     -43.661  55.706 -58.484  1.00  0.00    -0.264 OA
HETATM    4  H   UNL     1     -41.742  57.673 -56.874  1.00  0.00     0.192 HD
ENDROOT
BRANCH   1   5
HETATM    5  C   UNL     1     -42.693  55.421 -56.382  1.00  0.00     0.121 A 
HETATM    6  N   UNL     1     -43.668  55.304 -55.431  1.00  0.00    -0.272 N 
HETATM    7  N   UNL     1     -43.301  54.587 -54.354  1.00  0.00    -0.174 NA
HETATM    8  H   UNL     1     -44.606  55.691 -55.470  1.00  0.00     0.189 HD
HETATM    9  C   UNL     1     -42.045  54.195 -54.618  1.00  0.00     0.089 A 
HETATM   10  C   UNL     1     -41.621  54.719 -55.870  1.00  0.00     0.071 A 
BRANCH   9  11
HETATM   11  C   UNL     1     -41.272  53.353 -53.701  1.00  0.00    -0.005 A 
HETATM   12  C   UNL     1     -41.258  53.617 -52.325  1.00  0.00     0.016 A 
HETATM   13  C   UNL     1     -40.542  52.795 -51.449  1.00  0.00     0.037 A 
HETATM   14  C   UNL     1     -39.831  51.695 -51.928  1.00  0.00     0.068 A 
HETATM   15  C   UNL     1     -39.820  51.436 -53.298  1.00  0.00     0.037 A 
HETATM   16  C   UNL     1     -40.534  52.262 -54.177  1.00  0.00     0.016 A 
BRANCH  14  17
HETATM   17  O   UNL     1     -39.191  50.969 -50.963  1.00  0.00    -0.356 OA
HETATM   18  C   UNL     1     -39.558  49.601 -50.846  1.00  0.00     0.210 C 
ENDBRANCH  14  17
ENDBRANCH   9  11
ENDBRANCH   1   5
BRANCH   2  19
HETATM   19  N   UNL     1     -42.289  58.146 -58.774  1.00  0.00    -0.165 NA
HETATM   20  C   UNL     1     -43.155  59.110 -58.695  1.00  0.00     0.157 A 
HETATM   21  C   UNL     1     -43.519  59.971 -59.923  1.00  0.00     0.277 A 
HETATM   22  C   UNL     1     -43.989  59.620 -57.594  1.00  0.00     0.027 A 
HETATM   23  O   UNL     1     -43.019  59.913 -61.023  1.00  0.00    -0.266 OA
HETATM   24  N   UNL     1     -44.542  60.791 -59.501  1.00  0.00    -0.321 N 
HETATM   25  C   UNL     1     -44.814  60.599 -58.153  1.00  0.00     0.048 A 
HETATM   26  H   UNL     1     -44.980  61.468 -60.109  1.00  0.00     0.169 HD
HETATM   27  C   UNL     1     -45.744  61.289 -57.400  1.00  0.00     0.030 A 
HETATM   28  C   UNL     1     -45.823  60.990 -56.038  1.00  0.00     0.002 A 
HETATM   29  C   UNL     1     -44.967  60.036 -55.459  1.00  0.00     0.001 A 
HETATM   30  C   UNL     1     -44.028  59.349 -56.237  1.00  0.00     0.016 A 
ENDBRANCH   2  19
TORSDOF 4
ENDMDL
