MODEL 1
REMARK VINA RESULT:      -9.3      0.000      0.000
REMARK  5 active torsions:
REMARK  status: ('A' for Active; 'I' for Inactive)
REMARK    1  A    between atoms: C_5  and  C_6 
REMARK    2  A    between atoms: C_9  and  O_10 
REMARK    3  A    between atoms: N_14  and  C_15 
REMARK    4  A    between atoms: C_15  and  C_16 
REMARK       I    between atoms: C_16  and  N_17 
REMARK    5  A    between atoms: N_17  and  C_18 
ROOT
HETATM    1  C   UNL     1     -44.934  58.773 -51.867  1.00  0.00     0.156 C 
HETATM    2  N   UNL     1     -43.614  58.258 -52.145  1.00  0.00    -0.346 N 
HETATM    3  C   UNL     1     -43.307  57.301 -53.050  1.00  0.00     0.113 A 
HETATM    4  C   UNL     1     -41.970  57.020 -52.988  1.00  0.00     0.014 A 
HETATM    5  C   UNL     1     -41.611  55.973 -53.978  1.00  0.00     0.158 A 
HETATM    6  N   UNL     1     -42.928  55.804 -54.648  1.00  0.00    -0.325 N 
HETATM    7  C   UNL     1     -43.950  56.580 -54.094  1.00  0.00     0.272 A 
HETATM    8  O   UNL     1     -45.087  56.712 -54.510  1.00  0.00    -0.266 OA
HETATM    9  C   UNL     1     -41.378  57.922 -52.086  1.00  0.00     0.002 A 
HETATM   10  C   UNL     1     -42.432  58.696 -51.558  1.00  0.00     0.045 A 
HETATM   11  C   UNL     1     -40.059  58.195 -51.677  1.00  0.00     0.014 A 
HETATM   12  C   UNL     1     -39.824  59.221 -50.757  1.00  0.00     0.001 A 
HETATM   13  C   UNL     1     -40.878  59.969 -50.240  1.00  0.00     0.002 A 
HETATM   14  C   UNL     1     -42.199  59.718 -50.626  1.00  0.00     0.030 A 
ENDROOT
BRANCH   6  15
HETATM   15  C   UNL     1     -43.020  55.222 -55.979  1.00  0.00     0.229 C 
BRANCH  15  16
HETATM   16  C   UNL     1     -43.046  56.295 -57.079  1.00  0.00     0.235 C 
HETATM   17  N   UNL     1     -43.949  56.059 -58.095  1.00  0.00    -0.355 N 
HETATM   18  H   UNL     1     -44.310  55.116 -58.180  1.00  0.00     0.162 HD
HETATM   19  O   UNL     1     -42.271  57.249 -57.078  1.00  0.00    -0.272 OA
BRANCH  17  20
HETATM   20  C   UNL     1     -44.168  56.973 -59.207  1.00  0.00     0.084 C 
HETATM   21  C   UNL     1     -44.485  56.219 -60.504  1.00  0.00     0.025 C 
HETATM   22  C   UNL     1     -45.886  55.607 -60.509  1.00  0.00     0.002 C 
HETATM   23  C   UNL     1     -46.959  56.641 -60.175  1.00  0.00     0.000 C 
HETATM   24  C   UNL     1     -46.669  57.341 -58.852  1.00  0.00     0.002 C 
HETATM   25  C   UNL     1     -45.276  57.972 -58.848  1.00  0.00     0.025 C 
ENDBRANCH  17  20
ENDBRANCH  15  16
ENDBRANCH   6  15
BRANCH   5  26
HETATM   26  C   UNL     1     -41.160  54.768 -53.180  1.00  0.00    -0.030 A 
HETATM   27  C   UNL     1     -41.256  54.707 -51.781  1.00  0.00     0.012 A 
HETATM   28  C   UNL     1     -40.793  53.592 -51.078  1.00  0.00     0.037 A 
HETATM   29  C   UNL     1     -40.218  52.512 -51.749  1.00  0.00     0.068 A 
HETATM   30  C   UNL     1     -40.118  52.556 -53.137  1.00  0.00     0.037 A 
HETATM   31  C   UNL     1     -40.588  53.670 -53.846  1.00  0.00     0.012 A 
BRANCH  29  32
HETATM   32  O   UNL     1     -39.794  51.496 -50.938  1.00  0.00    -0.356 OA
HETATM   33  C   UNL     1     -39.424  50.279 -51.571  1.00  0.00     0.210 C 
ENDBRANCH  29  32
ENDBRANCH   5  26
TORSDOF 5
ENDMDL
MODEL 2
REMARK VINA RESULT:      -9.1      1.917      4.905
REMARK  5 active torsions:
REMARK  status: ('A' for Active; 'I' for Inactive)
REMARK    1  A    between atoms: C_5  and  C_6 
REMARK    2  A    between atoms: C_9  and  O_10 
REMARK    3  A    between atoms: N_14  and  C_15 
REMARK    4  A    between atoms: C_15  and  C_16 
REMARK       I    between atoms: C_16  and  N_17 
REMARK    5  A    between atoms: N_17  and  C_18 
ROOT
HETATM    1  C   UNL     1     -40.142  52.239 -54.691  1.00  0.00     0.156 C 
HETATM    2  N   UNL     1     -40.695  53.064 -53.643  1.00  0.00    -0.346 N 
HETATM    3  C   UNL     1     -41.430  54.185 -53.817  1.00  0.00     0.113 A 
HETATM    4  C   UNL     1     -41.722  54.739 -52.601  1.00  0.00     0.014 A 
HETATM    5  C   UNL     1     -42.532  55.971 -52.770  1.00  0.00     0.158 A 
HETATM    6  N   UNL     1     -42.719  55.945 -54.245  1.00  0.00    -0.325 N 
HETATM    7  C   UNL     1     -42.054  54.893 -54.881  1.00  0.00     0.272 A 
HETATM    8  O   UNL     1     -42.122  54.578 -56.057  1.00  0.00    -0.266 OA
HETATM    9  C   UNL     1     -41.251  53.866 -51.603  1.00  0.00     0.002 A 
HETATM   10  C   UNL     1     -40.601  52.813 -52.279  1.00  0.00     0.045 A 
HETATM   11  C   UNL     1     -41.330  53.831 -50.198  1.00  0.00     0.014 A 
HETATM   12  C   UNL     1     -40.761  52.758 -49.505  1.00  0.00     0.001 A 
HETATM   13  C   UNL     1     -40.115  51.732 -50.189  1.00  0.00     0.002 A 
HETATM   14  C   UNL     1     -40.019  51.742 -51.584  1.00  0.00     0.030 A 
ENDROOT
BRANCH   6  15
HETATM   15  C   UNL     1     -43.806  56.680 -54.874  1.00  0.00     0.229 C 
BRANCH  15  16
HETATM   16  C   UNL     1     -43.398  57.262 -56.237  1.00  0.00     0.235 C 
HETATM   17  N   UNL     1     -43.931  56.606 -57.328  1.00  0.00    -0.355 N 
HETATM   18  H   UNL     1     -44.304  55.679 -57.169  1.00  0.00     0.162 HD
HETATM   19  O   UNL     1     -42.606  58.196 -56.336  1.00  0.00    -0.272 OA
BRANCH  17  20
HETATM   20  C   UNL     1     -43.710  57.025 -58.705  1.00  0.00     0.084 C 
HETATM   21  C   UNL     1     -43.220  55.862 -59.576  1.00  0.00     0.025 C 
HETATM   22  C   UNL     1     -44.319  54.843 -59.882  1.00  0.00     0.002 C 
HETATM   23  C   UNL     1     -45.564  55.507 -60.465  1.00  0.00     0.000 C 
HETATM   24  C   UNL     1     -46.082  56.620 -59.562  1.00  0.00     0.002 C 
HETATM   25  C   UNL     1     -44.993  57.653 -59.268  1.00  0.00     0.025 C 
ENDBRANCH  17  20
ENDBRANCH  15  16
ENDBRANCH   6  15
BRANCH   5  26
HETATM   26  C   UNL     1     -41.676  57.117 -52.271  1.00  0.00    -0.030 A 
HETATM   27  C   UNL     1     -40.826  57.850 -53.115  1.00  0.00     0.012 A 
HETATM   28  C   UNL     1     -40.023  58.875 -52.609  1.00  0.00     0.037 A 
HETATM   29  C   UNL     1     -40.042  59.193 -51.250  1.00  0.00     0.068 A 
HETATM   30  C   UNL     1     -40.882  58.478 -50.401  1.00  0.00     0.037 A 
HETATM   31  C   UNL     1     -41.694  57.453 -50.907  1.00  0.00     0.012 A 
BRANCH  29  32
HETATM   32  O   UNL     1     -39.197  60.205 -50.889  1.00  0.00    -0.356 OA
HETATM   33  C   UNL     1     -38.187  59.893 -49.940  1.00  0.00     0.210 C 
ENDBRANCH  29  32
ENDBRANCH   5  26
TORSDOF 5
ENDMDL
MODEL 3
REMARK VINA RESULT:      -8.9      2.594      6.539
REMARK  5 active torsions:
REMARK  status: ('A' for Active; 'I' for Inactive)
REMARK    1  A    between atoms: C_5  and  C_6 
REMARK    2  A    between atoms: C_9  and  O_10 
REMARK    3  A    between atoms: N_14  and  C_15 
REMARK    4  A    between atoms: C_15  and  C_16 
REMARK       I    between atoms: C_16  and  N_17 
REMARK    5  A    between atoms: N_17  and  C_18 
ROOT
HETATM    1  C   UNL     1     -42.020  61.012 -57.016  1.00  0.00     0.156 C 
HETATM    2  N   UNL     1     -42.405  59.628 -57.155  1.00  0.00    -0.346 N 
HETATM    3  C   UNL     1     -42.971  58.858 -56.199  1.00  0.00     0.113 A 
HETATM    4  C   UNL     1     -43.131  57.583 -56.667  1.00  0.00     0.014 A 
HETATM    5  C   UNL     1     -43.756  56.722 -55.631  1.00  0.00     0.158 A 
HETATM    6  N   UNL     1     -44.000  57.741 -54.576  1.00  0.00    -0.325 N 
HETATM    7  C   UNL     1     -43.523  59.015 -54.897  1.00  0.00     0.272 A 
HETATM    8  O   UNL     1     -43.681  60.045 -54.266  1.00  0.00    -0.266 OA
HETATM    9  C   UNL     1     -42.758  57.569 -58.023  1.00  0.00     0.002 A 
HETATM   10  C   UNL     1     -42.298  58.869 -58.316  1.00  0.00     0.045 A 
HETATM   11  C   UNL     1     -42.789  56.607 -59.051  1.00  0.00     0.014 A 
HETATM   12  C   UNL     1     -42.359  56.959 -60.333  1.00  0.00     0.001 A 
HETATM   13  C   UNL     1     -41.898  58.246 -60.602  1.00  0.00     0.002 A 
HETATM   14  C   UNL     1     -41.855  59.220 -59.600  1.00  0.00     0.030 A 
ENDROOT
BRANCH   6  15
HETATM   15  C   UNL     1     -44.989  57.515 -53.533  1.00  0.00     0.229 C 
BRANCH  15  16
HETATM   16  C   UNL     1     -44.349  57.430 -52.137  1.00  0.00     0.235 C 
HETATM   17  N   UNL     1     -43.883  56.178 -51.790  1.00  0.00    -0.355 N 
HETATM   18  H   UNL     1     -44.224  55.394 -52.333  1.00  0.00     0.162 HD
HETATM   19  O   UNL     1     -44.322  58.392 -51.374  1.00  0.00    -0.272 OA
BRANCH  17  20
HETATM   20  C   UNL     1     -43.201  55.892 -50.536  1.00  0.00     0.084 C 
HETATM   21  C   UNL     1     -43.132  54.386 -50.262  1.00  0.00     0.025 C 
HETATM   22  C   UNL     1     -42.134  53.662 -51.167  1.00  0.00     0.002 C 
HETATM   23  C   UNL     1     -40.754  54.312 -51.126  1.00  0.00     0.000 C 
HETATM   24  C   UNL     1     -40.823  55.797 -51.461  1.00  0.00     0.002 C 
HETATM   25  C   UNL     1     -41.805  56.531 -50.547  1.00  0.00     0.025 C 
ENDBRANCH  17  20
ENDBRANCH  15  16
ENDBRANCH   6  15
BRANCH   5  26
HETATM   26  C   UNL     1     -42.721  55.680 -55.262  1.00  0.00    -0.030 A 
HETATM   27  C   UNL     1     -41.354  55.976 -55.151  1.00  0.00     0.012 A 
HETATM   28  C   UNL     1     -40.426  54.977 -54.846  1.00  0.00     0.037 A 
HETATM   29  C   UNL     1     -40.834  53.658 -54.649  1.00  0.00     0.068 A 
HETATM   30  C   UNL     1     -42.188  53.348 -54.752  1.00  0.00     0.037 A 
HETATM   31  C   UNL     1     -43.122  54.349 -55.052  1.00  0.00     0.012 A 
BRANCH  29  32
HETATM   32  O   UNL     1     -39.822  52.781 -54.373  1.00  0.00    -0.356 OA
HETATM   33  C   UNL     1     -40.196  51.491 -53.911  1.00  0.00     0.210 C 
ENDBRANCH  29  32
ENDBRANCH   5  26
TORSDOF 5
ENDMDL
MODEL 4
REMARK VINA RESULT:      -8.6     16.215     19.684
REMARK  5 active torsions:
REMARK  status: ('A' for Active; 'I' for Inactive)
REMARK    1  A    between atoms: C_5  and  C_6 
REMARK    2  A    between atoms: C_9  and  O_10 
REMARK    3  A    between atoms: N_14  and  C_15 
REMARK    4  A    between atoms: C_15  and  C_16 
REMARK       I    between atoms: C_16  and  N_17 
REMARK    5  A    between atoms: N_17  and  C_18 
ROOT
HETATM    1  C   UNL     1     -37.337  42.196 -59.552  1.00  0.00     0.156 C 
HETATM    2  N   UNL     1     -36.828  40.983 -58.958  1.00  0.00    -0.346 N 
HETATM    3  C   UNL     1     -36.565  40.789 -57.646  1.00  0.00     0.113 A 
HETATM    4  C   UNL     1     -36.030  39.543 -57.463  1.00  0.00     0.014 A 
HETATM    5  C   UNL     1     -35.737  39.308 -56.027  1.00  0.00     0.158 A 
HETATM    6  N   UNL     1     -36.283  40.566 -55.453  1.00  0.00    -0.325 N 
HETATM    7  C   UNL     1     -36.766  41.463 -56.410  1.00  0.00     0.272 A 
HETATM    8  O   UNL     1     -37.356  42.510 -56.212  1.00  0.00    -0.266 OA
HETATM    9  C   UNL     1     -36.063  38.870 -58.698  1.00  0.00     0.002 A 
HETATM   10  C   UNL     1     -36.568  39.796 -59.634  1.00  0.00     0.045 A 
HETATM   11  C   UNL     1     -35.753  37.566 -59.126  1.00  0.00     0.014 A 
HETATM   12  C   UNL     1     -35.947  37.219 -60.466  1.00  0.00     0.001 A 
HETATM   13  C   UNL     1     -36.437  38.149 -61.379  1.00  0.00     0.002 A 
HETATM   14  C   UNL     1     -36.751  39.453 -60.982  1.00  0.00     0.030 A 
ENDROOT
BRANCH   6  15
HETATM   15  C   UNL     1     -36.648  40.649 -54.047  1.00  0.00     0.229 C 
BRANCH  15  16
HETATM   16  C   UNL     1     -35.585  41.387 -53.215  1.00  0.00     0.235 C 
HETATM   17  N   UNL     1     -34.619  40.573 -52.659  1.00  0.00    -0.355 N 
HETATM   18  H   UNL     1     -34.824  39.583 -52.612  1.00  0.00     0.162 HD
HETATM   19  O   UNL     1     -35.641  42.598 -53.014  1.00  0.00    -0.272 OA
BRANCH  17  20
HETATM   20  C   UNL     1     -33.497  41.074 -51.879  1.00  0.00     0.084 C 
HETATM   21  C   UNL     1     -33.681  40.794 -50.383  1.00  0.00     0.025 C 
HETATM   22  C   UNL     1     -33.491  39.320 -50.026  1.00  0.00     0.002 C 
HETATM   23  C   UNL     1     -32.165  38.774 -50.549  1.00  0.00     0.000 C 
HETATM   24  C   UNL     1     -32.018  39.000 -52.049  1.00  0.00     0.002 C 
HETATM   25  C   UNL     1     -32.187  40.476 -52.410  1.00  0.00     0.025 C 
ENDBRANCH  17  20
ENDBRANCH  15  16
ENDBRANCH   6  15
BRANCH   5  26
HETATM   26  C   UNL     1     -34.232  39.175 -55.914  1.00  0.00    -0.030 A 
HETATM   27  C   UNL     1     -33.357  40.247 -56.151  1.00  0.00     0.012 A 
HETATM   28  C   UNL     1     -31.973  40.074 -56.075  1.00  0.00     0.037 A 
HETATM   29  C   UNL     1     -31.425  38.828 -55.766  1.00  0.00     0.068 A 
HETATM   30  C   UNL     1     -32.279  37.755 -55.525  1.00  0.00     0.037 A 
HETATM   31  C   UNL     1     -33.669  37.928 -55.595  1.00  0.00     0.012 A 
BRANCH  29  32
HETATM   32  O   UNL     1     -30.058  38.796 -55.740  1.00  0.00    -0.356 OA
HETATM   33  C   UNL     1     -29.395  38.589 -56.979  1.00  0.00     0.210 C 
ENDBRANCH  29  32
ENDBRANCH   5  26
TORSDOF 5
ENDMDL
MODEL 5
REMARK VINA RESULT:      -8.5      2.891      5.637
REMARK  5 active torsions:
REMARK  status: ('A' for Active; 'I' for Inactive)
REMARK    1  A    between atoms: C_5  and  C_6 
REMARK    2  A    between atoms: C_9  and  O_10 
REMARK    3  A    between atoms: N_14  and  C_15 
REMARK    4  A    between atoms: C_15  and  C_16 
REMARK       I    between atoms: C_16  and  N_17 
REMARK    5  A    between atoms: N_17  and  C_18 
ROOT
HETATM    1  C   UNL     1     -43.877  54.437 -51.905  1.00  0.00     0.156 C 
HETATM    2  N   UNL     1     -43.008  54.841 -52.984  1.00  0.00    -0.346 N 
HETATM    3  C   UNL     1     -43.090  55.995 -53.683  1.00  0.00     0.113 A 
HETATM    4  C   UNL     1     -42.146  56.003 -54.672  1.00  0.00     0.014 A 
HETATM    5  C   UNL     1     -42.218  57.265 -55.451  1.00  0.00     0.158 A 
HETATM    6  N   UNL     1     -43.268  57.976 -54.675  1.00  0.00    -0.325 N 
HETATM    7  C   UNL     1     -43.806  57.223 -53.627  1.00  0.00     0.272 A 
HETATM    8  O   UNL     1     -44.597  57.595 -52.778  1.00  0.00    -0.266 OA
HETATM    9  C   UNL     1     -41.349  54.854 -54.522  1.00  0.00     0.002 A 
HETATM   10  C   UNL     1     -41.910  54.127 -53.451  1.00  0.00     0.045 A 
HETATM   11  C   UNL     1     -40.192  54.359 -55.152  1.00  0.00     0.014 A 
HETATM   12  C   UNL     1     -39.628  53.160 -54.707  1.00  0.00     0.001 A 
HETATM   13  C   UNL     1     -40.201  52.451 -53.654  1.00  0.00     0.002 A 
HETATM   14  C   UNL     1     -41.351  52.917 -53.012  1.00  0.00     0.030 A 
ENDROOT
BRANCH   6  15
HETATM   15  C   UNL     1     -43.401  59.423 -54.748  1.00  0.00     0.229 C 
BRANCH  15  16
HETATM   16  C   UNL     1     -44.783  59.852 -55.267  1.00  0.00     0.235 C 
HETATM   17  N   UNL     1     -44.995  59.612 -56.609  1.00  0.00    -0.355 N 
HETATM   18  H   UNL     1     -44.178  59.436 -57.180  1.00  0.00     0.162 HD
HETATM   19  O   UNL     1     -45.600  60.425 -54.550  1.00  0.00    -0.272 OA
BRANCH  17  20
HETATM   20  C   UNL     1     -46.251  59.898 -57.289  1.00  0.00     0.084 C 
HETATM   21  C   UNL     1     -46.020  60.631 -58.616  1.00  0.00     0.025 C 
HETATM   22  C   UNL     1     -45.440  59.726 -59.703  1.00  0.00     0.002 C 
HETATM   23  C   UNL     1     -46.270  58.458 -59.890  1.00  0.00     0.000 C 
HETATM   24  C   UNL     1     -46.441  57.702 -58.578  1.00  0.00     0.002 C 
HETATM   25  C   UNL     1     -47.039  58.596 -57.492  1.00  0.00     0.025 C 
ENDBRANCH  17  20
ENDBRANCH  15  16
ENDBRANCH   6  15
BRANCH   5  26
HETATM   26  C   UNL     1     -42.636  56.879 -56.854  1.00  0.00    -0.030 A 
HETATM   27  C   UNL     1     -43.291  55.671 -57.144  1.00  0.00     0.012 A 
HETATM   28  C   UNL     1     -43.625  55.334 -58.457  1.00  0.00     0.037 A 
HETATM   29  C   UNL     1     -43.312  56.186 -59.516  1.00  0.00     0.068 A 
HETATM   30  C   UNL     1     -42.665  57.390 -59.246  1.00  0.00     0.037 A 
HETATM   31  C   UNL     1     -42.334  57.734 -57.928  1.00  0.00     0.012 A 
BRANCH  29  32
HETATM   32  O   UNL     1     -43.682  55.726 -60.749  1.00  0.00    -0.356 OA
HETATM   33  C   UNL     1     -44.879  54.963 -60.819  1.00  0.00     0.210 C 
ENDBRANCH  29  32
ENDBRANCH   5  26
TORSDOF 5
ENDMDL
MODEL 6
REMARK VINA RESULT:      -8.4      3.063      6.306
REMARK  5 active torsions:
REMARK  status: ('A' for Active; 'I' for Inactive)
REMARK    1  A    between atoms: C_5  and  C_6 
REMARK    2  A    between atoms: C_9  and  O_10 
REMARK    3  A    between atoms: N_14  and  C_15 
REMARK    4  A    between atoms: C_15  and  C_16 
REMARK       I    between atoms: C_16  and  N_17 
REMARK    5  A    between atoms: N_17  and  C_18 
ROOT
HETATM    1  C   UNL     1     -40.384  52.396 -55.059  1.00  0.00     0.156 C 
HETATM    2  N   UNL     1     -40.848  53.113 -53.895  1.00  0.00    -0.346 N 
HETATM    3  C   UNL     1     -41.651  54.200 -53.898  1.00  0.00     0.113 A 
HETATM    4  C   UNL     1     -41.823  54.650 -52.617  1.00  0.00     0.014 A 
HETATM    5  C   UNL     1     -42.706  55.843 -52.597  1.00  0.00     0.158 A 
HETATM    6  N   UNL     1     -43.066  55.909 -54.039  1.00  0.00    -0.325 N 
HETATM    7  C   UNL     1     -42.431  54.943 -54.826  1.00  0.00     0.272 A 
HETATM    8  O   UNL     1     -42.623  54.708 -56.006  1.00  0.00    -0.266 OA
HETATM    9  C   UNL     1     -41.195  53.738 -51.749  1.00  0.00     0.002 A 
HETATM   10  C   UNL     1     -40.580  52.774 -52.574  1.00  0.00     0.045 A 
HETATM   11  C   UNL     1     -41.104  53.600 -50.351  1.00  0.00     0.014 A 
HETATM   12  C   UNL     1     -40.405  52.517 -49.812  1.00  0.00     0.001 A 
HETATM   13  C   UNL     1     -39.796  51.579 -50.642  1.00  0.00     0.002 A 
HETATM   14  C   UNL     1     -39.867  51.692 -52.034  1.00  0.00     0.030 A 
ENDROOT
BRANCH   6  15
HETATM   15  C   UNL     1     -44.254  56.623 -54.481  1.00  0.00     0.229 C 
BRANCH  15  16
HETATM   16  C   UNL     1     -44.033  58.144 -54.525  1.00  0.00     0.235 C 
HETATM   17  N   UNL     1     -44.617  58.842 -53.488  1.00  0.00    -0.355 N 
HETATM   18  H   UNL     1     -45.336  58.364 -52.959  1.00  0.00     0.162 HD
HETATM   19  O   UNL     1     -43.439  58.689 -55.452  1.00  0.00    -0.272 OA
BRANCH  17  20
HETATM   20  C   UNL     1     -44.489  60.282 -53.315  1.00  0.00     0.084 C 
HETATM   21  C   UNL     1     -45.854  60.951 -53.121  1.00  0.00     0.025 C 
HETATM   22  C   UNL     1     -46.466  60.669 -51.749  1.00  0.00     0.002 C 
HETATM   23  C   UNL     1     -45.501  61.007 -50.615  1.00  0.00     0.000 C 
HETATM   24  C   UNL     1     -44.167  60.288 -50.782  1.00  0.00     0.002 C 
HETATM   25  C   UNL     1     -43.540  60.581 -52.145  1.00  0.00     0.025 C 
ENDBRANCH  17  20
ENDBRANCH  15  16
ENDBRANCH   6  15
BRANCH   5  26
HETATM   26  C   UNL     1     -41.854  56.998 -52.116  1.00  0.00    -0.030 A 
HETATM   27  C   UNL     1     -41.038  57.748 -52.977  1.00  0.00     0.012 A 
HETATM   28  C   UNL     1     -40.236  58.782 -52.487  1.00  0.00     0.037 A 
HETATM   29  C   UNL     1     -40.222  59.092 -51.127  1.00  0.00     0.068 A 
HETATM   30  C   UNL     1     -41.028  58.359 -50.258  1.00  0.00     0.037 A 
HETATM   31  C   UNL     1     -41.839  57.325 -50.749  1.00  0.00     0.012 A 
BRANCH  29  32
HETATM   32  O   UNL     1     -39.382  60.114 -50.782  1.00  0.00    -0.356 OA
HETATM   33  C   UNL     1     -38.218  59.770 -50.045  1.00  0.00     0.210 C 
ENDBRANCH  29  32
ENDBRANCH   5  26
TORSDOF 5
ENDMDL
MODEL 7
REMARK VINA RESULT:      -8.3      3.153      6.184
REMARK  5 active torsions:
REMARK  status: ('A' for Active; 'I' for Inactive)
REMARK    1  A    between atoms: C_5  and  C_6 
REMARK    2  A    between atoms: C_9  and  O_10 
REMARK    3  A    between atoms: N_14  and  C_15 
REMARK    4  A    between atoms: C_15  and  C_16 
REMARK       I    between atoms: C_16  and  N_17 
REMARK    5  A    between atoms: N_17  and  C_18 
ROOT
HETATM    1  C   UNL     1     -42.966  55.495 -50.814  1.00  0.00     0.156 C 
HETATM    2  N   UNL     1     -42.389  55.706 -52.120  1.00  0.00    -0.346 N 
HETATM    3  C   UNL     1     -42.380  56.869 -52.809  1.00  0.00     0.113 A 
HETATM    4  C   UNL     1     -41.809  56.674 -54.037  1.00  0.00     0.014 A 
HETATM    5  C   UNL     1     -41.786  57.943 -54.808  1.00  0.00     0.158 A 
HETATM    6  N   UNL     1     -42.336  58.867 -53.781  1.00  0.00    -0.325 N 
HETATM    7  C   UNL     1     -42.706  58.236 -52.591  1.00  0.00     0.272 A 
HETATM    8  O   UNL     1     -43.082  58.764 -51.559  1.00  0.00    -0.266 OA
HETATM    9  C   UNL     1     -41.326  55.354 -54.086  1.00  0.00     0.002 A 
HETATM   10  C   UNL     1     -41.704  54.754 -52.868  1.00  0.00     0.045 A 
HETATM   11  C   UNL     1     -40.580  54.605 -55.015  1.00  0.00     0.014 A 
HETATM   12  C   UNL     1     -40.234  53.284 -54.713  1.00  0.00     0.001 A 
HETATM   13  C   UNL     1     -40.624  52.705 -53.508  1.00  0.00     0.002 A 
HETATM   14  C   UNL     1     -41.368  53.424 -52.568  1.00  0.00     0.030 A 
ENDROOT
BRANCH   6  15
HETATM   15  C   UNL     1     -42.109  60.302 -53.870  1.00  0.00     0.229 C 
BRANCH  15  16
HETATM   16  C   UNL     1     -42.979  60.959 -54.954  1.00  0.00     0.235 C 
HETATM   17  N   UNL     1     -42.305  61.297 -56.109  1.00  0.00    -0.355 N 
HETATM   18  H   UNL     1     -41.295  61.339 -56.057  1.00  0.00     0.162 HD
HETATM   19  O   UNL     1     -44.165  61.220 -54.768  1.00  0.00    -0.272 OA
BRANCH  17  20
HETATM   20  C   UNL     1     -42.950  61.884 -57.275  1.00  0.00     0.084 C 
HETATM   21  C   UNL     1     -42.208  63.135 -57.761  1.00  0.00     0.025 C 
HETATM   22  C   UNL     1     -40.881  62.811 -58.446  1.00  0.00     0.002 C 
HETATM   23  C   UNL     1     -41.052  61.783 -59.561  1.00  0.00     0.000 C 
HETATM   24  C   UNL     1     -41.734  60.516 -59.055  1.00  0.00     0.002 C 
HETATM   25  C   UNL     1     -43.072  60.831 -58.386  1.00  0.00     0.025 C 
ENDBRANCH  17  20
ENDBRANCH  15  16
ENDBRANCH   6  15
BRANCH   5  26
HETATM   26  C   UNL     1     -42.693  57.732 -56.003  1.00  0.00    -0.030 A 
HETATM   27  C   UNL     1     -44.085  57.900 -55.937  1.00  0.00     0.012 A 
HETATM   28  C   UNL     1     -44.890  57.657 -57.052  1.00  0.00     0.037 A 
HETATM   29  C   UNL     1     -44.332  57.237 -58.260  1.00  0.00     0.068 A 
HETATM   30  C   UNL     1     -42.952  57.069 -58.343  1.00  0.00     0.037 A 
HETATM   31  C   UNL     1     -42.140  57.318 -57.227  1.00  0.00     0.012 A 
BRANCH  29  32
HETATM   32  O   UNL     1     -45.235  57.023 -59.263  1.00  0.00    -0.356 OA
HETATM   33  C   UNL     1     -45.128  55.798 -59.975  1.00  0.00     0.210 C 
ENDBRANCH  29  32
ENDBRANCH   5  26
TORSDOF 5
ENDMDL
MODEL 8
REMARK VINA RESULT:      -8.3      2.636      7.549
REMARK  5 active torsions:
REMARK  status: ('A' for Active; 'I' for Inactive)
REMARK    1  A    between atoms: C_5  and  C_6 
REMARK    2  A    between atoms: C_9  and  O_10 
REMARK    3  A    between atoms: N_14  and  C_15 
REMARK    4  A    between atoms: C_15  and  C_16 
REMARK       I    between atoms: C_16  and  N_17 
REMARK    5  A    between atoms: N_17  and  C_18 
ROOT
HETATM    1  C   UNL     1     -41.286  54.087 -50.096  1.00  0.00     0.156 C 
HETATM    2  N   UNL     1     -41.148  54.659 -51.415  1.00  0.00    -0.346 N 
HETATM    3  C   UNL     1     -41.289  55.964 -51.735  1.00  0.00     0.113 A 
HETATM    4  C   UNL     1     -41.157  56.124 -53.087  1.00  0.00     0.014 A 
HETATM    5  C   UNL     1     -41.305  57.554 -53.460  1.00  0.00     0.158 A 
HETATM    6  N   UNL     1     -41.434  58.151 -52.104  1.00  0.00    -0.325 N 
HETATM    7  C   UNL     1     -41.441  57.212 -51.069  1.00  0.00     0.272 A 
HETATM    8  O   UNL     1     -41.429  57.431 -49.871  1.00  0.00    -0.266 OA
HETATM    9  C   UNL     1     -40.800  54.880 -53.639  1.00  0.00     0.002 A 
HETATM   10  C   UNL     1     -40.802  53.963 -52.568  1.00  0.00     0.045 A 
HETATM   11  C   UNL     1     -40.442  54.431 -54.924  1.00  0.00     0.014 A 
HETATM   12  C   UNL     1     -40.101  53.088 -55.111  1.00  0.00     0.001 A 
HETATM   13  C   UNL     1     -40.118  52.194 -54.043  1.00  0.00     0.002 A 
HETATM   14  C   UNL     1     -40.472  52.612 -52.757  1.00  0.00     0.030 A 
ENDROOT
BRANCH   6  15
HETATM   15  C   UNL     1     -41.158  59.562 -51.880  1.00  0.00     0.229 C 
BRANCH  15  16
HETATM   16  C   UNL     1     -42.383  60.445 -52.173  1.00  0.00     0.235 C 
HETATM   17  N   UNL     1     -43.337  60.459 -51.176  1.00  0.00    -0.355 N 
HETATM   18  H   UNL     1     -43.294  59.717 -50.488  1.00  0.00     0.162 HD
HETATM   19  O   UNL     1     -42.521  61.033 -53.243  1.00  0.00    -0.272 OA
BRANCH  17  20
HETATM   20  C   UNL     1     -44.548  61.265 -51.232  1.00  0.00     0.084 C 
HETATM   21  C   UNL     1     -45.662  60.672 -50.362  1.00  0.00     0.025 C 
HETATM   22  C   UNL     1     -45.408  60.850 -48.865  1.00  0.00     0.002 C 
HETATM   23  C   UNL     1     -45.121  62.306 -48.507  1.00  0.00     0.000 C 
HETATM   24  C   UNL     1     -43.969  62.870 -49.332  1.00  0.00     0.002 C 
HETATM   25  C   UNL     1     -44.226  62.712 -50.830  1.00  0.00     0.025 C 
ENDBRANCH  17  20
ENDBRANCH  15  16
ENDBRANCH   6  15
BRANCH   5  26
HETATM   26  C   UNL     1     -42.559  57.648 -54.303  1.00  0.00    -0.030 A 
HETATM   27  C   UNL     1     -42.525  57.867 -55.689  1.00  0.00     0.012 A 
HETATM   28  C   UNL     1     -43.706  57.987 -56.426  1.00  0.00     0.037 A 
HETATM   29  C   UNL     1     -44.950  57.897 -55.802  1.00  0.00     0.068 A 
HETATM   30  C   UNL     1     -45.002  57.676 -54.427  1.00  0.00     0.037 A 
HETATM   31  C   UNL     1     -43.818  57.549 -53.687  1.00  0.00     0.012 A 
BRANCH  29  32
HETATM   32  O   UNL     1     -46.021  58.047 -56.637  1.00  0.00    -0.356 OA
HETATM   33  C   UNL     1     -45.740  58.346 -57.998  1.00  0.00     0.210 C 
ENDBRANCH  29  32
ENDBRANCH   5  26
TORSDOF 5
ENDMDL
MODEL 9
REMARK VINA RESULT:      -8.2      2.026      5.177
REMARK  5 active torsions:
REMARK  status: ('A' for Active; 'I' for Inactive)
REMARK    1  A    between atoms: C_5  and  C_6 
REMARK    2  A    between atoms: C_9  and  O_10 
REMARK    3  A    between atoms: N_14  and  C_15 
REMARK    4  A    between atoms: C_15  and  C_16 
REMARK       I    between atoms: C_16  and  N_17 
REMARK    5  A    between atoms: N_17  and  C_18 
ROOT
HETATM    1  C   UNL     1     -40.246  54.177 -54.681  1.00  0.00     0.156 C 
HETATM    2  N   UNL     1     -41.119  54.700 -53.657  1.00  0.00    -0.346 N 
HETATM    3  C   UNL     1     -42.155  55.547 -53.851  1.00  0.00     0.113 A 
HETATM    4  C   UNL     1     -42.709  55.881 -52.645  1.00  0.00     0.014 A 
HETATM    5  C   UNL     1     -43.852  56.810 -52.836  1.00  0.00     0.158 A 
HETATM    6  N   UNL     1     -43.895  56.847 -54.323  1.00  0.00    -0.325 N 
HETATM    7  C   UNL     1     -42.879  56.110 -54.938  1.00  0.00     0.272 A 
HETATM    8  O   UNL     1     -42.744  55.887 -56.128  1.00  0.00    -0.266 OA
HETATM    9  C   UNL     1     -42.072  55.120 -51.649  1.00  0.00     0.002 A 
HETATM   10  C   UNL     1     -41.066  54.381 -52.305  1.00  0.00     0.045 A 
HETATM   11  C   UNL     1     -42.254  54.947 -50.264  1.00  0.00     0.014 A 
HETATM   12  C   UNL     1     -41.434  54.053 -49.570  1.00  0.00     0.001 A 
HETATM   13  C   UNL     1     -40.439  53.338 -50.233  1.00  0.00     0.002 A 
HETATM   14  C   UNL     1     -40.234  53.491 -51.608  1.00  0.00     0.030 A 
ENDROOT
BRANCH   6  15
HETATM   15  C   UNL     1     -45.102  57.256 -55.025  1.00  0.00     0.229 C 
BRANCH  15  16
HETATM   16  C   UNL     1     -44.786  57.995 -56.336  1.00  0.00     0.235 C 
HETATM   17  N   UNL     1     -45.070  57.283 -57.483  1.00  0.00    -0.355 N 
HETATM   18  H   UNL     1     -45.198  56.283 -57.384  1.00  0.00     0.162 HD
HETATM   19  O   UNL     1     -44.260  59.105 -56.348  1.00  0.00    -0.272 OA
BRANCH  17  20
HETATM   20  C   UNL     1     -44.892  57.816 -58.826  1.00  0.00     0.084 C 
HETATM   21  C   UNL     1     -43.559  57.370 -59.438  1.00  0.00     0.025 C 
HETATM   22  C   UNL     1     -43.552  55.894 -59.838  1.00  0.00     0.002 C 
HETATM   23  C   UNL     1     -44.736  55.543 -60.735  1.00  0.00     0.000 C 
HETATM   24  C   UNL     1     -46.062  55.932 -60.092  1.00  0.00     0.002 C 
HETATM   25  C   UNL     1     -46.083  57.411 -59.707  1.00  0.00     0.025 C 
ENDBRANCH  17  20
ENDBRANCH  15  16
ENDBRANCH   6  15
BRANCH   5  26
HETATM   26  C   UNL     1     -43.449  58.120 -52.193  1.00  0.00    -0.030 A 
HETATM   27  C   UNL     1     -44.301  58.837 -51.337  1.00  0.00     0.012 A 
HETATM   28  C   UNL     1     -43.907  60.062 -50.794  1.00  0.00     0.037 A 
HETATM   29  C   UNL     1     -42.658  60.608 -51.092  1.00  0.00     0.068 A 
HETATM   30  C   UNL     1     -41.800  59.908 -51.937  1.00  0.00     0.037 A 
HETATM   31  C   UNL     1     -42.190  58.675 -52.479  1.00  0.00     0.012 A 
BRANCH  29  32
HETATM   32  O   UNL     1     -42.408  61.817 -50.506  1.00  0.00    -0.356 OA
HETATM   33  C   UNL     1     -43.236  62.905 -50.894  1.00  0.00     0.210 C 
ENDBRANCH  29  32
ENDBRANCH   5  26
TORSDOF 5
ENDMDL
MODEL 10
REMARK VINA RESULT:      -8.2      2.897      6.865
REMARK  5 active torsions:
REMARK  status: ('A' for Active; 'I' for Inactive)
REMARK    1  A    between atoms: C_5  and  C_6 
REMARK    2  A    between atoms: C_9  and  O_10 
REMARK    3  A    between atoms: N_14  and  C_15 
REMARK    4  A    between atoms: C_15  and  C_16 
REMARK       I    between atoms: C_16  and  N_17 
REMARK    5  A    between atoms: N_17  and  C_18 
ROOT
HETATM    1  C   UNL     1     -41.241  54.052 -50.128  1.00  0.00     0.156 C 
HETATM    2  N   UNL     1     -41.128  54.646 -51.438  1.00  0.00    -0.346 N 
HETATM    3  C   UNL     1     -41.284  55.956 -51.734  1.00  0.00     0.113 A 
HETATM    4  C   UNL     1     -41.174  56.140 -53.086  1.00  0.00     0.014 A 
HETATM    5  C   UNL     1     -41.339  57.574 -53.431  1.00  0.00     0.158 A 
HETATM    6  N   UNL     1     -41.455  58.148 -52.064  1.00  0.00    -0.325 N 
HETATM    7  C   UNL     1     -41.438  57.191 -51.045  1.00  0.00     0.272 A 
HETATM    8  O   UNL     1     -41.411  57.390 -49.843  1.00  0.00    -0.266 OA
HETATM    9  C   UNL     1     -40.814  54.909 -53.663  1.00  0.00     0.002 A 
HETATM   10  C   UNL     1     -40.792  53.974 -52.608  1.00  0.00     0.045 A 
HETATM   11  C   UNL     1     -40.470  54.484 -54.960  1.00  0.00     0.014 A 
HETATM   12  C   UNL     1     -40.120  53.148 -55.175  1.00  0.00     0.001 A 
HETATM   13  C   UNL     1     -40.114  52.236 -54.123  1.00  0.00     0.002 A 
HETATM   14  C   UNL     1     -40.453  52.629 -52.825  1.00  0.00     0.030 A 
ENDROOT
BRANCH   6  15
HETATM   15  C   UNL     1     -41.188  59.557 -51.820  1.00  0.00     0.229 C 
BRANCH  15  16
HETATM   16  C   UNL     1     -42.482  60.367 -51.636  1.00  0.00     0.235 C 
HETATM   17  N   UNL     1     -42.779  61.225 -52.675  1.00  0.00    -0.355 N 
HETATM   18  H   UNL     1     -42.027  61.449 -53.316  1.00  0.00     0.162 HD
HETATM   19  O   UNL     1     -43.154  60.298 -50.610  1.00  0.00    -0.272 OA
BRANCH  17  20
HETATM   20  C   UNL     1     -43.981  62.046 -52.723  1.00  0.00     0.084 C 
HETATM   21  C   UNL     1     -43.670  63.474 -53.186  1.00  0.00     0.025 C 
HETATM   22  C   UNL     1     -43.348  63.558 -54.678  1.00  0.00     0.002 C 
HETATM   23  C   UNL     1     -44.431  62.906 -55.533  1.00  0.00     0.000 C 
HETATM   24  C   UNL     1     -44.689  61.465 -55.106  1.00  0.00     0.002 C 
HETATM   25  C   UNL     1     -45.032  61.376 -53.619  1.00  0.00     0.025 C 
ENDBRANCH  17  20
ENDBRANCH  15  16
ENDBRANCH   6  15
BRANCH   5  26
HETATM   26  C   UNL     1     -42.606  57.671 -54.255  1.00  0.00    -0.030 A 
HETATM   27  C   UNL     1     -42.594  57.904 -55.640  1.00  0.00     0.012 A 
HETATM   28  C   UNL     1     -43.786  58.026 -56.358  1.00  0.00     0.037 A 
HETATM   29  C   UNL     1     -45.020  57.924 -55.715  1.00  0.00     0.068 A 
HETATM   30  C   UNL     1     -45.051  57.690 -54.343  1.00  0.00     0.037 A 
HETATM   31  C   UNL     1     -43.855  57.561 -53.621  1.00  0.00     0.012 A 
BRANCH  29  32
HETATM   32  O   UNL     1     -46.105  58.078 -56.534  1.00  0.00    -0.356 OA
HETATM   33  C   UNL     1     -45.848  58.459 -57.878  1.00  0.00     0.210 C 
ENDBRANCH  29  32
ENDBRANCH   5  26
TORSDOF 5
ENDMDL
