MODEL 1
REMARK VINA RESULT:      -7.7      0.000      0.000
REMARK  7 active torsions:
REMARK  status: ('A' for Active; 'I' for Inactive)
REMARK       I    between atoms: N_2  and  C_3 
REMARK    1  A    between atoms: N_2  and  C_17 
REMARK       I    between atoms: C_3  and  N_4 
REMARK    2  A    between atoms: N_4  and  C_5 
REMARK    3  A    between atoms: N_6  and  C_7 
REMARK    4  A    between atoms: C_17  and  C_18 
REMARK    5  A    between atoms: C_18  and  C_19 
REMARK    6  A    between atoms: C_19  and  O_20 
REMARK    7  A    between atoms: C_19  and  C_21 
ROOT
HETATM    1  C   UNL     1     -42.110  59.025 -55.561  1.00  0.00     0.154 C 
HETATM    2  N   UNL     1     -42.438  57.894 -56.416  1.00  0.00    -0.343 N 
HETATM    3  C   UNL     1     -42.361  56.566 -55.998  1.00  0.00     0.301 C 
HETATM    4  N   UNL     1     -41.392  56.363 -55.026  1.00  0.00    -0.194 NA
HETATM    5  O   UNL     1     -43.026  55.673 -56.516  1.00  0.00    -0.254 OA
HETATM    6  H   UNL     1     -40.552  56.876 -55.261  1.00  0.00     0.140 HD
ENDROOT
BRANCH   2   7
HETATM    7  C   UNL     1     -42.974  58.190 -57.743  1.00  0.00     0.129 C 
BRANCH   7   8
HETATM    8  C   UNL     1     -41.903  58.325 -58.824  1.00  0.00     0.056 C 
BRANCH   8   9
HETATM    9  C   UNL     1     -42.272  57.538 -60.091  1.00  0.00     0.152 C 
BRANCH   9  10
HETATM   10  O   UNL     1     -41.258  56.559 -60.326  1.00  0.00    -0.391 OA
HETATM   11  H   UNL     1     -41.555  55.735 -59.905  1.00  0.00     0.210 HD
ENDBRANCH   9  10
BRANCH   9  12
HETATM   12  C   UNL     1     -43.597  56.801 -60.104  1.00  0.00    -0.030 A 
HETATM   13  C   UNL     1     -43.713  55.412 -59.941  1.00  0.00     0.010 A 
HETATM   14  C   UNL     1     -44.961  54.784 -60.002  1.00  0.00     0.001 A 
HETATM   15  C   UNL     1     -46.112  55.530 -60.240  1.00  0.00     0.000 A 
HETATM   16  C   UNL     1     -46.018  56.906 -60.418  1.00  0.00     0.001 A 
HETATM   17  C   UNL     1     -44.771  57.535 -60.352  1.00  0.00     0.010 A 
ENDBRANCH   9  12
ENDBRANCH   8   9
ENDBRANCH   7   8
ENDBRANCH   2   7
BRANCH   4  18
HETATM   18  C   UNL     1     -41.175  55.082 -54.539  1.00  0.00     0.109 A 
HETATM   19  N   UNL     1     -41.867  54.473 -53.506  1.00  0.00    -0.254 N 
HETATM   20  N   UNL     1     -41.442  53.204 -53.293  1.00  0.00    -0.183 NA
HETATM   21  C   UNL     1     -40.433  53.046 -54.146  1.00  0.00     0.142 A 
HETATM   22  C   UNL     1     -40.188  54.197 -54.909  1.00  0.00     0.065 A 
BRANCH  19  23
HETATM   23  C   UNL     1     -42.795  55.102 -52.559  1.00  0.00     0.111 C 
HETATM   24  C   UNL     1     -43.189  54.224 -51.348  1.00  0.00     0.027 C 
HETATM   25  C   UNL     1     -42.110  54.130 -50.260  1.00  0.00     0.002 C 
HETATM   26  C   UNL     1     -41.570  55.494 -49.848  1.00  0.00     0.000 C 
HETATM   27  C   UNL     1     -41.140  56.324 -51.050  1.00  0.00     0.002 C 
HETATM   28  C   UNL     1     -42.277  56.465 -52.058  1.00  0.00     0.027 C 
ENDBRANCH  19  23
ENDBRANCH   4  18
TORSDOF 7
ENDMDL
MODEL 2
REMARK VINA RESULT:      -7.7      3.307      7.582
REMARK  7 active torsions:
REMARK  status: ('A' for Active; 'I' for Inactive)
REMARK       I    between atoms: N_2  and  C_3 
REMARK    1  A    between atoms: N_2  and  C_17 
REMARK       I    between atoms: C_3  and  N_4 
REMARK    2  A    between atoms: N_4  and  C_5 
REMARK    3  A    between atoms: N_6  and  C_7 
REMARK    4  A    between atoms: C_17  and  C_18 
REMARK    5  A    between atoms: C_18  and  C_19 
REMARK    6  A    between atoms: C_19  and  O_20 
REMARK    7  A    between atoms: C_19  and  C_21 
ROOT
HETATM    1  C   UNL     1     -43.959  54.212 -50.582  1.00  0.00     0.154 C 
HETATM    2  N   UNL     1     -42.945  55.255 -50.629  1.00  0.00    -0.343 N 
HETATM    3  C   UNL     1     -43.134  56.483 -51.261  1.00  0.00     0.301 C 
HETATM    4  N   UNL     1     -44.013  56.407 -52.332  1.00  0.00    -0.194 NA
HETATM    5  O   UNL     1     -42.508  57.491 -50.943  1.00  0.00    -0.254 OA
HETATM    6  H   UNL     1     -43.828  55.575 -52.876  1.00  0.00     0.140 HD
ENDROOT
BRANCH   2   7
HETATM    7  C   UNL     1     -41.712  55.026 -49.879  1.00  0.00     0.129 C 
BRANCH   7   8
HETATM    8  C   UNL     1     -40.475  54.870 -50.761  1.00  0.00     0.056 C 
BRANCH   8   9
HETATM    9  C   UNL     1     -39.916  53.439 -50.709  1.00  0.00     0.152 C 
BRANCH   9  10
HETATM   10  O   UNL     1     -40.615  52.717 -49.693  1.00  0.00    -0.391 OA
HETATM   11  H   UNL     1     -39.974  52.523 -48.989  1.00  0.00     0.210 HD
ENDBRANCH   9  10
BRANCH   9  12
HETATM   12  C   UNL     1     -40.001  52.602 -51.970  1.00  0.00    -0.030 A 
HETATM   13  C   UNL     1     -40.607  53.044 -53.156  1.00  0.00     0.010 A 
HETATM   14  C   UNL     1     -40.690  52.210 -54.275  1.00  0.00     0.001 A 
HETATM   15  C   UNL     1     -40.180  50.916 -54.226  1.00  0.00     0.000 A 
HETATM   16  C   UNL     1     -39.586  50.452 -53.056  1.00  0.00     0.001 A 
HETATM   17  C   UNL     1     -39.499  51.288 -51.939  1.00  0.00     0.010 A 
ENDBRANCH   9  12
ENDBRANCH   8   9
ENDBRANCH   7   8
ENDBRANCH   2   7
BRANCH   4  18
HETATM   18  C   UNL     1     -44.271  57.547 -53.082  1.00  0.00     0.109 A 
HETATM   19  N   UNL     1     -43.620  57.925 -54.243  1.00  0.00    -0.254 N 
HETATM   20  N   UNL     1     -44.129  59.071 -54.756  1.00  0.00    -0.183 NA
HETATM   21  C   UNL     1     -45.051  59.448 -53.874  1.00  0.00     0.142 A 
HETATM   22  C   UNL     1     -45.147  58.566 -52.787  1.00  0.00     0.065 A 
BRANCH  19  23
HETATM   23  C   UNL     1     -42.387  57.357 -54.803  1.00  0.00     0.111 C 
HETATM   24  C   UNL     1     -42.221  55.832 -54.601  1.00  0.00     0.027 C 
HETATM   25  C   UNL     1     -43.071  54.973 -55.546  1.00  0.00     0.002 C 
HETATM   26  C   UNL     1     -42.934  55.393 -57.005  1.00  0.00     0.000 C 
HETATM   27  C   UNL     1     -43.153  56.889 -57.192  1.00  0.00     0.002 C 
HETATM   28  C   UNL     1     -42.218  57.698 -56.297  1.00  0.00     0.027 C 
ENDBRANCH  19  23
ENDBRANCH   4  18
TORSDOF 7
ENDMDL
MODEL 3
REMARK VINA RESULT:      -7.7      2.463      8.187
REMARK  7 active torsions:
REMARK  status: ('A' for Active; 'I' for Inactive)
REMARK       I    between atoms: N_2  and  C_3 
REMARK    1  A    between atoms: N_2  and  C_17 
REMARK       I    between atoms: C_3  and  N_4 
REMARK    2  A    between atoms: N_4  and  C_5 
REMARK    3  A    between atoms: N_6  and  C_7 
REMARK    4  A    between atoms: C_17  and  C_18 
REMARK    5  A    between atoms: C_18  and  C_19 
REMARK    6  A    between atoms: C_19  and  O_20 
REMARK    7  A    between atoms: C_19  and  C_21 
ROOT
HETATM    1  C   UNL     1     -42.435  56.882 -54.552  1.00  0.00     0.154 C 
HETATM    2  N   UNL     1     -42.712  55.838 -55.527  1.00  0.00    -0.343 N 
HETATM    3  C   UNL     1     -43.155  56.093 -56.824  1.00  0.00     0.301 C 
HETATM    4  N   UNL     1     -43.904  57.258 -56.916  1.00  0.00    -0.194 NA
HETATM    5  O   UNL     1     -42.970  55.309 -57.751  1.00  0.00    -0.254 OA
HETATM    6  H   UNL     1     -44.542  57.325 -56.134  1.00  0.00     0.140 HD
ENDROOT
BRANCH   2   7
HETATM    7  C   UNL     1     -42.402  54.462 -55.142  1.00  0.00     0.129 C 
BRANCH   7   8
HETATM    8  C   UNL     1     -40.908  54.191 -54.976  1.00  0.00     0.056 C 
BRANCH   8   9
HETATM    9  C   UNL     1     -40.569  53.729 -53.550  1.00  0.00     0.152 C 
BRANCH   9  10
HETATM   10  O   UNL     1     -41.697  53.987 -52.711  1.00  0.00    -0.391 OA
HETATM   11  H   UNL     1     -41.810  53.210 -52.139  1.00  0.00     0.210 HD
ENDBRANCH   9  10
BRANCH   9  12
HETATM   12  C   UNL     1     -40.204  52.271 -53.348  1.00  0.00    -0.030 A 
HETATM   13  C   UNL     1     -40.322  51.296 -54.350  1.00  0.00     0.010 A 
HETATM   14  C   UNL     1     -40.008  49.958 -54.091  1.00  0.00     0.001 A 
HETATM   15  C   UNL     1     -39.581  49.569 -52.825  1.00  0.00     0.000 A 
HETATM   16  C   UNL     1     -39.469  50.518 -51.813  1.00  0.00     0.001 A 
HETATM   17  C   UNL     1     -39.778  51.856 -52.073  1.00  0.00     0.010 A 
ENDBRANCH   9  12
ENDBRANCH   8   9
ENDBRANCH   7   8
ENDBRANCH   2   7
BRANCH   4  18
HETATM   18  C   UNL     1     -44.444  57.624 -58.141  1.00  0.00     0.109 A 
HETATM   19  N   UNL     1     -43.735  58.033 -59.258  1.00  0.00    -0.254 N 
HETATM   20  N   UNL     1     -44.552  58.285 -60.309  1.00  0.00    -0.183 NA
HETATM   21  C   UNL     1     -45.778  58.104 -59.826  1.00  0.00     0.142 A 
HETATM   22  C   UNL     1     -45.775  57.743 -58.471  1.00  0.00     0.065 A 
BRANCH  19  23
HETATM   23  C   UNL     1     -42.314  58.393 -59.331  1.00  0.00     0.111 C 
HETATM   24  C   UNL     1     -41.806  58.764 -60.745  1.00  0.00     0.027 C 
HETATM   25  C   UNL     1     -42.208  60.169 -61.211  1.00  0.00     0.002 C 
HETATM   26  C   UNL     1     -41.900  61.243 -60.174  1.00  0.00     0.000 C 
HETATM   27  C   UNL     1     -42.453  60.885 -58.801  1.00  0.00     0.002 C 
HETATM   28  C   UNL     1     -41.949  59.518 -58.343  1.00  0.00     0.027 C 
ENDBRANCH  19  23
ENDBRANCH   4  18
TORSDOF 7
ENDMDL
MODEL 4
REMARK VINA RESULT:      -7.7      2.319      8.258
REMARK  7 active torsions:
REMARK  status: ('A' for Active; 'I' for Inactive)
REMARK       I    between atoms: N_2  and  C_3 
REMARK    1  A    between atoms: N_2  and  C_17 
REMARK       I    between atoms: C_3  and  N_4 
REMARK    2  A    between atoms: N_4  and  C_5 
REMARK    3  A    between atoms: N_6  and  C_7 
REMARK    4  A    between atoms: C_17  and  C_18 
REMARK    5  A    between atoms: C_18  and  C_19 
REMARK    6  A    between atoms: C_19  and  O_20 
REMARK    7  A    between atoms: C_19  and  C_21 
ROOT
HETATM    1  C   UNL     1     -43.163  54.349 -55.894  1.00  0.00     0.154 C 
HETATM    2  N   UNL     1     -42.372  55.565 -55.771  1.00  0.00    -0.343 N 
HETATM    3  C   UNL     1     -42.447  56.625 -56.673  1.00  0.00     0.301 C 
HETATM    4  N   UNL     1     -42.784  56.218 -57.956  1.00  0.00    -0.194 NA
HETATM    5  O   UNL     1     -42.151  57.776 -56.362  1.00  0.00    -0.254 OA
HETATM    6  H   UNL     1     -42.279  55.376 -58.197  1.00  0.00     0.140 HD
ENDROOT
BRANCH   2   7
HETATM    7  C   UNL     1     -41.541  55.706 -54.577  1.00  0.00     0.129 C 
BRANCH   7   8
HETATM    8  C   UNL     1     -40.467  54.629 -54.443  1.00  0.00     0.056 C 
BRANCH   8   9
HETATM    9  C   UNL     1     -40.535  53.925 -53.079  1.00  0.00     0.152 C 
BRANCH   9  10
HETATM   10  O   UNL     1     -41.850  54.095 -52.547  1.00  0.00    -0.391 OA
HETATM   11  H   UNL     1     -41.749  54.358 -51.616  1.00  0.00     0.210 HD
ENDBRANCH   9  10
BRANCH   9  12
HETATM   12  C   UNL     1     -40.241  52.437 -53.037  1.00  0.00    -0.030 A 
HETATM   13  C   UNL     1     -39.771  51.771 -51.895  1.00  0.00     0.010 A 
HETATM   14  C   UNL     1     -39.479  50.404 -51.930  1.00  0.00     0.001 A 
HETATM   15  C   UNL     1     -39.640  49.682 -53.109  1.00  0.00     0.000 A 
HETATM   16  C   UNL     1     -40.093  50.325 -54.256  1.00  0.00     0.001 A 
HETATM   17  C   UNL     1     -40.389  51.690 -54.220  1.00  0.00     0.010 A 
ENDBRANCH   9  12
ENDBRANCH   8   9
ENDBRANCH   7   8
ENDBRANCH   2   7
BRANCH   4  18
HETATM   18  C   UNL     1     -42.860  57.162 -58.971  1.00  0.00     0.109 A 
HETATM   19  N   UNL     1     -43.951  57.964 -59.260  1.00  0.00    -0.254 N 
HETATM   20  N   UNL     1     -43.697  58.809 -60.289  1.00  0.00    -0.183 NA
HETATM   21  C   UNL     1     -42.471  58.483 -60.690  1.00  0.00     0.142 A 
HETATM   22  C   UNL     1     -41.922  57.431 -59.941  1.00  0.00     0.065 A 
BRANCH  19  23
HETATM   23  C   UNL     1     -45.316  57.840 -58.735  1.00  0.00     0.111 C 
HETATM   24  C   UNL     1     -46.217  59.077 -58.958  1.00  0.00     0.027 C 
HETATM   25  C   UNL     1     -46.758  59.214 -60.388  1.00  0.00     0.002 C 
HETATM   26  C   UNL     1     -47.387  57.926 -60.905  1.00  0.00     0.000 C 
HETATM   27  C   UNL     1     -46.465  56.728 -60.724  1.00  0.00     0.002 C 
HETATM   28  C   UNL     1     -46.030  56.582 -59.267  1.00  0.00     0.027 C 
ENDBRANCH  19  23
ENDBRANCH   4  18
TORSDOF 7
ENDMDL
MODEL 5
REMARK VINA RESULT:      -7.6      2.422      7.535
REMARK  7 active torsions:
REMARK  status: ('A' for Active; 'I' for Inactive)
REMARK       I    between atoms: N_2  and  C_3 
REMARK    1  A    between atoms: N_2  and  C_17 
REMARK       I    between atoms: C_3  and  N_4 
REMARK    2  A    between atoms: N_4  and  C_5 
REMARK    3  A    between atoms: N_6  and  C_7 
REMARK    4  A    between atoms: C_17  and  C_18 
REMARK    5  A    between atoms: C_18  and  C_19 
REMARK    6  A    between atoms: C_19  and  O_20 
REMARK    7  A    between atoms: C_19  and  C_21 
ROOT
HETATM    1  C   UNL     1     -40.920  58.147 -52.802  1.00  0.00     0.154 C 
HETATM    2  N   UNL     1     -42.173  57.446 -52.562  1.00  0.00    -0.343 N 
HETATM    3  C   UNL     1     -43.151  57.262 -53.538  1.00  0.00     0.301 C 
HETATM    4  N   UNL     1     -43.168  58.279 -54.481  1.00  0.00    -0.194 NA
HETATM    5  O   UNL     1     -43.961  56.339 -53.494  1.00  0.00    -0.254 OA
HETATM    6  H   UNL     1     -43.060  59.177 -54.026  1.00  0.00     0.140 HD
ENDROOT
BRANCH   2   7
HETATM    7  C   UNL     1     -42.349  56.818 -51.254  1.00  0.00     0.129 C 
BRANCH   7   8
HETATM    8  C   UNL     1     -41.256  55.811 -50.901  1.00  0.00     0.056 C 
BRANCH   8   9
HETATM    9  C   UNL     1     -41.768  54.364 -50.981  1.00  0.00     0.152 C 
BRANCH   9  10
HETATM   10  O   UNL     1     -43.159  54.394 -51.310  1.00  0.00    -0.391 OA
HETATM   11  H   UNL     1     -43.223  54.368 -52.279  1.00  0.00     0.210 HD
ENDBRANCH   9  10
BRANCH   9  12
HETATM   12  C   UNL     1     -41.107  53.436 -51.981  1.00  0.00    -0.030 A 
HETATM   13  C   UNL     1     -40.157  52.465 -51.628  1.00  0.00     0.010 A 
HETATM   14  C   UNL     1     -39.552  51.665 -52.602  1.00  0.00     0.001 A 
HETATM   15  C   UNL     1     -39.876  51.828 -53.946  1.00  0.00     0.000 A 
HETATM   16  C   UNL     1     -40.806  52.793 -54.319  1.00  0.00     0.001 A 
HETATM   17  C   UNL     1     -41.415  53.590 -53.345  1.00  0.00     0.010 A 
ENDBRANCH   9  12
ENDBRANCH   8   9
ENDBRANCH   7   8
ENDBRANCH   2   7
BRANCH   4  18
HETATM   18  C   UNL     1     -44.115  58.250 -55.495  1.00  0.00     0.109 A 
HETATM   19  N   UNL     1     -43.973  57.636 -56.728  1.00  0.00    -0.254 N 
HETATM   20  N   UNL     1     -45.092  57.756 -57.483  1.00  0.00    -0.183 NA
HETATM   21  C   UNL     1     -45.907  58.510 -56.749  1.00  0.00     0.142 A 
HETATM   22  C   UNL     1     -45.333  58.890 -55.527  1.00  0.00     0.065 A 
BRANCH  19  23
HETATM   23  C   UNL     1     -42.744  57.097 -57.322  1.00  0.00     0.111 C 
HETATM   24  C   UNL     1     -42.943  55.850 -58.215  1.00  0.00     0.027 C 
HETATM   25  C   UNL     1     -43.507  56.155 -59.609  1.00  0.00     0.002 C 
HETATM   26  C   UNL     1     -42.751  57.272 -60.318  1.00  0.00     0.000 C 
HETATM   27  C   UNL     1     -42.611  58.511 -59.442  1.00  0.00     0.002 C 
HETATM   28  C   UNL     1     -41.960  58.169 -58.104  1.00  0.00     0.027 C 
ENDBRANCH  19  23
ENDBRANCH   4  18
TORSDOF 7
ENDMDL
MODEL 6
REMARK VINA RESULT:      -7.5      3.209      5.067
REMARK  7 active torsions:
REMARK  status: ('A' for Active; 'I' for Inactive)
REMARK       I    between atoms: N_2  and  C_3 
REMARK    1  A    between atoms: N_2  and  C_17 
REMARK       I    between atoms: C_3  and  N_4 
REMARK    2  A    between atoms: N_4  and  C_5 
REMARK    3  A    between atoms: N_6  and  C_7 
REMARK    4  A    between atoms: C_17  and  C_18 
REMARK    5  A    between atoms: C_18  and  C_19 
REMARK    6  A    between atoms: C_19  and  O_20 
REMARK    7  A    between atoms: C_19  and  C_21 
ROOT
HETATM    1  C   UNL     1     -44.750  57.874 -51.358  1.00  0.00     0.154 C 
HETATM    2  N   UNL     1     -43.360  58.305 -51.336  1.00  0.00    -0.343 N 
HETATM    3  C   UNL     1     -42.282  57.423 -51.333  1.00  0.00     0.301 C 
HETATM    4  N   UNL     1     -42.577  56.213 -50.721  1.00  0.00    -0.194 NA
HETATM    5  O   UNL     1     -41.170  57.739 -51.750  1.00  0.00    -0.254 OA
HETATM    6  H   UNL     1     -43.111  56.372 -49.876  1.00  0.00     0.140 HD
ENDROOT
BRANCH   2   7
HETATM    7  C   UNL     1     -43.102  59.741 -51.429  1.00  0.00     0.129 C 
BRANCH   7   8
HETATM    8  C   UNL     1     -43.672  60.389 -52.689  1.00  0.00     0.056 C 
BRANCH   8   9
HETATM    9  C   UNL     1     -42.687  60.309 -53.866  1.00  0.00     0.152 C 
BRANCH   9  10
HETATM   10  O   UNL     1     -41.377  60.079 -53.343  1.00  0.00    -0.391 OA
HETATM   11  H   UNL     1     -41.054  59.251 -53.737  1.00  0.00     0.210 HD
ENDBRANCH   9  10
BRANCH   9  12
HETATM   12  C   UNL     1     -42.927  59.242 -54.916  1.00  0.00    -0.030 A 
HETATM   13  C   UNL     1     -42.115  59.069 -56.047  1.00  0.00     0.010 A 
HETATM   14  C   UNL     1     -42.411  58.093 -57.002  1.00  0.00     0.001 A 
HETATM   15  C   UNL     1     -43.531  57.280 -56.851  1.00  0.00     0.000 A 
HETATM   16  C   UNL     1     -44.358  57.442 -55.744  1.00  0.00     0.001 A 
HETATM   17  C   UNL     1     -44.059  58.415 -54.787  1.00  0.00     0.010 A 
ENDBRANCH   9  12
ENDBRANCH   8   9
ENDBRANCH   7   8
ENDBRANCH   2   7
BRANCH   4  18
HETATM   18  C   UNL     1     -41.587  55.247 -50.610  1.00  0.00     0.109 A 
HETATM   19  N   UNL     1     -41.245  54.314 -51.574  1.00  0.00    -0.254 N 
HETATM   20  N   UNL     1     -40.212  53.533 -51.175  1.00  0.00    -0.183 NA
HETATM   21  C   UNL     1     -39.958  53.930 -49.931  1.00  0.00     0.142 A 
HETATM   22  C   UNL     1     -40.815  54.957 -49.508  1.00  0.00     0.065 A 
BRANCH  19  23
HETATM   23  C   UNL     1     -41.981  53.985 -52.800  1.00  0.00     0.111 C 
HETATM   24  C   UNL     1     -42.163  55.160 -53.789  1.00  0.00     0.027 C 
HETATM   25  C   UNL     1     -40.910  55.497 -54.607  1.00  0.00     0.002 C 
HETATM   26  C   UNL     1     -40.286  54.270 -55.261  1.00  0.00     0.000 C 
HETATM   27  C   UNL     1     -40.066  53.141 -54.261  1.00  0.00     0.002 C 
HETATM   28  C   UNL     1     -41.364  52.782 -53.541  1.00  0.00     0.027 C 
ENDBRANCH  19  23
ENDBRANCH   4  18
TORSDOF 7
ENDMDL
MODEL 7
REMARK VINA RESULT:      -7.5      2.294      7.683
REMARK  7 active torsions:
REMARK  status: ('A' for Active; 'I' for Inactive)
REMARK       I    between atoms: N_2  and  C_3 
REMARK    1  A    between atoms: N_2  and  C_17 
REMARK       I    between atoms: C_3  and  N_4 
REMARK    2  A    between atoms: N_4  and  C_5 
REMARK    3  A    between atoms: N_6  and  C_7 
REMARK    4  A    between atoms: C_17  and  C_18 
REMARK    5  A    between atoms: C_18  and  C_19 
REMARK    6  A    between atoms: C_19  and  O_20 
REMARK    7  A    between atoms: C_19  and  C_21 
ROOT
HETATM    1  C   UNL     1     -44.684  56.908 -54.006  1.00  0.00     0.154 C 
HETATM    2  N   UNL     1     -43.399  56.393 -54.455  1.00  0.00    -0.343 N 
HETATM    3  C   UNL     1     -42.933  56.520 -55.762  1.00  0.00     0.301 C 
HETATM    4  N   UNL     1     -43.958  56.560 -56.697  1.00  0.00    -0.194 NA
HETATM    5  O   UNL     1     -41.737  56.501 -56.040  1.00  0.00    -0.254 OA
HETATM    6  H   UNL     1     -44.664  55.872 -56.469  1.00  0.00     0.140 HD
ENDROOT
BRANCH   2   7
HETATM    7  C   UNL     1     -42.521  55.809 -53.442  1.00  0.00     0.129 C 
BRANCH   7   8
HETATM    8  C   UNL     1     -42.504  54.283 -53.448  1.00  0.00     0.056 C 
BRANCH   8   9
HETATM    9  C   UNL     1     -41.264  53.730 -54.169  1.00  0.00     0.152 C 
BRANCH   9  10
HETATM   10  O   UNL     1     -40.257  54.745 -54.178  1.00  0.00    -0.391 OA
HETATM   11  H   UNL     1     -40.294  55.175 -55.048  1.00  0.00     0.210 HD
ENDBRANCH   9  10
BRANCH   9  12
HETATM   12  C   UNL     1     -40.615  52.482 -53.601  1.00  0.00    -0.030 A 
HETATM   13  C   UNL     1     -40.429  51.302 -54.337  1.00  0.00     0.010 A 
HETATM   14  C   UNL     1     -39.860  50.170 -53.745  1.00  0.00     0.001 A 
HETATM   15  C   UNL     1     -39.480  50.192 -52.407  1.00  0.00     0.000 A 
HETATM   16  C   UNL     1     -39.668  51.348 -51.655  1.00  0.00     0.001 A 
HETATM   17  C   UNL     1     -40.231  52.482 -52.248  1.00  0.00     0.010 A 
ENDBRANCH   9  12
ENDBRANCH   8   9
ENDBRANCH   7   8
ENDBRANCH   2   7
BRANCH   4  18
HETATM   18  C   UNL     1     -43.644  56.648 -58.046  1.00  0.00     0.109 A 
HETATM   19  N   UNL     1     -43.439  57.814 -58.763  1.00  0.00    -0.254 N 
HETATM   20  N   UNL     1     -43.113  57.562 -60.054  1.00  0.00    -0.183 NA
HETATM   21  C   UNL     1     -43.187  56.238 -60.161  1.00  0.00     0.142 A 
HETATM   22  C   UNL     1     -43.563  55.621 -58.959  1.00  0.00     0.065 A 
BRANCH  19  23
HETATM   23  C   UNL     1     -43.730  59.188 -58.337  1.00  0.00     0.111 C 
HETATM   24  C   UNL     1     -42.680  59.814 -57.389  1.00  0.00     0.027 C 
HETATM   25  C   UNL     1     -41.396  60.281 -58.088  1.00  0.00     0.002 C 
HETATM   26  C   UNL     1     -41.674  61.145 -59.312  1.00  0.00     0.000 C 
HETATM   27  C   UNL     1     -42.671  60.490 -60.259  1.00  0.00     0.002 C 
HETATM   28  C   UNL     1     -43.965  60.129 -59.535  1.00  0.00     0.027 C 
ENDBRANCH  19  23
ENDBRANCH   4  18
TORSDOF 7
ENDMDL
MODEL 8
REMARK VINA RESULT:      -7.3      2.308      3.671
REMARK  7 active torsions:
REMARK  status: ('A' for Active; 'I' for Inactive)
REMARK       I    between atoms: N_2  and  C_3 
REMARK    1  A    between atoms: N_2  and  C_17 
REMARK       I    between atoms: C_3  and  N_4 
REMARK    2  A    between atoms: N_4  and  C_5 
REMARK    3  A    between atoms: N_6  and  C_7 
REMARK    4  A    between atoms: C_17  and  C_18 
REMARK    5  A    between atoms: C_18  and  C_19 
REMARK    6  A    between atoms: C_19  and  O_20 
REMARK    7  A    between atoms: C_19  and  C_21 
ROOT
HETATM    1  C   UNL     1     -45.108  59.057 -54.851  1.00  0.00     0.154 C 
HETATM    2  N   UNL     1     -43.728  59.512 -54.762  1.00  0.00    -0.343 N 
HETATM    3  C   UNL     1     -42.738  58.831 -54.055  1.00  0.00     0.301 C 
HETATM    4  N   UNL     1     -43.240  58.122 -52.973  1.00  0.00    -0.194 NA
HETATM    5  O   UNL     1     -41.544  58.939 -54.324  1.00  0.00    -0.254 OA
HETATM    6  H   UNL     1     -43.930  58.677 -52.483  1.00  0.00     0.140 HD
ENDROOT
BRANCH   2   7
HETATM    7  C   UNL     1     -43.358  60.687 -55.548  1.00  0.00     0.129 C 
BRANCH   7   8
HETATM    8  C   UNL     1     -43.710  60.574 -57.029  1.00  0.00     0.056 C 
BRANCH   8   9
HETATM    9  C   UNL     1     -42.521  60.062 -57.858  1.00  0.00     0.152 C 
BRANCH   9  10
HETATM   10  O   UNL     1     -41.344  60.131 -57.052  1.00  0.00    -0.391 OA
HETATM   11  H   UNL     1     -40.900  60.969 -57.266  1.00  0.00     0.210 HD
ENDBRANCH   9  10
BRANCH   9  12
HETATM   12  C   UNL     1     -42.594  58.646 -58.397  1.00  0.00    -0.030 A 
HETATM   13  C   UNL     1     -43.064  57.555 -57.650  1.00  0.00     0.010 A 
HETATM   14  C   UNL     1     -43.069  56.265 -58.189  1.00  0.00     0.001 A 
HETATM   15  C   UNL     1     -42.594  56.040 -59.478  1.00  0.00     0.000 A 
HETATM   16  C   UNL     1     -42.112  57.105 -60.231  1.00  0.00     0.001 A 
HETATM   17  C   UNL     1     -42.111  58.396 -59.695  1.00  0.00     0.010 A 
ENDBRANCH   9  12
ENDBRANCH   8   9
ENDBRANCH   7   8
ENDBRANCH   2   7
BRANCH   4  18
HETATM   18  C   UNL     1     -42.365  57.423 -52.153  1.00  0.00     0.109 A 
HETATM   19  N   UNL     1     -41.927  56.124 -52.345  1.00  0.00    -0.254 N 
HETATM   20  N   UNL     1     -41.048  55.742 -51.387  1.00  0.00    -0.183 NA
HETATM   21  C   UNL     1     -40.995  56.778 -50.555  1.00  0.00     0.142 A 
HETATM   22  C   UNL     1     -41.832  57.831 -50.952  1.00  0.00     0.065 A 
BRANCH  19  23
HETATM   23  C   UNL     1     -42.451  55.135 -53.295  1.00  0.00     0.111 C 
HETATM   24  C   UNL     1     -41.979  55.319 -54.757  1.00  0.00     0.027 C 
HETATM   25  C   UNL     1     -40.544  54.844 -55.022  1.00  0.00     0.002 C 
HETATM   26  C   UNL     1     -40.282  53.440 -54.491  1.00  0.00     0.000 C 
HETATM   27  C   UNL     1     -40.704  53.292 -53.034  1.00  0.00     0.002 C 
HETATM   28  C   UNL     1     -42.166  53.689 -52.842  1.00  0.00     0.027 C 
ENDBRANCH  19  23
ENDBRANCH   4  18
TORSDOF 7
ENDMDL
MODEL 9
REMARK VINA RESULT:      -7.2      4.574      8.023
REMARK  7 active torsions:
REMARK  status: ('A' for Active; 'I' for Inactive)
REMARK       I    between atoms: N_2  and  C_3 
REMARK    1  A    between atoms: N_2  and  C_17 
REMARK       I    between atoms: C_3  and  N_4 
REMARK    2  A    between atoms: N_4  and  C_5 
REMARK    3  A    between atoms: N_6  and  C_7 
REMARK    4  A    between atoms: C_17  and  C_18 
REMARK    5  A    between atoms: C_18  and  C_19 
REMARK    6  A    between atoms: C_19  and  O_20 
REMARK    7  A    between atoms: C_19  and  C_21 
ROOT
HETATM    1  C   UNL     1     -40.907  56.883 -50.332  1.00  0.00     0.154 C 
HETATM    2  N   UNL     1     -42.040  56.314 -51.047  1.00  0.00    -0.343 N 
HETATM    3  C   UNL     1     -43.077  57.079 -51.578  1.00  0.00     0.301 C 
HETATM    4  N   UNL     1     -43.302  58.249 -50.866  1.00  0.00    -0.194 NA
HETATM    5  O   UNL     1     -43.765  56.694 -52.520  1.00  0.00    -0.254 OA
HETATM    6  H   UNL     1     -43.258  58.066 -49.872  1.00  0.00     0.140 HD
ENDROOT
BRANCH   2   7
HETATM    7  C   UNL     1     -42.018  54.875 -51.301  1.00  0.00     0.129 C 
BRANCH   7   8
HETATM    8  C   UNL     1     -40.852  54.422 -52.177  1.00  0.00     0.056 C 
BRANCH   8   9
HETATM    9  C   UNL     1     -40.076  53.262 -51.534  1.00  0.00     0.152 C 
BRANCH   9  10
HETATM   10  O   UNL     1     -40.737  52.890 -50.324  1.00  0.00    -0.391 OA
HETATM   11  H   UNL     1     -41.664  52.704 -50.551  1.00  0.00     0.210 HD
ENDBRANCH   9  10
BRANCH   9  12
HETATM   12  C   UNL     1     -39.909  51.990 -52.344  1.00  0.00    -0.030 A 
HETATM   13  C   UNL     1     -40.114  51.921 -53.730  1.00  0.00     0.010 A 
HETATM   14  C   UNL     1     -39.985  50.709 -54.416  1.00  0.00     0.001 A 
HETATM   15  C   UNL     1     -39.659  49.544 -53.727  1.00  0.00     0.000 A 
HETATM   16  C   UNL     1     -39.464  49.588 -52.351  1.00  0.00     0.001 A 
HETATM   17  C   UNL     1     -39.589  50.800 -51.666  1.00  0.00     0.010 A 
ENDBRANCH   9  12
ENDBRANCH   8   9
ENDBRANCH   7   8
ENDBRANCH   2   7
BRANCH   4  18
HETATM   18  C   UNL     1     -44.329  59.096 -51.257  1.00  0.00     0.109 A 
HETATM   19  N   UNL     1     -44.204  60.215 -52.063  1.00  0.00    -0.254 N 
HETATM   20  N   UNL     1     -45.401  60.809 -52.291  1.00  0.00    -0.183 NA
HETATM   21  C   UNL     1     -46.264  60.103 -51.565  1.00  0.00     0.142 A 
HETATM   22  C   UNL     1     -45.646  59.059 -50.861  1.00  0.00     0.065 A 
BRANCH  19  23
HETATM   23  C   UNL     1     -42.965  60.881 -52.482  1.00  0.00     0.111 C 
HETATM   24  C   UNL     1     -41.830  59.928 -52.927  1.00  0.00     0.027 C 
HETATM   25  C   UNL     1     -42.014  59.341 -54.333  1.00  0.00     0.002 C 
HETATM   26  C   UNL     1     -42.334  60.403 -55.377  1.00  0.00     0.000 C 
HETATM   27  C   UNL     1     -43.489  61.299 -54.944  1.00  0.00     0.002 C 
HETATM   28  C   UNL     1     -43.214  61.931 -53.582  1.00  0.00     0.027 C 
ENDBRANCH  19  23
ENDBRANCH   4  18
TORSDOF 7
ENDMDL
MODEL 10
REMARK VINA RESULT:      -7.1      5.456      8.011
REMARK  7 active torsions:
REMARK  status: ('A' for Active; 'I' for Inactive)
REMARK       I    between atoms: N_2  and  C_3 
REMARK    1  A    between atoms: N_2  and  C_17 
REMARK       I    between atoms: C_3  and  N_4 
REMARK    2  A    between atoms: N_4  and  C_5 
REMARK    3  A    between atoms: N_6  and  C_7 
REMARK    4  A    between atoms: C_17  and  C_18 
REMARK    5  A    between atoms: C_18  and  C_19 
REMARK    6  A    between atoms: C_19  and  O_20 
REMARK    7  A    between atoms: C_19  and  C_21 
ROOT
HETATM    1  C   UNL     1     -41.023  56.957 -50.331  1.00  0.00     0.154 C 
HETATM    2  N   UNL     1     -42.164  56.419 -51.056  1.00  0.00    -0.343 N 
HETATM    3  C   UNL     1     -43.200  57.207 -51.554  1.00  0.00     0.301 C 
HETATM    4  N   UNL     1     -43.414  58.353 -50.801  1.00  0.00    -0.194 NA
HETATM    5  O   UNL     1     -43.897  56.857 -52.503  1.00  0.00    -0.254 OA
HETATM    6  H   UNL     1     -43.365  58.135 -49.814  1.00  0.00     0.140 HD
ENDROOT
BRANCH   2   7
HETATM    7  C   UNL     1     -42.151  54.989 -51.361  1.00  0.00     0.129 C 
BRANCH   7   8
HETATM    8  C   UNL     1     -40.792  54.471 -51.824  1.00  0.00     0.056 C 
BRANCH   8   9
HETATM    9  C   UNL     1     -40.896  53.715 -53.159  1.00  0.00     0.152 C 
BRANCH   9  10
HETATM   10  O   UNL     1     -40.167  54.444 -54.149  1.00  0.00    -0.391 OA
HETATM   11  H   UNL     1     -39.330  54.720 -53.740  1.00  0.00     0.210 HD
ENDBRANCH   9  10
BRANCH   9  12
HETATM   12  C   UNL     1     -40.381  52.290 -53.205  1.00  0.00    -0.030 A 
HETATM   13  C   UNL     1     -40.408  51.492 -54.359  1.00  0.00     0.010 A 
HETATM   14  C   UNL     1     -39.955  50.170 -54.329  1.00  0.00     0.001 A 
HETATM   15  C   UNL     1     -39.480  49.617 -53.143  1.00  0.00     0.000 A 
HETATM   16  C   UNL     1     -39.456  50.386 -51.984  1.00  0.00     0.001 A 
HETATM   17  C   UNL     1     -39.904  51.709 -52.015  1.00  0.00     0.010 A 
ENDBRANCH   9  12
ENDBRANCH   8   9
ENDBRANCH   7   8
ENDBRANCH   2   7
BRANCH   4  18
HETATM   18  C   UNL     1     -44.440  59.217 -51.155  1.00  0.00     0.109 A 
HETATM   19  N   UNL     1     -44.297  60.433 -51.801  1.00  0.00    -0.254 N 
HETATM   20  N   UNL     1     -45.495  61.023 -52.038  1.00  0.00    -0.183 NA
HETATM   21  C   UNL     1     -46.382  60.208 -51.472  1.00  0.00     0.142 A 
HETATM   22  C   UNL     1     -45.780  59.097 -50.863  1.00  0.00     0.065 A 
BRANCH  19  23
HETATM   23  C   UNL     1     -43.055  61.177 -52.041  1.00  0.00     0.111 C 
HETATM   24  C   UNL     1     -43.172  62.333 -53.063  1.00  0.00     0.027 C 
HETATM   25  C   UNL     1     -43.847  63.596 -52.513  1.00  0.00     0.002 C 
HETATM   26  C   UNL     1     -43.258  64.046 -51.181  1.00  0.00     0.000 C 
HETATM   27  C   UNL     1     -43.199  62.907 -50.170  1.00  0.00     0.002 C 
HETATM   28  C   UNL     1     -42.437  61.710 -50.733  1.00  0.00     0.027 C 
ENDBRANCH  19  23
ENDBRANCH   4  18
TORSDOF 7
ENDMDL
