MODEL 1
REMARK VINA RESULT:      -8.7      0.000      0.000
REMARK  3 active torsions:
REMARK  status: ('A' for Active; 'I' for Inactive)
REMARK    1  A    between atoms: C_6  and  N_7 
REMARK       I    between atoms: N_7  and  C_8 
REMARK    2  A    between atoms: C_8  and  C_9 
REMARK    3  A    between atoms: C_9  and  C_10 
ROOT
HETATM    1  C   UNL     1     -41.121  54.447 -51.393  1.00  0.00     0.164 C 
HETATM    2  N   UNL     1     -40.589  54.393 -52.742  1.00  0.00    -0.245 NA
HETATM    3  C   UNL     1     -40.876  53.348 -53.569  1.00  0.00     0.234 C 
HETATM    4  O   UNL     1     -41.477  53.585 -54.614  1.00  0.00    -0.274 OA
HETATM    5  C   UNL     1     -40.385  51.996 -53.228  1.00  0.00     0.053 A 
HETATM    6  C   UNL     1     -40.016  51.544 -51.956  1.00  0.00     0.050 A 
HETATM    7  N   UNL     1     -40.122  52.226 -50.734  1.00  0.00    -0.325 N 
HETATM    8  C   UNL     1     -40.572  53.454 -50.383  1.00  0.00     0.240 C 
HETATM    9  O   UNL     1     -40.598  53.729 -49.177  1.00  0.00    -0.271 OA
HETATM   10  C   UNL     1     -40.233  51.135 -54.337  1.00  0.00     0.019 A 
HETATM   11  C   UNL     1     -39.703  49.853 -54.200  1.00  0.00     0.001 A 
HETATM   12  C   UNL     1     -39.324  49.408 -52.944  1.00  0.00     0.002 A 
HETATM   13  C   UNL     1     -39.486  50.242 -51.838  1.00  0.00     0.030 A 
HETATM   14  H   UNL     1     -40.754  55.257 -53.245  1.00  0.00     0.131 HD
HETATM   15  H   UNL     1     -39.843  51.712 -49.904  1.00  0.00     0.169 HD
ENDROOT
BRANCH   1  16
HETATM   16  C   UNL     1     -42.641  54.575 -51.326  1.00  0.00     0.132 C 
BRANCH  16  17
HETATM   17  C   UNL     1     -43.232  55.756 -52.066  1.00  0.00     0.224 C 
HETATM   18  N   UNL     1     -43.610  55.454 -53.361  1.00  0.00    -0.327 N 
HETATM   19  H   UNL     1     -43.801  54.479 -53.582  1.00  0.00     0.169 HD
HETATM   20  O   UNL     1     -43.319  56.853 -51.525  1.00  0.00    -0.273 OA
BRANCH  18  21
HETATM   21  C   UNL     1     -43.812  56.368 -54.418  1.00  0.00     0.035 A 
HETATM   22  C   UNL     1     -42.927  56.503 -55.493  1.00  0.00     0.043 A 
HETATM   23  C   UNL     1     -43.260  57.345 -56.578  1.00  0.00    -0.006 A 
HETATM   24  C   UNL     1     -44.465  58.052 -56.548  1.00  0.00     0.044 A 
HETATM   25  C   UNL     1     -42.614  57.661 -57.805  1.00  0.00     0.031 A 
HETATM   26  N   UNL     1     -44.539  58.763 -57.729  1.00  0.00    -0.360 N 
HETATM   27  C   UNL     1     -45.347  57.957 -55.463  1.00  0.00     0.033 A 
HETATM   28  C   UNL     1     -45.630  59.622 -58.134  1.00  0.00     0.155 C 
HETATM   29  C   UNL     1     -43.424  58.534 -58.493  1.00  0.00     0.091 A 
HETATM   30  C   UNL     1     -45.004  57.098 -54.410  1.00  0.00     0.032 A 
ENDBRANCH  18  21
ENDBRANCH  16  17
ENDBRANCH   1  16
TORSDOF 3
ENDMDL
MODEL 2
REMARK VINA RESULT:      -8.3      1.953      8.101
REMARK  3 active torsions:
REMARK  status: ('A' for Active; 'I' for Inactive)
REMARK    1  A    between atoms: C_6  and  N_7 
REMARK       I    between atoms: N_7  and  C_8 
REMARK    2  A    between atoms: C_8  and  C_9 
REMARK    3  A    between atoms: C_9  and  C_10 
ROOT
HETATM    1  C   UNL     1     -44.101  58.008 -55.174  1.00  0.00     0.164 C 
HETATM    2  N   UNL     1     -44.223  56.923 -56.130  1.00  0.00    -0.245 NA
HETATM    3  C   UNL     1     -43.228  56.659 -57.024  1.00  0.00     0.234 C 
HETATM    4  O   UNL     1     -42.681  55.560 -56.974  1.00  0.00    -0.274 OA
HETATM    5  C   UNL     1     -42.905  57.658 -58.066  1.00  0.00     0.053 A 
HETATM    6  C   UNL     1     -43.189  59.027 -58.019  1.00  0.00     0.050 A 
HETATM    7  N   UNL     1     -43.741  59.758 -56.955  1.00  0.00    -0.325 N 
HETATM    8  C   UNL     1     -44.163  59.427 -55.712  1.00  0.00     0.240 C 
HETATM    9  O   UNL     1     -44.540  60.345 -54.974  1.00  0.00    -0.271 OA
HETATM   10  C   UNL     1     -42.308  57.116 -59.226  1.00  0.00     0.019 A 
HETATM   11  C   UNL     1     -42.015  57.908 -60.335  1.00  0.00     0.001 A 
HETATM   12  C   UNL     1     -42.308  59.261 -60.297  1.00  0.00     0.002 A 
HETATM   13  C   UNL     1     -42.881  59.812 -59.150  1.00  0.00     0.030 A 
HETATM   14  H   UNL     1     -44.491  56.055 -55.680  1.00  0.00     0.131 HD
HETATM   15  H   UNL     1     -43.830  60.760 -57.093  1.00  0.00     0.169 HD
ENDROOT
BRANCH   1  16
HETATM   16  C   UNL     1     -42.983  57.815 -54.150  1.00  0.00     0.132 C 
BRANCH  16  17
HETATM   17  C   UNL     1     -42.798  56.401 -53.642  1.00  0.00     0.224 C 
HETATM   18  N   UNL     1     -41.475  56.074 -53.410  1.00  0.00    -0.327 N 
HETATM   19  H   UNL     1     -40.821  56.837 -53.247  1.00  0.00     0.169 HD
HETATM   20  O   UNL     1     -43.763  55.658 -53.493  1.00  0.00    -0.273 OA
BRANCH  18  21
HETATM   21  C   UNL     1     -40.927  54.776 -53.323  1.00  0.00     0.035 A 
HETATM   22  C   UNL     1     -40.675  54.132 -52.107  1.00  0.00     0.043 A 
HETATM   23  C   UNL     1     -40.246  52.786 -52.099  1.00  0.00    -0.006 A 
HETATM   24  C   UNL     1     -40.056  52.122 -53.314  1.00  0.00     0.044 A 
HETATM   25  C   UNL     1     -39.950  51.860 -51.061  1.00  0.00     0.031 A 
HETATM   26  N   UNL     1     -39.666  50.834 -53.008  1.00  0.00    -0.360 N 
HETATM   27  C   UNL     1     -40.269  52.763 -54.543  1.00  0.00     0.033 A 
HETATM   28  C   UNL     1     -39.379  49.786 -53.963  1.00  0.00     0.155 C 
HETATM   29  C   UNL     1     -39.598  50.668 -51.650  1.00  0.00     0.091 A 
HETATM   30  C   UNL     1     -40.715  54.091 -54.523  1.00  0.00     0.032 A 
ENDBRANCH  18  21
ENDBRANCH  16  17
ENDBRANCH   1  16
TORSDOF 3
ENDMDL
MODEL 3
REMARK VINA RESULT:      -8.3      1.518      2.046
REMARK  3 active torsions:
REMARK  status: ('A' for Active; 'I' for Inactive)
REMARK    1  A    between atoms: C_6  and  N_7 
REMARK       I    between atoms: N_7  and  C_8 
REMARK    2  A    between atoms: C_8  and  C_9 
REMARK    3  A    between atoms: C_9  and  C_10 
ROOT
HETATM    1  C   UNL     1     -41.642  56.088 -52.505  1.00  0.00     0.164 C 
HETATM    2  N   UNL     1     -40.870  55.714 -53.676  1.00  0.00    -0.245 NA
HETATM    3  C   UNL     1     -40.981  54.470 -54.222  1.00  0.00     0.234 C 
HETATM    4  O   UNL     1     -41.383  54.379 -55.379  1.00  0.00    -0.274 OA
HETATM    5  C   UNL     1     -40.534  53.294 -53.445  1.00  0.00     0.053 A 
HETATM    6  C   UNL     1     -40.397  53.223 -52.054  1.00  0.00     0.050 A 
HETATM    7  N   UNL     1     -40.739  54.195 -51.102  1.00  0.00    -0.325 N 
HETATM    8  C   UNL     1     -41.269  55.439 -51.183  1.00  0.00     0.240 C 
HETATM    9  O   UNL     1     -41.522  56.022 -50.122  1.00  0.00    -0.271 OA
HETATM   10  C   UNL     1     -40.164  52.182 -54.233  1.00  0.00     0.019 A 
HETATM   11  C   UNL     1     -39.645  51.022 -53.661  1.00  0.00     0.001 A 
HETATM   12  C   UNL     1     -39.494  50.953 -52.286  1.00  0.00     0.002 A 
HETATM   13  C   UNL     1     -39.873  52.038 -51.495  1.00  0.00     0.030 A 
HETATM   14  H   UNL     1     -40.957  56.401 -54.417  1.00  0.00     0.131 HD
HETATM   15  H   UNL     1     -40.608  53.941 -50.128  1.00  0.00     0.169 HD
ENDROOT
BRANCH   1  16
HETATM   16  C   UNL     1     -43.151  56.125 -52.738  1.00  0.00     0.132 C 
BRANCH  16  17
HETATM   17  C   UNL     1     -43.626  57.090 -53.803  1.00  0.00     0.224 C 
HETATM   18  N   UNL     1     -43.622  56.544 -55.073  1.00  0.00    -0.327 N 
HETATM   19  H   UNL     1     -43.664  55.530 -55.152  1.00  0.00     0.169 HD
HETATM   20  O   UNL     1     -43.946  58.237 -53.511  1.00  0.00    -0.273 OA
BRANCH  18  21
HETATM   21  C   UNL     1     -43.618  57.249 -56.297  1.00  0.00     0.035 A 
HETATM   22  C   UNL     1     -42.566  57.177 -57.217  1.00  0.00     0.043 A 
HETATM   23  C   UNL     1     -42.688  57.807 -58.476  1.00  0.00    -0.006 A 
HETATM   24  C   UNL     1     -43.855  58.516 -58.775  1.00  0.00     0.044 A 
HETATM   25  C   UNL     1     -41.841  57.887 -59.616  1.00  0.00     0.031 A 
HETATM   26  N   UNL     1     -43.711  58.997 -60.060  1.00  0.00    -0.360 N 
HETATM   27  C   UNL     1     -44.904  58.629 -57.851  1.00  0.00     0.033 A 
HETATM   28  C   UNL     1     -44.690  59.774 -60.789  1.00  0.00     0.155 C 
HETATM   29  C   UNL     1     -42.497  58.623 -60.575  1.00  0.00     0.091 A 
HETATM   30  C   UNL     1     -44.768  57.976 -56.618  1.00  0.00     0.032 A 
ENDBRANCH  18  21
ENDBRANCH  16  17
ENDBRANCH   1  16
TORSDOF 3
ENDMDL
MODEL 4
REMARK VINA RESULT:      -8.3      2.401      3.222
REMARK  3 active torsions:
REMARK  status: ('A' for Active; 'I' for Inactive)
REMARK    1  A    between atoms: C_6  and  N_7 
REMARK       I    between atoms: N_7  and  C_8 
REMARK    2  A    between atoms: C_8  and  C_9 
REMARK    3  A    between atoms: C_9  and  C_10 
ROOT
HETATM    1  C   UNL     1     -40.865  54.428 -51.154  1.00  0.00     0.164 C 
HETATM    2  N   UNL     1     -40.372  54.441 -52.519  1.00  0.00    -0.245 NA
HETATM    3  C   UNL     1     -40.752  53.486 -53.413  1.00  0.00     0.234 C 
HETATM    4  O   UNL     1     -41.360  53.843 -54.419  1.00  0.00    -0.274 OA
HETATM    5  C   UNL     1     -40.350  52.081 -53.189  1.00  0.00     0.053 A 
HETATM    6  C   UNL     1     -39.983  51.508 -51.966  1.00  0.00     0.050 A 
HETATM    7  N   UNL     1     -40.011  52.099 -50.693  1.00  0.00    -0.325 N 
HETATM    8  C   UNL     1     -40.364  53.325 -50.238  1.00  0.00     0.240 C 
HETATM    9  O   UNL     1     -40.342  53.508 -49.015  1.00  0.00    -0.271 OA
HETATM   10  C   UNL     1     -40.286  51.299 -54.364  1.00  0.00     0.019 A 
HETATM   11  C   UNL     1     -39.846  49.977 -54.339  1.00  0.00     0.001 A 
HETATM   12  C   UNL     1     -39.469  49.411 -53.132  1.00  0.00     0.002 A 
HETATM   13  C   UNL     1     -39.545  50.167 -51.961  1.00  0.00     0.030 A 
HETATM   14  H   UNL     1     -40.487  55.351 -52.950  1.00  0.00     0.131 HD
HETATM   15  H   UNL     1     -39.750  51.505 -49.913  1.00  0.00     0.169 HD
ENDROOT
BRANCH   1  16
HETATM   16  C   UNL     1     -42.371  54.655 -51.033  1.00  0.00     0.132 C 
BRANCH  16  17
HETATM   17  C   UNL     1     -42.816  56.102 -51.009  1.00  0.00     0.224 C 
HETATM   18  N   UNL     1     -44.107  56.283 -51.469  1.00  0.00    -0.327 N 
HETATM   19  H   UNL     1     -44.737  55.484 -51.435  1.00  0.00     0.169 HD
HETATM   20  O   UNL     1     -42.053  56.985 -50.632  1.00  0.00    -0.273 OA
BRANCH  18  21
HETATM   21  C   UNL     1     -44.675  57.485 -51.943  1.00  0.00     0.035 A 
HETATM   22  C   UNL     1     -45.236  58.451 -51.100  1.00  0.00     0.043 A 
HETATM   23  C   UNL     1     -45.671  59.685 -51.634  1.00  0.00    -0.006 A 
HETATM   24  C   UNL     1     -45.554  59.913 -53.008  1.00  0.00     0.044 A 
HETATM   25  C   UNL     1     -46.232  60.857 -51.056  1.00  0.00     0.031 A 
HETATM   26  N   UNL     1     -46.025  61.189 -53.241  1.00  0.00    -0.360 N 
HETATM   27  C   UNL     1     -45.029  58.943 -53.872  1.00  0.00     0.033 A 
HETATM   28  C   UNL     1     -46.074  61.853 -54.525  1.00  0.00     0.155 C 
HETATM   29  C   UNL     1     -46.438  61.766 -52.068  1.00  0.00     0.091 A 
HETATM   30  C   UNL     1     -44.585  57.736 -53.315  1.00  0.00     0.032 A 
ENDBRANCH  18  21
ENDBRANCH  16  17
ENDBRANCH   1  16
TORSDOF 3
ENDMDL
MODEL 5
REMARK VINA RESULT:      -8.2      2.048      3.321
REMARK  3 active torsions:
REMARK  status: ('A' for Active; 'I' for Inactive)
REMARK    1  A    between atoms: C_6  and  N_7 
REMARK       I    between atoms: N_7  and  C_8 
REMARK    2  A    between atoms: C_8  and  C_9 
REMARK    3  A    between atoms: C_9  and  C_10 
ROOT
HETATM    1  C   UNL     1     -43.112  55.621 -52.132  1.00  0.00     0.164 C 
HETATM    2  N   UNL     1     -42.611  54.776 -51.064  1.00  0.00    -0.245 NA
HETATM    3  C   UNL     1     -41.323  54.330 -51.065  1.00  0.00     0.234 C 
HETATM    4  O   UNL     1     -40.594  54.663 -50.134  1.00  0.00    -0.274 OA
HETATM    5  C   UNL     1     -40.878  53.401 -52.126  1.00  0.00     0.053 A 
HETATM    6  C   UNL     1     -41.471  53.232 -53.382  1.00  0.00     0.050 A 
HETATM    7  N   UNL     1     -42.533  53.959 -53.940  1.00  0.00    -0.325 N 
HETATM    8  C   UNL     1     -43.299  54.985 -53.499  1.00  0.00     0.240 C 
HETATM    9  O   UNL     1     -44.127  55.459 -54.286  1.00  0.00    -0.271 OA
HETATM   10  C   UNL     1     -39.783  52.586 -51.763  1.00  0.00     0.019 A 
HETATM   11  C   UNL     1     -39.292  51.600 -52.618  1.00  0.00     0.001 A 
HETATM   12  C   UNL     1     -39.885  51.420 -53.857  1.00  0.00     0.002 A 
HETATM   13  C   UNL     1     -40.955  52.232 -54.234  1.00  0.00     0.030 A 
HETATM   14  H   UNL     1     -42.817  55.165 -50.151  1.00  0.00     0.131 HD
HETATM   15  H   UNL     1     -42.796  53.719 -54.891  1.00  0.00     0.169 HD
ENDROOT
BRANCH   1  16
HETATM   16  C   UNL     1     -42.445  56.993 -52.207  1.00  0.00     0.132 C 
BRANCH  16  17
HETATM   17  C   UNL     1     -41.742  57.310 -53.510  1.00  0.00     0.224 C 
HETATM   18  N   UNL     1     -42.460  58.169 -54.321  1.00  0.00    -0.327 N 
HETATM   19  H   UNL     1     -43.154  58.768 -53.878  1.00  0.00     0.169 HD
HETATM   20  O   UNL     1     -40.656  56.805 -53.774  1.00  0.00    -0.273 OA
BRANCH  18  21
HETATM   21  C   UNL     1     -42.302  58.349 -55.712  1.00  0.00     0.035 A 
HETATM   22  C   UNL     1     -42.501  57.324 -56.644  1.00  0.00     0.043 A 
HETATM   23  C   UNL     1     -42.450  57.610 -58.027  1.00  0.00    -0.006 A 
HETATM   24  C   UNL     1     -42.177  58.916 -58.444  1.00  0.00     0.044 A 
HETATM   25  C   UNL     1     -42.642  56.824 -59.196  1.00  0.00     0.031 A 
HETATM   26  N   UNL     1     -42.213  58.909 -59.824  1.00  0.00    -0.360 N 
HETATM   27  C   UNL     1     -41.939  59.947 -57.525  1.00  0.00     0.033 A 
HETATM   28  C   UNL     1     -42.006  60.054 -60.683  1.00  0.00     0.155 C 
HETATM   29  C   UNL     1     -42.492  57.649 -60.286  1.00  0.00     0.091 A 
HETATM   30  C   UNL     1     -42.017  59.642 -56.159  1.00  0.00     0.032 A 
ENDBRANCH  18  21
ENDBRANCH  16  17
ENDBRANCH   1  16
TORSDOF 3
ENDMDL
MODEL 6
REMARK VINA RESULT:      -8.1      3.400      9.186
REMARK  3 active torsions:
REMARK  status: ('A' for Active; 'I' for Inactive)
REMARK    1  A    between atoms: C_6  and  N_7 
REMARK       I    between atoms: N_7  and  C_8 
REMARK    2  A    between atoms: C_8  and  C_9 
REMARK    3  A    between atoms: C_9  and  C_10 
ROOT
HETATM    1  C   UNL     1     -42.855  59.072 -57.469  1.00  0.00     0.164 C 
HETATM    2  N   UNL     1     -43.517  59.577 -58.658  1.00  0.00    -0.245 NA
HETATM    3  C   UNL     1     -42.818  59.821 -59.802  1.00  0.00     0.234 C 
HETATM    4  O   UNL     1     -43.118  59.188 -60.811  1.00  0.00    -0.274 OA
HETATM    5  C   UNL     1     -41.795  60.889 -59.813  1.00  0.00     0.053 A 
HETATM    6  C   UNL     1     -41.136  61.418 -58.697  1.00  0.00     0.050 A 
HETATM    7  N   UNL     1     -41.223  60.994 -57.363  1.00  0.00    -0.325 N 
HETATM    8  C   UNL     1     -41.919  60.017 -56.734  1.00  0.00     0.240 C 
HETATM    9  O   UNL     1     -41.711  59.855 -55.526  1.00  0.00    -0.271 OA
HETATM   10  C   UNL     1     -41.539  61.436 -61.090  1.00  0.00     0.019 A 
HETATM   11  C   UNL     1     -40.662  62.506 -61.264  1.00  0.00     0.001 A 
HETATM   12  C   UNL     1     -40.019  63.041 -60.160  1.00  0.00     0.002 A 
HETATM   13  C   UNL     1     -40.249  62.497 -58.896  1.00  0.00     0.030 A 
HETATM   14  H   UNL     1     -44.337  59.028 -58.891  1.00  0.00     0.131 HD
HETATM   15  H   UNL     1     -40.629  61.475 -56.695  1.00  0.00     0.169 HD
ENDROOT
BRANCH   1  16
HETATM   16  C   UNL     1     -42.271  57.670 -57.628  1.00  0.00     0.132 C 
BRANCH  16  17
HETATM   17  C   UNL     1     -42.537  56.716 -56.484  1.00  0.00     0.224 C 
HETATM   18  N   UNL     1     -41.452  56.561 -55.641  1.00  0.00    -0.327 N 
HETATM   19  H   UNL     1     -40.756  57.303 -55.624  1.00  0.00     0.169 HD
HETATM   20  O   UNL     1     -43.619  56.148 -56.381  1.00  0.00    -0.273 OA
BRANCH  18  21
HETATM   21  C   UNL     1     -41.221  55.493 -54.747  1.00  0.00     0.035 A 
HETATM   22  C   UNL     1     -40.743  54.242 -55.156  1.00  0.00     0.043 A 
HETATM   23  C   UNL     1     -40.415  53.264 -54.190  1.00  0.00    -0.006 A 
HETATM   24  C   UNL     1     -40.596  53.555 -52.835  1.00  0.00     0.044 A 
HETATM   25  C   UNL     1     -39.884  51.947 -54.273  1.00  0.00     0.031 A 
HETATM   26  N   UNL     1     -40.177  52.444 -52.130  1.00  0.00    -0.360 N 
HETATM   27  C   UNL     1     -41.108  54.788 -52.409  1.00  0.00     0.033 A 
HETATM   28  C   UNL     1     -40.168  52.309 -50.690  1.00  0.00     0.155 C 
HETATM   29  C   UNL     1     -39.747  51.469 -52.991  1.00  0.00     0.091 A 
HETATM   30  C   UNL     1     -41.405  55.749 -53.385  1.00  0.00     0.032 A 
ENDBRANCH  18  21
ENDBRANCH  16  17
ENDBRANCH   1  16
TORSDOF 3
ENDMDL
MODEL 7
REMARK VINA RESULT:      -8.1      3.582      8.452
REMARK  3 active torsions:
REMARK  status: ('A' for Active; 'I' for Inactive)
REMARK    1  A    between atoms: C_6  and  N_7 
REMARK       I    between atoms: N_7  and  C_8 
REMARK    2  A    between atoms: C_8  and  C_9 
REMARK    3  A    between atoms: C_9  and  C_10 
ROOT
HETATM    1  C   UNL     1     -41.733  58.218 -51.165  1.00  0.00     0.164 C 
HETATM    2  N   UNL     1     -43.082  57.782 -50.850  1.00  0.00    -0.245 NA
HETATM    3  C   UNL     1     -44.167  58.449 -51.336  1.00  0.00     0.234 C 
HETATM    4  O   UNL     1     -44.941  57.840 -52.070  1.00  0.00    -0.274 OA
HETATM    5  C   UNL     1     -44.420  59.839 -50.898  1.00  0.00     0.053 A 
HETATM    6  C   UNL     1     -43.475  60.728 -50.374  1.00  0.00     0.050 A 
HETATM    7  N   UNL     1     -42.091  60.539 -50.242  1.00  0.00    -0.325 N 
HETATM    8  C   UNL     1     -41.253  59.518 -50.542  1.00  0.00     0.240 C 
HETATM    9  O   UNL     1     -40.043  59.701 -50.365  1.00  0.00    -0.271 OA
HETATM   10  C   UNL     1     -45.772  60.238 -50.980  1.00  0.00     0.019 A 
HETATM   11  C   UNL     1     -46.194  61.488 -50.530  1.00  0.00     0.001 A 
HETATM   12  C   UNL     1     -45.264  62.365 -49.998  1.00  0.00     0.002 A 
HETATM   13  C   UNL     1     -43.922  61.990 -49.928  1.00  0.00     0.030 A 
HETATM   14  H   UNL     1     -43.206  56.792 -51.027  1.00  0.00     0.131 HD
HETATM   15  H   UNL     1     -41.559  61.323 -49.879  1.00  0.00     0.169 HD
ENDROOT
BRANCH   1  16
HETATM   16  C   UNL     1     -41.370  58.104 -52.645  1.00  0.00     0.132 C 
BRANCH  16  17
HETATM   17  C   UNL     1     -41.116  56.700 -53.150  1.00  0.00     0.224 C 
HETATM   18  N   UNL     1     -41.556  55.720 -52.280  1.00  0.00    -0.327 N 
HETATM   19  H   UNL     1     -42.284  55.971 -51.614  1.00  0.00     0.169 HD
HETATM   20  O   UNL     1     -40.549  56.513 -54.221  1.00  0.00    -0.273 OA
BRANCH  18  21
HETATM   21  C   UNL     1     -41.140  54.372 -52.244  1.00  0.00     0.035 A 
HETATM   22  C   UNL     1     -41.035  53.572 -53.388  1.00  0.00     0.043 A 
HETATM   23  C   UNL     1     -40.490  52.271 -53.290  1.00  0.00    -0.006 A 
HETATM   24  C   UNL     1     -40.083  51.794 -52.041  1.00  0.00     0.044 A 
HETATM   25  C   UNL     1     -40.219  51.251 -54.243  1.00  0.00     0.031 A 
HETATM   26  N   UNL     1     -39.575  50.527 -52.246  1.00  0.00    -0.360 N 
HETATM   27  C   UNL     1     -40.214  52.567 -50.880  1.00  0.00     0.033 A 
HETATM   28  C   UNL     1     -39.019  49.662 -51.228  1.00  0.00     0.155 C 
HETATM   29  C   UNL     1     -39.655  50.191 -53.572  1.00  0.00     0.091 A 
HETATM   30  C   UNL     1     -40.737  53.861 -51.006  1.00  0.00     0.032 A 
ENDBRANCH  18  21
ENDBRANCH  16  17
ENDBRANCH   1  16
TORSDOF 3
ENDMDL
MODEL 8
REMARK VINA RESULT:      -8.1      3.580      8.642
REMARK  3 active torsions:
REMARK  status: ('A' for Active; 'I' for Inactive)
REMARK    1  A    between atoms: C_6  and  N_7 
REMARK       I    between atoms: N_7  and  C_8 
REMARK    2  A    between atoms: C_8  and  C_9 
REMARK    3  A    between atoms: C_9  and  C_10 
ROOT
HETATM    1  C   UNL     1     -41.895  58.710 -54.161  1.00  0.00     0.164 C 
HETATM    2  N   UNL     1     -41.606  58.792 -52.741  1.00  0.00    -0.245 NA
HETATM    3  C   UNL     1     -42.529  59.275 -51.862  1.00  0.00     0.234 C 
HETATM    4  O   UNL     1     -42.934  58.525 -50.977  1.00  0.00    -0.274 OA
HETATM    5  C   UNL     1     -42.942  60.692 -51.949  1.00  0.00     0.053 A 
HETATM    6  C   UNL     1     -42.835  61.520 -53.072  1.00  0.00     0.050 A 
HETATM    7  N   UNL     1     -42.415  61.170 -54.365  1.00  0.00    -0.325 N 
HETATM    8  C   UNL     1     -41.995  60.014 -54.933  1.00  0.00     0.240 C 
HETATM    9  O   UNL     1     -41.762  60.027 -56.147  1.00  0.00    -0.271 OA
HETATM   10  C   UNL     1     -43.427  61.232 -50.737  1.00  0.00     0.019 A 
HETATM   11  C   UNL     1     -43.781  62.575 -50.626  1.00  0.00     0.001 A 
HETATM   12  C   UNL     1     -43.663  63.401 -51.732  1.00  0.00     0.002 A 
HETATM   13  C   UNL     1     -43.203  62.875 -52.940  1.00  0.00     0.030 A 
HETATM   14  H   UNL     1     -41.245  57.916 -52.381  1.00  0.00     0.131 HD
HETATM   15  H   UNL     1     -42.449  61.904 -55.066  1.00  0.00     0.169 HD
ENDROOT
BRANCH   1  16
HETATM   16  C   UNL     1     -43.013  57.729 -54.514  1.00  0.00     0.132 C 
BRANCH  16  17
HETATM   17  C   UNL     1     -42.840  56.321 -53.985  1.00  0.00     0.224 C 
HETATM   18  N   UNL     1     -41.535  56.027 -53.638  1.00  0.00    -0.327 N 
HETATM   19  H   UNL     1     -40.916  56.805 -53.422  1.00  0.00     0.169 HD
HETATM   20  O   UNL     1     -43.796  55.557 -53.917  1.00  0.00    -0.273 OA
BRANCH  18  21
HETATM   21  C   UNL     1     -40.966  54.743 -53.497  1.00  0.00     0.035 A 
HETATM   22  C   UNL     1     -40.699  54.155 -52.255  1.00  0.00     0.043 A 
HETATM   23  C   UNL     1     -40.249  52.817 -52.191  1.00  0.00    -0.006 A 
HETATM   24  C   UNL     1     -40.055  52.105 -53.377  1.00  0.00     0.044 A 
HETATM   25  C   UNL     1     -39.934  51.942 -51.115  1.00  0.00     0.031 A 
HETATM   26  N   UNL     1     -39.644  50.837 -53.018  1.00  0.00    -0.360 N 
HETATM   27  C   UNL     1     -40.282  52.688 -54.631  1.00  0.00     0.033 A 
HETATM   28  C   UNL     1     -39.345  49.753 -53.927  1.00  0.00     0.155 C 
HETATM   29  C   UNL     1     -39.567  50.731 -51.653  1.00  0.00     0.091 A 
HETATM   30  C   UNL     1     -40.749  54.009 -54.667  1.00  0.00     0.032 A 
ENDBRANCH  18  21
ENDBRANCH  16  17
ENDBRANCH   1  16
TORSDOF 3
ENDMDL
MODEL 9
REMARK VINA RESULT:      -8.0      4.132      5.296
REMARK  3 active torsions:
REMARK  status: ('A' for Active; 'I' for Inactive)
REMARK    1  A    between atoms: C_6  and  N_7 
REMARK       I    between atoms: N_7  and  C_8 
REMARK    2  A    between atoms: C_8  and  C_9 
REMARK    3  A    between atoms: C_9  and  C_10 
ROOT
HETATM    1  C   UNL     1     -41.754  56.117 -53.635  1.00  0.00     0.164 C 
HETATM    2  N   UNL     1     -41.963  55.451 -52.362  1.00  0.00    -0.245 NA
HETATM    3  C   UNL     1     -40.979  54.701 -51.790  1.00  0.00     0.234 C 
HETATM    4  O   UNL     1     -40.551  55.047 -50.692  1.00  0.00    -0.274 OA
HETATM    5  C   UNL     1     -40.528  53.464 -52.462  1.00  0.00     0.053 A 
HETATM    6  C   UNL     1     -40.669  53.158 -53.820  1.00  0.00     0.050 A 
HETATM    7  N   UNL     1     -41.169  53.980 -54.842  1.00  0.00    -0.325 N 
HETATM    8  C   UNL     1     -41.655  55.244 -54.874  1.00  0.00     0.240 C 
HETATM    9  O   UNL     1     -41.953  55.713 -55.978  1.00  0.00    -0.271 OA
HETATM   10  C   UNL     1     -39.961  52.504 -51.593  1.00  0.00     0.019 A 
HETATM   11  C   UNL     1     -39.560  51.251 -52.052  1.00  0.00     0.001 A 
HETATM   12  C   UNL     1     -39.711  50.939 -53.394  1.00  0.00     0.002 A 
HETATM   13  C   UNL     1     -40.253  51.886 -54.265  1.00  0.00     0.030 A 
HETATM   14  H   UNL     1     -42.332  56.087 -51.663  1.00  0.00     0.131 HD
HETATM   15  H   UNL     1     -41.150  53.596 -55.781  1.00  0.00     0.169 HD
ENDROOT
BRANCH   1  16
HETATM   16  C   UNL     1     -40.689  57.211 -53.598  1.00  0.00     0.132 C 
BRANCH  16  17
HETATM   17  C   UNL     1     -41.158  58.566 -53.114  1.00  0.00     0.224 C 
HETATM   18  N   UNL     1     -41.889  58.502 -51.942  1.00  0.00    -0.327 N 
HETATM   19  H   UNL     1     -41.754  57.689 -51.344  1.00  0.00     0.169 HD
HETATM   20  O   UNL     1     -40.904  59.582 -53.752  1.00  0.00    -0.273 OA
BRANCH  18  21
HETATM   21  C   UNL     1     -42.782  59.477 -51.447  1.00  0.00     0.035 A 
HETATM   22  C   UNL     1     -42.358  60.685 -50.881  1.00  0.00     0.043 A 
HETATM   23  C   UNL     1     -43.310  61.667 -50.524  1.00  0.00    -0.006 A 
HETATM   24  C   UNL     1     -44.668  61.406 -50.724  1.00  0.00     0.044 A 
HETATM   25  C   UNL     1     -43.206  62.977 -49.980  1.00  0.00     0.031 A 
HETATM   26  N   UNL     1     -45.354  62.532 -50.316  1.00  0.00    -0.360 N 
HETATM   27  C   UNL     1     -45.113  60.188 -51.256  1.00  0.00     0.033 A 
HETATM   28  C   UNL     1     -46.788  62.714 -50.363  1.00  0.00     0.155 C 
HETATM   29  C   UNL     1     -44.479  63.485 -49.864  1.00  0.00     0.091 A 
HETATM   30  C   UNL     1     -44.148  59.239 -51.622  1.00  0.00     0.032 A 
ENDBRANCH  18  21
ENDBRANCH  16  17
ENDBRANCH   1  16
TORSDOF 3
ENDMDL
MODEL 10
REMARK VINA RESULT:      -7.8      2.463      4.245
REMARK  3 active torsions:
REMARK  status: ('A' for Active; 'I' for Inactive)
REMARK    1  A    between atoms: C_6  and  N_7 
REMARK       I    between atoms: N_7  and  C_8 
REMARK    2  A    between atoms: C_8  and  C_9 
REMARK    3  A    between atoms: C_9  and  C_10 
ROOT
HETATM    1  C   UNL     1     -43.537  55.288 -54.182  1.00  0.00     0.164 C 
HETATM    2  N   UNL     1     -43.642  54.735 -52.844  1.00  0.00    -0.245 NA
HETATM    3  C   UNL     1     -42.537  54.568 -52.064  1.00  0.00     0.234 C 
HETATM    4  O   UNL     1     -42.480  55.181 -51.000  1.00  0.00    -0.274 OA
HETATM    5  C   UNL     1     -41.498  53.600 -52.476  1.00  0.00     0.053 A 
HETATM    6  C   UNL     1     -41.275  53.125 -53.774  1.00  0.00     0.050 A 
HETATM    7  N   UNL     1     -41.908  53.525 -54.960  1.00  0.00    -0.325 N 
HETATM    8  C   UNL     1     -42.877  54.428 -55.246  1.00  0.00     0.240 C 
HETATM    9  O   UNL     1     -43.166  54.597 -56.436  1.00  0.00    -0.271 OA
HETATM   10  C   UNL     1     -40.721  53.091 -51.412  1.00  0.00     0.019 A 
HETATM   11  C   UNL     1     -39.754  52.109 -51.618  1.00  0.00     0.001 A 
HETATM   12  C   UNL     1     -39.540  51.626 -52.898  1.00  0.00     0.002 A 
HETATM   13  C   UNL     1     -40.288  52.134 -53.961  1.00  0.00     0.030 A 
HETATM   14  H   UNL     1     -44.354  55.208 -52.298  1.00  0.00     0.131 HD
HETATM   15  H   UNL     1     -41.577  53.095 -55.817  1.00  0.00     0.169 HD
ENDROOT
BRANCH   1  16
HETATM   16  C   UNL     1     -43.065  56.741 -54.221  1.00  0.00     0.132 C 
BRANCH  16  17
HETATM   17  C   UNL     1     -43.474  57.529 -55.447  1.00  0.00     0.224 C 
HETATM   18  N   UNL     1     -42.487  57.582 -56.414  1.00  0.00    -0.327 N 
HETATM   19  H   UNL     1     -41.777  56.853 -56.406  1.00  0.00     0.169 HD
HETATM   20  O   UNL     1     -44.575  58.064 -55.509  1.00  0.00    -0.273 OA
BRANCH  18  21
HETATM   21  C   UNL     1     -42.379  58.523 -57.461  1.00  0.00     0.035 A 
HETATM   22  C   UNL     1     -41.761  59.770 -57.309  1.00  0.00     0.043 A 
HETATM   23  C   UNL     1     -41.577  60.606 -58.433  1.00  0.00    -0.006 A 
HETATM   24  C   UNL     1     -42.037  60.182 -59.682  1.00  0.00     0.044 A 
HETATM   25  C   UNL     1     -40.968  61.879 -58.616  1.00  0.00     0.031 A 
HETATM   26  N   UNL     1     -41.704  61.171 -60.586  1.00  0.00    -0.360 N 
HETATM   27  C   UNL     1     -42.690  58.952 -59.847  1.00  0.00     0.033 A 
HETATM   28  C   UNL     1     -41.971  61.144 -62.007  1.00  0.00     0.155 C 
HETATM   29  C   UNL     1     -41.060  62.199 -59.950  1.00  0.00     0.091 A 
HETATM   30  C   UNL     1     -42.841  58.132 -58.721  1.00  0.00     0.032 A 
ENDBRANCH  18  21
ENDBRANCH  16  17
ENDBRANCH   1  16
TORSDOF 3
ENDMDL
