MODEL 1
REMARK VINA RESULT:      -8.6      0.000      0.000
REMARK  4 active torsions:
REMARK  status: ('A' for Active; 'I' for Inactive)
REMARK    1  A    between atoms: C_3  and  N_4 
REMARK       I    between atoms: N_4  and  C_5 
REMARK    2  A    between atoms: C_5  and  C_6 
REMARK    3  A    between atoms: C_7  and  C_8 
REMARK    4  A    between atoms: C_19  and  C_20 
ROOT
HETATM    1  N   UNL     1     -42.253  56.528 -56.767  1.00  0.00    -0.324 N 
HETATM    2  C   UNL     1     -42.288  57.003 -55.471  1.00  0.00     0.245 C 
HETATM    3  O   UNL     1     -42.684  58.099 -55.097  1.00  0.00    -0.268 OA
HETATM    4  H   UNL     1     -41.936  55.578 -56.906  1.00  0.00     0.169 HD
ENDROOT
BRANCH   1   5
HETATM    5  C   UNL     1     -42.601  57.231 -57.944  1.00  0.00     0.035 A 
HETATM    6  C   UNL     1     -41.792  58.197 -58.541  1.00  0.00     0.029 A 
HETATM    7  C   UNL     1     -42.194  58.828 -59.719  1.00  0.00     0.003 A 
HETATM    8  C   UNL     1     -43.414  58.503 -60.311  1.00  0.00     0.012 A 
HETATM    9  C   UNL     1     -44.247  57.543 -59.727  1.00  0.00    -0.021 A 
HETATM   10  C   UNL     1     -43.829  56.911 -58.545  1.00  0.00     0.042 A 
BRANCH   9  11
HETATM   11  C   UNL     1     -45.515  57.208 -60.353  1.00  0.00     0.010 A 
HETATM   12  C   UNL     1     -46.024  55.967 -60.803  1.00  0.00     0.152 A 
HETATM   13  N   UNL     1     -47.238  56.072 -61.350  1.00  0.00    -0.187 NA
HETATM   14  N   UNL     1     -47.508  57.384 -61.262  1.00  0.00    -0.289 N 
HETATM   15  H   UNL     1     -48.393  57.717 -61.631  1.00  0.00     0.188 HD
HETATM   16  C   UNL     1     -46.512  58.107 -60.672  1.00  0.00     0.123 A 
ENDBRANCH   9  11
ENDBRANCH   1   5
BRANCH   2  17
HETATM   17  C   UNL     1     -41.760  56.004 -54.497  1.00  0.00     0.075 C 
HETATM   18  C   UNL     1     -41.226  54.858 -54.950  1.00  0.00     0.017 C 
BRANCH  18  19
HETATM   19  C   UNL     1     -40.705  53.782 -54.095  1.00  0.00    -0.035 A 
HETATM   20  C   UNL     1     -40.448  52.531 -54.679  1.00  0.00     0.021 A 
HETATM   21  C   UNL     1     -40.022  51.491 -53.868  1.00  0.00    -0.022 A 
HETATM   22  C   UNL     1     -39.845  51.677 -52.507  1.00  0.00     0.075 A 
HETATM   23  C   UNL     1     -39.632  50.109 -54.225  1.00  0.00     0.068 C 
HETATM   24  O   UNL     1     -39.416  50.554 -51.851  1.00  0.00    -0.350 OA
HETATM   25  C   UNL     1     -40.082  52.892 -51.902  1.00  0.00     0.038 A 
HETATM   26  C   UNL     1     -39.612  49.500 -52.823  1.00  0.00     0.180 C 
HETATM   27  C   UNL     1     -40.528  53.947 -52.704  1.00  0.00     0.014 A 
ENDBRANCH  18  19
ENDBRANCH   2  17
TORSDOF 4
ENDMDL
MODEL 2
REMARK VINA RESULT:      -8.6      2.114      3.576
REMARK  4 active torsions:
REMARK  status: ('A' for Active; 'I' for Inactive)
REMARK    1  A    between atoms: C_3  and  N_4 
REMARK       I    between atoms: N_4  and  C_5 
REMARK    2  A    between atoms: C_5  and  C_6 
REMARK    3  A    between atoms: C_7  and  C_8 
REMARK    4  A    between atoms: C_19  and  C_20 
ROOT
HETATM    1  N   UNL     1     -42.577  55.845 -57.505  1.00  0.00    -0.324 N 
HETATM    2  C   UNL     1     -42.930  55.817 -56.170  1.00  0.00     0.245 C 
HETATM    3  O   UNL     1     -43.608  56.638 -55.568  1.00  0.00    -0.268 OA
HETATM    4  H   UNL     1     -42.045  55.064 -57.862  1.00  0.00     0.169 HD
ENDROOT
BRANCH   1   5
HETATM    5  C   UNL     1     -42.864  56.864 -58.442  1.00  0.00     0.035 A 
HETATM    6  C   UNL     1     -43.746  56.711 -59.511  1.00  0.00     0.029 A 
HETATM    7  C   UNL     1     -43.999  57.774 -60.379  1.00  0.00     0.003 A 
HETATM    8  C   UNL     1     -43.369  59.003 -60.189  1.00  0.00     0.012 A 
HETATM    9  C   UNL     1     -42.475  59.181 -59.128  1.00  0.00    -0.021 A 
HETATM   10  C   UNL     1     -42.232  58.104 -58.258  1.00  0.00     0.042 A 
BRANCH   9  11
HETATM   11  C   UNL     1     -41.825  60.466 -58.936  1.00  0.00     0.010 A 
HETATM   12  C   UNL     1     -41.405  61.439 -59.873  1.00  0.00     0.152 A 
HETATM   13  N   UNL     1     -40.820  62.494 -59.300  1.00  0.00    -0.187 NA
HETATM   14  N   UNL     1     -40.854  62.197 -57.991  1.00  0.00    -0.289 N 
HETATM   15  H   UNL     1     -40.448  62.860 -57.339  1.00  0.00     0.188 HD
HETATM   16  C   UNL     1     -41.446  60.997 -57.720  1.00  0.00     0.123 A 
ENDBRANCH   9  11
ENDBRANCH   1   5
BRANCH   2  17
HETATM   17  C   UNL     1     -42.373  54.622 -55.472  1.00  0.00     0.075 C 
HETATM   18  C   UNL     1     -41.537  54.793 -54.434  1.00  0.00     0.017 C 
BRANCH  18  19
HETATM   19  C   UNL     1     -40.896  53.702 -53.687  1.00  0.00    -0.035 A 
HETATM   20  C   UNL     1     -40.646  52.492 -54.354  1.00  0.00     0.021 A 
HETATM   21  C   UNL     1     -40.105  51.436 -53.639  1.00  0.00    -0.022 A 
HETATM   22  C   UNL     1     -39.806  51.566 -52.294  1.00  0.00     0.075 A 
HETATM   23  C   UNL     1     -39.698  50.090 -54.099  1.00  0.00     0.068 C 
HETATM   24  O   UNL     1     -39.273  50.434 -51.736  1.00  0.00    -0.350 OA
HETATM   25  C   UNL     1     -40.032  52.741 -51.609  1.00  0.00     0.038 A 
HETATM   26  C   UNL     1     -39.519  49.418 -52.737  1.00  0.00     0.180 C 
HETATM   27  C   UNL     1     -40.593  53.811 -52.312  1.00  0.00     0.014 A 
ENDBRANCH  18  19
ENDBRANCH   2  17
TORSDOF 4
ENDMDL
MODEL 3
REMARK VINA RESULT:      -8.5      3.420      9.885
REMARK  4 active torsions:
REMARK  status: ('A' for Active; 'I' for Inactive)
REMARK    1  A    between atoms: C_3  and  N_4 
REMARK       I    between atoms: N_4  and  C_5 
REMARK    2  A    between atoms: C_5  and  C_6 
REMARK    3  A    between atoms: C_7  and  C_8 
REMARK    4  A    between atoms: C_19  and  C_20 
ROOT
HETATM    1  N   UNL     1     -42.116  53.614 -54.769  1.00  0.00    -0.324 N 
HETATM    2  C   UNL     1     -42.028  54.856 -55.367  1.00  0.00     0.245 C 
HETATM    3  O   UNL     1     -41.172  55.709 -55.175  1.00  0.00    -0.268 OA
HETATM    4  H   UNL     1     -42.864  53.005 -55.070  1.00  0.00     0.169 HD
ENDROOT
BRANCH   1   5
HETATM    5  C   UNL     1     -41.276  53.092 -53.759  1.00  0.00     0.035 A 
HETATM    6  C   UNL     1     -40.333  52.087 -53.973  1.00  0.00     0.029 A 
HETATM    7  C   UNL     1     -39.521  51.643 -52.929  1.00  0.00     0.003 A 
HETATM    8  C   UNL     1     -39.646  52.197 -51.655  1.00  0.00     0.012 A 
HETATM    9  C   UNL     1     -40.589  53.201 -51.413  1.00  0.00    -0.021 A 
HETATM   10  C   UNL     1     -41.397  53.644 -52.473  1.00  0.00     0.042 A 
BRANCH   9  11
HETATM   11  C   UNL     1     -40.709  53.775 -50.083  1.00  0.00     0.010 A 
HETATM   12  C   UNL     1     -41.173  55.044 -49.663  1.00  0.00     0.152 A 
HETATM   13  N   UNL     1     -41.110  55.208 -48.339  1.00  0.00    -0.187 NA
HETATM   14  N   UNL     1     -40.594  54.046 -47.905  1.00  0.00    -0.289 N 
HETATM   15  H   UNL     1     -40.439  53.934 -46.909  1.00  0.00     0.188 HD
HETATM   16  C   UNL     1     -40.340  53.155 -48.907  1.00  0.00     0.123 A 
ENDBRANCH   9  11
ENDBRANCH   1   5
BRANCH   2  17
HETATM   17  C   UNL     1     -43.144  55.092 -56.328  1.00  0.00     0.075 C 
HETATM   18  C   UNL     1     -42.866  55.284 -57.628  1.00  0.00     0.017 C 
BRANCH  18  19
HETATM   19  C   UNL     1     -43.869  55.560 -58.667  1.00  0.00    -0.035 A 
HETATM   20  C   UNL     1     -44.465  56.831 -58.699  1.00  0.00     0.021 A 
HETATM   21  C   UNL     1     -45.459  57.078 -59.631  1.00  0.00    -0.022 A 
HETATM   22  C   UNL     1     -45.859  56.096 -60.522  1.00  0.00     0.075 A 
HETATM   23  C   UNL     1     -46.204  58.324 -59.916  1.00  0.00     0.068 C 
HETATM   24  O   UNL     1     -46.848  56.501 -61.379  1.00  0.00    -0.350 OA
HETATM   25  C   UNL     1     -45.293  54.840 -60.523  1.00  0.00     0.038 A 
HETATM   26  C   UNL     1     -47.309  57.744 -60.799  1.00  0.00     0.180 C 
HETATM   27  C   UNL     1     -44.298  54.569 -59.577  1.00  0.00     0.014 A 
ENDBRANCH  18  19
ENDBRANCH   2  17
TORSDOF 4
ENDMDL
MODEL 4
REMARK VINA RESULT:      -8.1      3.471      9.662
REMARK  4 active torsions:
REMARK  status: ('A' for Active; 'I' for Inactive)
REMARK    1  A    between atoms: C_3  and  N_4 
REMARK       I    between atoms: N_4  and  C_5 
REMARK    2  A    between atoms: C_5  and  C_6 
REMARK    3  A    between atoms: C_7  and  C_8 
REMARK    4  A    between atoms: C_19  and  C_20 
ROOT
HETATM    1  N   UNL     1     -41.525  55.487 -53.650  1.00  0.00    -0.324 N 
HETATM    2  C   UNL     1     -42.769  55.410 -54.244  1.00  0.00     0.245 C 
HETATM    3  O   UNL     1     -43.696  54.676 -53.925  1.00  0.00    -0.268 OA
HETATM    4  H   UNL     1     -40.882  56.180 -54.006  1.00  0.00     0.169 HD
ENDROOT
BRANCH   1   5
HETATM    5  C   UNL     1     -41.034  54.689 -52.591  1.00  0.00     0.035 A 
HETATM    6  C   UNL     1     -40.914  55.131 -51.274  1.00  0.00     0.029 A 
HETATM    7  C   UNL     1     -40.445  54.273 -50.278  1.00  0.00     0.003 A 
HETATM    8  C   UNL     1     -40.086  52.963 -50.590  1.00  0.00     0.012 A 
HETATM    9  C   UNL     1     -40.191  52.497 -51.905  1.00  0.00    -0.021 A 
HETATM   10  C   UNL     1     -40.669  53.368 -52.898  1.00  0.00     0.042 A 
BRANCH   9  11
HETATM   11  C   UNL     1     -39.818  51.128 -52.220  1.00  0.00     0.010 A 
HETATM   12  C   UNL     1     -39.665  50.476 -53.466  1.00  0.00     0.152 A 
HETATM   13  N   UNL     1     -39.328  49.189 -53.340  1.00  0.00    -0.187 NA
HETATM   14  N   UNL     1     -39.273  49.009 -52.011  1.00  0.00    -0.289 N 
HETATM   15  H   UNL     1     -39.040  48.085 -51.662  1.00  0.00     0.188 HD
HETATM   16  C   UNL     1     -39.555  50.137 -51.296  1.00  0.00     0.123 A 
ENDBRANCH   9  11
ENDBRANCH   1   5
BRANCH   2  17
HETATM   17  C   UNL     1     -42.898  56.354 -55.392  1.00  0.00     0.075 C 
HETATM   18  C   UNL     1     -42.829  55.881 -56.647  1.00  0.00     0.017 C 
BRANCH  18  19
HETATM   19  C   UNL     1     -42.906  56.708 -57.859  1.00  0.00    -0.035 A 
HETATM   20  C   UNL     1     -42.753  58.098 -57.730  1.00  0.00     0.021 A 
HETATM   21  C   UNL     1     -42.892  58.892 -58.857  1.00  0.00    -0.022 A 
HETATM   22  C   UNL     1     -43.171  58.332 -60.092  1.00  0.00     0.075 A 
HETATM   23  C   UNL     1     -42.730  60.355 -59.012  1.00  0.00     0.068 C 
HETATM   24  O   UNL     1     -43.272  59.251 -61.103  1.00  0.00    -0.350 OA
HETATM   25  C   UNL     1     -43.321  56.972 -60.257  1.00  0.00     0.038 A 
HETATM   26  C   UNL     1     -43.348  60.515 -60.402  1.00  0.00     0.180 C 
HETATM   27  C   UNL     1     -43.200  56.158 -59.126  1.00  0.00     0.014 A 
ENDBRANCH  18  19
ENDBRANCH   2  17
TORSDOF 4
ENDMDL
MODEL 5
REMARK VINA RESULT:      -8.0      3.310      9.823
REMARK  4 active torsions:
REMARK  status: ('A' for Active; 'I' for Inactive)
REMARK    1  A    between atoms: C_3  and  N_4 
REMARK       I    between atoms: N_4  and  C_5 
REMARK    2  A    between atoms: C_5  and  C_6 
REMARK    3  A    between atoms: C_7  and  C_8 
REMARK    4  A    between atoms: C_19  and  C_20 
ROOT
HETATM    1  N   UNL     1     -41.374  54.375 -55.268  1.00  0.00    -0.324 N 
HETATM    2  C   UNL     1     -42.700  54.640 -55.549  1.00  0.00     0.245 C 
HETATM    3  O   UNL     1     -43.676  54.306 -54.891  1.00  0.00    -0.268 OA
HETATM    4  H   UNL     1     -40.680  54.760 -55.892  1.00  0.00     0.169 HD
ENDROOT
BRANCH   1   5
HETATM    5  C   UNL     1     -40.868  53.602 -54.197  1.00  0.00     0.035 A 
HETATM    6  C   UNL     1     -40.220  52.377 -54.361  1.00  0.00     0.029 A 
HETATM    7  C   UNL     1     -39.723  51.686 -53.255  1.00  0.00     0.003 A 
HETATM    8  C   UNL     1     -39.871  52.211 -51.972  1.00  0.00     0.012 A 
HETATM    9  C   UNL     1     -40.522  53.434 -51.781  1.00  0.00    -0.021 A 
HETATM   10  C   UNL     1     -41.014  54.123 -52.902  1.00  0.00     0.042 A 
BRANCH   9  11
HETATM   11  C   UNL     1     -40.668  53.975 -50.440  1.00  0.00     0.010 A 
HETATM   12  C   UNL     1     -41.100  55.249 -50.000  1.00  0.00     0.152 A 
HETATM   13  N   UNL     1     -41.077  55.373 -48.670  1.00  0.00    -0.187 NA
HETATM   14  N   UNL     1     -40.620  54.182 -48.253  1.00  0.00    -0.289 N 
HETATM   15  H   UNL     1     -40.504  54.036 -47.255  1.00  0.00     0.188 HD
HETATM   16  C   UNL     1     -40.362  53.310 -49.271  1.00  0.00     0.123 A 
ENDBRANCH   9  11
ENDBRANCH   1   5
BRANCH   2  17
HETATM   17  C   UNL     1     -42.856  55.416 -56.814  1.00  0.00     0.075 C 
HETATM   18  C   UNL     1     -42.356  56.660 -56.892  1.00  0.00     0.017 C 
BRANCH  18  19
HETATM   19  C   UNL     1     -42.473  57.538 -58.064  1.00  0.00    -0.035 A 
HETATM   20  C   UNL     1     -42.039  58.868 -57.949  1.00  0.00     0.021 A 
HETATM   21  C   UNL     1     -42.209  59.721 -59.027  1.00  0.00    -0.022 A 
HETATM   22  C   UNL     1     -42.790  59.276 -60.203  1.00  0.00     0.075 A 
HETATM   23  C   UNL     1     -41.798  61.133 -59.193  1.00  0.00     0.068 C 
HETATM   24  O   UNL     1     -42.880  60.239 -61.171  1.00  0.00    -0.350 OA
HETATM   25  C   UNL     1     -43.222  57.976 -60.353  1.00  0.00     0.038 A 
HETATM   26  C   UNL     1     -42.595  61.465 -60.455  1.00  0.00     0.180 C 
HETATM   27  C   UNL     1     -43.073  57.106 -59.268  1.00  0.00     0.014 A 
ENDBRANCH  18  19
ENDBRANCH   2  17
TORSDOF 4
ENDMDL
MODEL 6
REMARK VINA RESULT:      -7.8      6.665      8.687
REMARK  4 active torsions:
REMARK  status: ('A' for Active; 'I' for Inactive)
REMARK    1  A    between atoms: C_3  and  N_4 
REMARK       I    between atoms: N_4  and  C_5 
REMARK    2  A    between atoms: C_5  and  C_6 
REMARK    3  A    between atoms: C_7  and  C_8 
REMARK    4  A    between atoms: C_19  and  C_20 
ROOT
HETATM    1  N   UNL     1     -42.338  59.733 -50.652  1.00  0.00    -0.324 N 
HETATM    2  C   UNL     1     -42.764  58.903 -51.670  1.00  0.00     0.245 C 
HETATM    3  O   UNL     1     -43.759  59.043 -52.369  1.00  0.00    -0.268 OA
HETATM    4  H   UNL     1     -41.466  59.500 -50.196  1.00  0.00     0.169 HD
ENDROOT
BRANCH   1   5
HETATM    5  C   UNL     1     -42.995  60.883 -50.157  1.00  0.00     0.035 A 
HETATM    6  C   UNL     1     -42.699  62.184 -50.564  1.00  0.00     0.029 A 
HETATM    7  C   UNL     1     -43.412  63.267 -50.048  1.00  0.00     0.003 A 
HETATM    8  C   UNL     1     -44.428  63.060 -49.114  1.00  0.00     0.012 A 
HETATM    9  C   UNL     1     -44.738  61.766 -48.684  1.00  0.00    -0.021 A 
HETATM   10  C   UNL     1     -44.017  60.684 -49.215  1.00  0.00     0.042 A 
BRANCH   9  11
HETATM   11  C   UNL     1     -45.800  61.561 -47.714  1.00  0.00     0.010 A 
HETATM   12  C   UNL     1     -46.087  60.455 -46.879  1.00  0.00     0.152 A 
HETATM   13  N   UNL     1     -47.178  60.641 -46.129  1.00  0.00    -0.187 NA
HETATM   14  N   UNL     1     -47.600  61.864 -46.489  1.00  0.00    -0.289 N 
HETATM   15  H   UNL     1     -48.439  62.228 -46.051  1.00  0.00     0.188 HD
HETATM   16  C   UNL     1     -46.810  62.457 -47.431  1.00  0.00     0.123 A 
ENDBRANCH   9  11
ENDBRANCH   1   5
BRANCH   2  17
HETATM   17  C   UNL     1     -41.854  57.736 -51.855  1.00  0.00     0.075 C 
HETATM   18  C   UNL     1     -42.199  56.541 -51.347  1.00  0.00     0.017 C 
BRANCH  18  19
HETATM   19  C   UNL     1     -41.377  55.326 -51.431  1.00  0.00    -0.035 A 
HETATM   20  C   UNL     1     -41.277  54.671 -52.669  1.00  0.00     0.021 A 
HETATM   21  C   UNL     1     -40.560  53.488 -52.741  1.00  0.00    -0.022 A 
HETATM   22  C   UNL     1     -39.946  52.958 -51.619  1.00  0.00     0.075 A 
HETATM   23  C   UNL     1     -40.254  52.635 -53.911  1.00  0.00     0.068 C 
HETATM   24  O   UNL     1     -39.274  51.789 -51.860  1.00  0.00    -0.350 OA
HETATM   25  C   UNL     1     -40.018  53.577 -50.390  1.00  0.00     0.038 A 
HETATM   26  C   UNL     1     -39.739  51.398 -53.175  1.00  0.00     0.180 C 
HETATM   27  C   UNL     1     -40.752  54.764 -50.296  1.00  0.00     0.014 A 
ENDBRANCH  18  19
ENDBRANCH   2  17
TORSDOF 4
ENDMDL
MODEL 7
REMARK VINA RESULT:      -7.8      3.231      3.941
REMARK  4 active torsions:
REMARK  status: ('A' for Active; 'I' for Inactive)
REMARK    1  A    between atoms: C_3  and  N_4 
REMARK       I    between atoms: N_4  and  C_5 
REMARK    2  A    between atoms: C_5  and  C_6 
REMARK    3  A    between atoms: C_7  and  C_8 
REMARK    4  A    between atoms: C_19  and  C_20 
ROOT
HETATM    1  N   UNL     1     -42.200  57.153 -55.782  1.00  0.00    -0.324 N 
HETATM    2  C   UNL     1     -42.561  55.988 -56.430  1.00  0.00     0.245 C 
HETATM    3  O   UNL     1     -43.269  55.885 -57.424  1.00  0.00    -0.268 OA
HETATM    4  H   UNL     1     -41.570  57.071 -54.996  1.00  0.00     0.169 HD
ENDROOT
BRANCH   1   5
HETATM    5  C   UNL     1     -42.626  58.466 -56.086  1.00  0.00     0.035 A 
HETATM    6  C   UNL     1     -43.621  59.143 -55.381  1.00  0.00     0.029 A 
HETATM    7  C   UNL     1     -43.968  60.451 -55.724  1.00  0.00     0.003 A 
HETATM    8  C   UNL     1     -43.325  61.095 -56.781  1.00  0.00     0.012 A 
HETATM    9  C   UNL     1     -42.329  60.435 -57.508  1.00  0.00    -0.021 A 
HETATM   10  C   UNL     1     -41.986  59.121 -57.150  1.00  0.00     0.042 A 
BRANCH   9  11
HETATM   11  C   UNL     1     -41.663  61.115 -58.605  1.00  0.00     0.010 A 
HETATM   12  C   UNL     1     -41.850  61.016 -60.004  1.00  0.00     0.152 A 
HETATM   13  N   UNL     1     -41.018  61.799 -60.696  1.00  0.00    -0.187 NA
HETATM   14  N   UNL     1     -40.286  62.397 -59.742  1.00  0.00    -0.289 N 
HETATM   15  H   UNL     1     -39.561  63.046 -60.031  1.00  0.00     0.188 HD
HETATM   16  C   UNL     1     -40.633  62.025 -58.476  1.00  0.00     0.123 A 
ENDBRANCH   9  11
ENDBRANCH   1   5
BRANCH   2  17
HETATM   17  C   UNL     1     -41.984  54.781 -55.771  1.00  0.00     0.075 C 
HETATM   18  C   UNL     1     -41.491  54.880 -54.526  1.00  0.00     0.017 C 
BRANCH  18  19
HETATM   19  C   UNL     1     -40.866  53.778 -53.782  1.00  0.00    -0.035 A 
HETATM   20  C   UNL     1     -40.637  52.565 -54.452  1.00  0.00     0.021 A 
HETATM   21  C   UNL     1     -40.112  51.499 -53.741  1.00  0.00    -0.022 A 
HETATM   22  C   UNL     1     -39.808  51.622 -52.395  1.00  0.00     0.075 A 
HETATM   23  C   UNL     1     -39.727  50.147 -54.204  1.00  0.00     0.068 C 
HETATM   24  O   UNL     1     -39.292  50.480 -51.841  1.00  0.00    -0.350 OA
HETATM   25  C   UNL     1     -40.013  52.798 -51.707  1.00  0.00     0.038 A 
HETATM   26  C   UNL     1     -39.557  49.470 -52.844  1.00  0.00     0.180 C 
HETATM   27  C   UNL     1     -40.559  53.879 -52.408  1.00  0.00     0.014 A 
ENDBRANCH  18  19
ENDBRANCH   2  17
TORSDOF 4
ENDMDL
MODEL 8
REMARK VINA RESULT:      -7.7      3.526      9.360
REMARK  4 active torsions:
REMARK  status: ('A' for Active; 'I' for Inactive)
REMARK    1  A    between atoms: C_3  and  N_4 
REMARK       I    between atoms: N_4  and  C_5 
REMARK    2  A    between atoms: C_5  and  C_6 
REMARK    3  A    between atoms: C_7  and  C_8 
REMARK    4  A    between atoms: C_19  and  C_20 
ROOT
HETATM    1  N   UNL     1     -41.528  55.344 -53.588  1.00  0.00    -0.324 N 
HETATM    2  C   UNL     1     -41.289  56.649 -53.974  1.00  0.00     0.245 C 
HETATM    3  O   UNL     1     -40.541  57.453 -53.434  1.00  0.00    -0.268 OA
HETATM    4  H   UNL     1     -42.144  54.793 -54.168  1.00  0.00     0.169 HD
ENDROOT
BRANCH   1   5
HETATM    5  C   UNL     1     -41.013  54.684 -52.448  1.00  0.00     0.035 A 
HETATM    6  C   UNL     1     -40.830  55.298 -51.210  1.00  0.00     0.029 A 
HETATM    7  C   UNL     1     -40.341  54.571 -50.123  1.00  0.00     0.003 A 
HETATM    8  C   UNL     1     -40.027  53.219 -50.265  1.00  0.00     0.012 A 
HETATM    9  C   UNL     1     -40.196  52.582 -51.499  1.00  0.00    -0.021 A 
HETATM   10  C   UNL     1     -40.693  53.324 -52.583  1.00  0.00     0.042 A 
BRANCH   9  11
HETATM   11  C   UNL     1     -39.870  51.173 -51.636  1.00  0.00     0.010 A 
HETATM   12  C   UNL     1     -39.621  50.390 -52.788  1.00  0.00     0.152 A 
HETATM   13  N   UNL     1     -39.372  49.109 -52.501  1.00  0.00    -0.187 NA
HETATM   14  N   UNL     1     -39.471  49.064 -51.163  1.00  0.00    -0.289 N 
HETATM   15  H   UNL     1     -39.330  48.170 -50.702  1.00  0.00     0.188 HD
HETATM   16  C   UNL     1     -39.764  50.271 -50.597  1.00  0.00     0.123 A 
ENDBRANCH   9  11
ENDBRANCH   1   5
BRANCH   2  17
HETATM   17  C   UNL     1     -42.077  57.025 -55.183  1.00  0.00     0.075 C 
HETATM   18  C   UNL     1     -42.566  56.061 -55.979  1.00  0.00     0.017 C 
BRANCH  18  19
HETATM   19  C   UNL     1     -43.326  56.300 -57.214  1.00  0.00    -0.035 A 
HETATM   20  C   UNL     1     -43.657  55.198 -58.019  1.00  0.00     0.021 A 
HETATM   21  C   UNL     1     -44.313  55.421 -59.218  1.00  0.00    -0.022 A 
HETATM   22  C   UNL     1     -44.646  56.704 -59.620  1.00  0.00     0.075 A 
HETATM   23  C   UNL     1     -44.820  54.453 -60.216  1.00  0.00     0.068 C 
HETATM   24  O   UNL     1     -45.295  56.752 -60.825  1.00  0.00    -0.350 OA
HETATM   25  C   UNL     1     -44.343  57.808 -58.852  1.00  0.00     0.038 A 
HETATM   26  C   UNL     1     -45.104  55.422 -61.364  1.00  0.00     0.180 C 
HETATM   27  C   UNL     1     -43.666  57.601 -57.646  1.00  0.00     0.014 A 
ENDBRANCH  18  19
ENDBRANCH   2  17
TORSDOF 4
ENDMDL
MODEL 9
REMARK VINA RESULT:      -7.6      1.819      2.445
REMARK  4 active torsions:
REMARK  status: ('A' for Active; 'I' for Inactive)
REMARK    1  A    between atoms: C_3  and  N_4 
REMARK       I    between atoms: N_4  and  C_5 
REMARK    2  A    between atoms: C_5  and  C_6 
REMARK    3  A    between atoms: C_7  and  C_8 
REMARK    4  A    between atoms: C_19  and  C_20 
ROOT
HETATM    1  N   UNL     1     -43.990  56.971 -56.816  1.00  0.00    -0.324 N 
HETATM    2  C   UNL     1     -43.189  55.890 -57.129  1.00  0.00     0.245 C 
HETATM    3  O   UNL     1     -42.760  55.583 -58.234  1.00  0.00    -0.268 OA
HETATM    4  H   UNL     1     -44.224  57.110 -55.843  1.00  0.00     0.169 HD
ENDROOT
BRANCH   1   5
HETATM    5  C   UNL     1     -44.541  57.913 -57.715  1.00  0.00     0.035 A 
HETATM    6  C   UNL     1     -44.222  59.270 -57.712  1.00  0.00     0.029 A 
HETATM    7  C   UNL     1     -44.788  60.134 -58.651  1.00  0.00     0.003 A 
HETATM    8  C   UNL     1     -45.685  59.649 -59.602  1.00  0.00     0.012 A 
HETATM    9  C   UNL     1     -46.027  58.293 -59.622  1.00  0.00    -0.021 A 
HETATM   10  C   UNL     1     -45.446  57.433 -58.675  1.00  0.00     0.042 A 
BRANCH   9  11
HETATM   11  C   UNL     1     -46.960  57.796 -60.619  1.00  0.00     0.010 A 
HETATM   12  C   UNL     1     -47.209  56.480 -61.077  1.00  0.00     0.152 A 
HETATM   13  N   UNL     1     -48.141  56.432 -62.032  1.00  0.00    -0.187 NA
HETATM   14  N   UNL     1     -48.486  57.718 -62.199  1.00  0.00    -0.289 N 
HETATM   15  H   UNL     1     -49.188  57.939 -62.897  1.00  0.00     0.188 HD
HETATM   16  C   UNL     1     -47.811  58.574 -61.377  1.00  0.00     0.123 A 
ENDBRANCH   9  11
ENDBRANCH   1   5
BRANCH   2  17
HETATM   17  C   UNL     1     -42.872  55.065 -55.927  1.00  0.00     0.075 C 
HETATM   18  C   UNL     1     -41.591  54.796 -55.629  1.00  0.00     0.017 C 
BRANCH  18  19
HETATM   19  C   UNL     1     -41.150  53.969 -54.498  1.00  0.00    -0.035 A 
HETATM   20  C   UNL     1     -41.559  54.333 -53.204  1.00  0.00     0.021 A 
HETATM   21  C   UNL     1     -41.093  53.600 -52.126  1.00  0.00    -0.022 A 
HETATM   22  C   UNL     1     -40.243  52.523 -52.312  1.00  0.00     0.075 A 
HETATM   23  C   UNL     1     -41.404  53.730 -50.685  1.00  0.00     0.068 C 
HETATM   24  O   UNL     1     -39.878  51.903 -51.146  1.00  0.00    -0.350 OA
HETATM   25  C   UNL     1     -39.825  52.134 -53.566  1.00  0.00     0.038 A 
HETATM   26  C   UNL     1     -40.300  52.834 -50.122  1.00  0.00     0.180 C 
HETATM   27  C   UNL     1     -40.274  52.874 -54.665  1.00  0.00     0.014 A 
ENDBRANCH  18  19
ENDBRANCH   2  17
TORSDOF 4
ENDMDL
MODEL 10
REMARK VINA RESULT:      -7.4      5.051      6.194
REMARK  4 active torsions:
REMARK  status: ('A' for Active; 'I' for Inactive)
REMARK    1  A    between atoms: C_3  and  N_4 
REMARK       I    between atoms: N_4  and  C_5 
REMARK    2  A    between atoms: C_5  and  C_6 
REMARK    3  A    between atoms: C_7  and  C_8 
REMARK    4  A    between atoms: C_19  and  C_20 
ROOT
HETATM    1  N   UNL     1     -42.101  58.695 -52.192  1.00  0.00    -0.324 N 
HETATM    2  C   UNL     1     -41.237  58.628 -53.267  1.00  0.00     0.245 C 
HETATM    3  O   UNL     1     -40.868  59.554 -53.977  1.00  0.00    -0.268 OA
HETATM    4  H   UNL     1     -42.271  57.841 -51.678  1.00  0.00     0.169 HD
ENDROOT
BRANCH   1   5
HETATM    5  C   UNL     1     -42.797  59.834 -51.726  1.00  0.00     0.035 A 
HETATM    6  C   UNL     1     -42.339  60.660 -50.700  1.00  0.00     0.029 A 
HETATM    7  C   UNL     1     -43.072  61.784 -50.314  1.00  0.00     0.003 A 
HETATM    8  C   UNL     1     -44.274  62.091 -50.950  1.00  0.00     0.012 A 
HETATM    9  C   UNL     1     -44.759  61.275 -51.977  1.00  0.00    -0.021 A 
HETATM   10  C   UNL     1     -44.010  60.150 -52.359  1.00  0.00     0.042 A 
BRANCH   9  11
HETATM   11  C   UNL     1     -46.011  61.606 -52.636  1.00  0.00     0.010 A 
HETATM   12  C   UNL     1     -47.280  61.929 -52.099  1.00  0.00     0.152 A 
HETATM   13  N   UNL     1     -48.199  62.155 -53.042  1.00  0.00    -0.187 NA
HETATM   14  N   UNL     1     -47.525  61.967 -54.188  1.00  0.00    -0.289 N 
HETATM   15  H   UNL     1     -48.028  62.074 -55.062  1.00  0.00     0.188 HD
HETATM   16  C   UNL     1     -46.213  61.640 -54.000  1.00  0.00     0.123 A 
ENDBRANCH   9  11
ENDBRANCH   1   5
BRANCH   2  17
HETATM   17  C   UNL     1     -40.761  57.236 -53.513  1.00  0.00     0.075 C 
HETATM   18  C   UNL     1     -41.354  56.212 -52.877  1.00  0.00     0.017 C 
BRANCH  18  19
HETATM   19  C   UNL     1     -40.957  54.803 -53.006  1.00  0.00    -0.035 A 
HETATM   20  C   UNL     1     -40.772  54.051 -51.835  1.00  0.00     0.021 A 
HETATM   21  C   UNL     1     -40.332  52.742 -51.945  1.00  0.00    -0.022 A 
HETATM   22  C   UNL     1     -40.084  52.177 -53.185  1.00  0.00     0.075 A 
HETATM   23  C   UNL     1     -40.110  51.725 -50.894  1.00  0.00     0.068 C 
HETATM   24  O   UNL     1     -39.661  50.876 -53.121  1.00  0.00    -0.350 OA
HETATM   25  C   UNL     1     -40.261  52.883 -54.355  1.00  0.00     0.038 A 
HETATM   26  C   UNL     1     -39.341  50.694 -51.721  1.00  0.00     0.180 C 
HETATM   27  C   UNL     1     -40.689  54.211 -54.260  1.00  0.00     0.014 A 
ENDBRANCH  18  19
ENDBRANCH   2  17
TORSDOF 4
ENDMDL
