MODEL 1
REMARK VINA RESULT:      -8.1      0.000      0.000
REMARK  5 active torsions:
REMARK  status: ('A' for Active; 'I' for Inactive)
REMARK    1  A    between atoms: N_2  and  C_4 
REMARK    2  A    between atoms: C_4  and  C_5 
REMARK    3  A    between atoms: C_5  and  N_6 
REMARK    4  A    between atoms: C_11  and  C_12 
REMARK    5  A    between atoms: C_15  and  O_16 
ROOT
HETATM    1  N   UNL     1     -42.946  57.647 -55.169  1.00  0.00    -0.332 N 
HETATM    2  C   UNL     1     -42.490  56.569 -55.908  1.00  0.00     0.279 C 
HETATM    3  O   UNL     1     -42.575  56.456 -57.115  1.00  0.00    -0.265 OA
HETATM    4  C   UNL     1     -41.839  55.648 -54.961  1.00  0.00     0.156 A 
HETATM    5  C   UNL     1     -41.813  56.275 -53.784  1.00  0.00     0.060 A 
HETATM    6  C   UNL     1     -42.353  57.655 -53.831  1.00  0.00     0.161 C 
HETATM    7  O   UNL     1     -41.356  54.406 -55.266  1.00  0.00    -0.303 OA
HETATM    8  C   UNL     1     -40.850  53.683 -54.206  1.00  0.00     0.090 A 
HETATM    9  C   UNL     1     -40.776  54.197 -52.902  1.00  0.00     0.051 A 
HETATM   10  C   UNL     1     -41.207  55.592 -52.648  1.00  0.00     0.196 A 
HETATM   11  O   UNL     1     -41.042  56.151 -51.575  1.00  0.00    -0.287 OA
HETATM   12  C   UNL     1     -40.406  52.389 -54.478  1.00  0.00     0.041 A 
HETATM   13  C   UNL     1     -39.909  51.602 -53.437  1.00  0.00     0.045 A 
HETATM   14  C   UNL     1     -39.863  52.114 -52.141  1.00  0.00     0.117 A 
HETATM   15  F   UNL     1     -39.397  51.345 -51.150  1.00  0.00    -0.206 F 
HETATM   16  C   UNL     1     -40.288  53.407 -51.859  1.00  0.00     0.060 A 
ENDROOT
BRANCH   6  17
HETATM   17  C   UNL     1     -43.294  58.109 -52.746  1.00  0.00    -0.030 A 
HETATM   18  C   UNL     1     -44.312  57.233 -52.320  1.00  0.00     0.012 A 
HETATM   19  C   UNL     1     -45.170  57.579 -51.274  1.00  0.00     0.037 A 
HETATM   20  C   UNL     1     -45.015  58.809 -50.653  1.00  0.00     0.065 A 
HETATM   21  C   UNL     1     -44.025  59.696 -51.063  1.00  0.00     0.037 A 
HETATM   22  C   UNL     1     -43.168  59.352 -52.110  1.00  0.00     0.012 A 
BRANCH  20  23
HETATM   23  O   UNL     1     -45.820  59.188 -49.621  1.00  0.00    -0.361 OA
HETATM   24  H   UNL     1     -45.295  59.690 -48.975  1.00  0.00     0.217 HD
ENDBRANCH  20  23
ENDBRANCH   6  17
BRANCH   1  25
HETATM   25  C   UNL     1     -43.876  58.647 -55.690  1.00  0.00     0.155 C 
BRANCH  25  26
HETATM   26  C   UNL     1     -45.309  58.141 -55.873  1.00  0.00     0.254 C 
BRANCH  26  27
HETATM   27  N   UNL     1     -45.646  57.890 -57.331  1.00  0.00    -0.077 N 
HETATM   28  C   UNL     1     -44.834  58.763 -58.244  1.00  0.00     0.269 C 
HETATM   29  H   UNL     1     -45.412  56.905 -57.536  1.00  0.00     0.279 HD
HETATM   30  C   UNL     1     -47.117  57.999 -57.637  1.00  0.00     0.269 C 
ENDBRANCH  26  27
ENDBRANCH  25  26
ENDBRANCH   1  25
TORSDOF 5
ENDMDL
MODEL 2
REMARK VINA RESULT:      -8.1      2.348      4.742
REMARK  5 active torsions:
REMARK  status: ('A' for Active; 'I' for Inactive)
REMARK    1  A    between atoms: N_2  and  C_4 
REMARK    2  A    between atoms: C_4  and  C_5 
REMARK    3  A    between atoms: C_5  and  N_6 
REMARK    4  A    between atoms: C_11  and  C_12 
REMARK    5  A    between atoms: C_15  and  O_16 
ROOT
HETATM    1  N   UNL     1     -42.870  56.945 -51.769  1.00  0.00    -0.332 N 
HETATM    2  C   UNL     1     -42.025  56.184 -50.980  1.00  0.00     0.279 C 
HETATM    3  O   UNL     1     -41.698  56.449 -49.840  1.00  0.00    -0.265 OA
HETATM    4  C   UNL     1     -41.671  54.988 -51.765  1.00  0.00     0.156 A 
HETATM    5  C   UNL     1     -42.415  55.031 -52.871  1.00  0.00     0.060 A 
HETATM    6  C   UNL     1     -43.361  56.171 -52.911  1.00  0.00     0.161 C 
HETATM    7  O   UNL     1     -40.763  54.037 -51.395  1.00  0.00    -0.303 OA
HETATM    8  C   UNL     1     -40.533  53.038 -52.317  1.00  0.00     0.090 A 
HETATM    9  C   UNL     1     -41.220  52.957 -53.539  1.00  0.00     0.051 A 
HETATM   10  C   UNL     1     -42.278  53.951 -53.840  1.00  0.00     0.196 A 
HETATM   11  O   UNL     1     -43.010  53.863 -54.813  1.00  0.00    -0.287 OA
HETATM   12  C   UNL     1     -39.566  52.086 -51.991  1.00  0.00     0.041 A 
HETATM   13  C   UNL     1     -39.273  51.067 -52.900  1.00  0.00     0.045 A 
HETATM   14  C   UNL     1     -39.944  51.012 -54.121  1.00  0.00     0.117 A 
HETATM   15  F   UNL     1     -39.644  50.039 -54.989  1.00  0.00    -0.206 F 
HETATM   16  C   UNL     1     -40.920  51.945 -54.451  1.00  0.00     0.060 A 
ENDROOT
BRANCH   6  17
HETATM   17  C   UNL     1     -43.493  56.969 -54.181  1.00  0.00    -0.030 A 
HETATM   18  C   UNL     1     -44.777  57.365 -54.604  1.00  0.00     0.012 A 
HETATM   19  C   UNL     1     -44.949  58.159 -55.739  1.00  0.00     0.037 A 
HETATM   20  C   UNL     1     -43.834  58.559 -56.460  1.00  0.00     0.065 A 
HETATM   21  C   UNL     1     -42.556  58.172 -56.068  1.00  0.00     0.037 A 
HETATM   22  C   UNL     1     -42.383  57.375 -54.935  1.00  0.00     0.012 A 
BRANCH  20  23
HETATM   23  O   UNL     1     -43.949  59.344 -57.567  1.00  0.00    -0.361 OA
HETATM   24  H   UNL     1     -44.847  59.714 -57.604  1.00  0.00     0.217 HD
ENDBRANCH  20  23
ENDBRANCH   6  17
BRANCH   1  25
HETATM   25  C   UNL     1     -43.231  58.328 -51.465  1.00  0.00     0.155 C 
BRANCH  25  26
HETATM   26  C   UNL     1     -42.167  59.358 -51.853  1.00  0.00     0.254 C 
BRANCH  26  27
HETATM   27  N   UNL     1     -40.760  58.856 -51.589  1.00  0.00    -0.077 N 
HETATM   28  C   UNL     1     -40.099  59.621 -50.480  1.00  0.00     0.269 C 
HETATM   29  H   UNL     1     -40.836  57.868 -51.297  1.00  0.00     0.279 HD
HETATM   30  C   UNL     1     -39.892  58.819 -52.820  1.00  0.00     0.269 C 
ENDBRANCH  26  27
ENDBRANCH  25  26
ENDBRANCH   1  25
TORSDOF 5
ENDMDL
MODEL 3
REMARK VINA RESULT:      -7.9      2.153      4.776
REMARK  5 active torsions:
REMARK  status: ('A' for Active; 'I' for Inactive)
REMARK    1  A    between atoms: N_2  and  C_4 
REMARK    2  A    between atoms: C_4  and  C_5 
REMARK    3  A    between atoms: C_5  and  N_6 
REMARK    4  A    between atoms: C_11  and  C_12 
REMARK    5  A    between atoms: C_15  and  O_16 
ROOT
HETATM    1  N   UNL     1     -42.692  57.348 -52.352  1.00  0.00    -0.332 N 
HETATM    2  C   UNL     1     -41.853  56.648 -51.502  1.00  0.00     0.279 C 
HETATM    3  O   UNL     1     -41.473  57.033 -50.414  1.00  0.00    -0.265 OA
HETATM    4  C   UNL     1     -41.583  55.350 -52.144  1.00  0.00     0.156 A 
HETATM    5  C   UNL     1     -42.365  55.294 -53.224  1.00  0.00     0.060 A 
HETATM    6  C   UNL     1     -43.259  56.467 -53.374  1.00  0.00     0.161 C 
HETATM    7  O   UNL     1     -40.706  54.407 -51.688  1.00  0.00    -0.303 OA
HETATM    8  C   UNL     1     -40.555  53.293 -52.487  1.00  0.00     0.090 A 
HETATM    9  C   UNL     1     -41.290  53.098 -53.668  1.00  0.00     0.051 A 
HETATM   10  C   UNL     1     -42.312  54.099 -54.056  1.00  0.00     0.196 A 
HETATM   11  O   UNL     1     -43.083  53.930 -54.987  1.00  0.00    -0.287 OA
HETATM   12  C   UNL     1     -39.621  52.341 -52.077  1.00  0.00     0.041 A 
HETATM   13  C   UNL     1     -39.408  51.206 -52.862  1.00  0.00     0.045 A 
HETATM   14  C   UNL     1     -40.126  51.037 -54.046  1.00  0.00     0.117 A 
HETATM   15  F   UNL     1     -39.902  49.952 -54.796  1.00  0.00    -0.206 F 
HETATM   16  C   UNL     1     -41.070  51.970 -54.458  1.00  0.00     0.060 A 
ENDROOT
BRANCH   6  17
HETATM   17  C   UNL     1     -43.401  57.110 -54.728  1.00  0.00    -0.030 A 
HETATM   18  C   UNL     1     -44.687  57.474 -55.175  1.00  0.00     0.012 A 
HETATM   19  C   UNL     1     -44.868  58.130 -56.393  1.00  0.00     0.037 A 
HETATM   20  C   UNL     1     -43.759  58.423 -57.174  1.00  0.00     0.065 A 
HETATM   21  C   UNL     1     -42.481  58.065 -56.759  1.00  0.00     0.037 A 
HETATM   22  C   UNL     1     -42.299  57.405 -55.542  1.00  0.00     0.012 A 
BRANCH  20  23
HETATM   23  O   UNL     1     -43.882  59.073 -58.365  1.00  0.00    -0.361 OA
HETATM   24  H   UNL     1     -43.160  58.799 -58.954  1.00  0.00     0.217 HD
ENDBRANCH  20  23
ENDBRANCH   6  17
BRANCH   1  25
HETATM   25  C   UNL     1     -42.979  58.774 -52.209  1.00  0.00     0.155 C 
BRANCH  25  26
HETATM   26  C   UNL     1     -44.187  59.089 -51.322  1.00  0.00     0.254 C 
BRANCH  26  27
HETATM   27  N   UNL     1     -43.822  59.988 -50.156  1.00  0.00    -0.077 N 
HETATM   28  C   UNL     1     -44.900  60.995 -49.876  1.00  0.00     0.269 C 
HETATM   29  H   UNL     1     -43.723  59.385 -49.322  1.00  0.00     0.279 HD
HETATM   30  C   UNL     1     -42.478  60.652 -50.303  1.00  0.00     0.269 C 
ENDBRANCH  26  27
ENDBRANCH  25  26
ENDBRANCH   1  25
TORSDOF 5
ENDMDL
MODEL 4
REMARK VINA RESULT:      -7.1      3.520      6.415
REMARK  5 active torsions:
REMARK  status: ('A' for Active; 'I' for Inactive)
REMARK    1  A    between atoms: N_2  and  C_4 
REMARK    2  A    between atoms: C_4  and  C_5 
REMARK    3  A    between atoms: C_5  and  N_6 
REMARK    4  A    between atoms: C_11  and  C_12 
REMARK    5  A    between atoms: C_15  and  O_16 
ROOT
HETATM    1  N   UNL     1     -42.739  55.671 -53.989  1.00  0.00    -0.332 N 
HETATM    2  C   UNL     1     -42.842  55.091 -55.242  1.00  0.00     0.279 C 
HETATM    3  O   UNL     1     -43.036  53.911 -55.458  1.00  0.00    -0.265 OA
HETATM    4  C   UNL     1     -42.739  56.182 -56.226  1.00  0.00     0.156 A 
HETATM    5  C   UNL     1     -42.731  57.319 -55.528  1.00  0.00     0.060 A 
HETATM    6  C   UNL     1     -42.897  57.124 -54.068  1.00  0.00     0.161 C 
HETATM    7  O   UNL     1     -42.677  56.025 -57.582  1.00  0.00    -0.303 OA
HETATM    8  C   UNL     1     -42.509  57.182 -58.313  1.00  0.00     0.090 A 
HETATM    9  C   UNL     1     -42.459  58.454 -57.721  1.00  0.00     0.051 A 
HETATM   10  C   UNL     1     -42.646  58.579 -56.256  1.00  0.00     0.196 A 
HETATM   11  O   UNL     1     -42.755  59.656 -55.692  1.00  0.00    -0.287 OA
HETATM   12  C   UNL     1     -42.382  57.045 -59.695  1.00  0.00     0.041 A 
HETATM   13  C   UNL     1     -42.182  58.181 -60.482  1.00  0.00     0.045 A 
HETATM   14  C   UNL     1     -42.109  59.437 -59.880  1.00  0.00     0.117 A 
HETATM   15  F   UNL     1     -41.904  60.517 -60.643  1.00  0.00    -0.206 F 
HETATM   16  C   UNL     1     -42.250  59.589 -58.506  1.00  0.00     0.060 A 
ENDROOT
BRANCH   6  17
HETATM   17  C   UNL     1     -42.010  57.889 -53.122  1.00  0.00    -0.030 A 
HETATM   18  C   UNL     1     -42.551  58.345 -51.903  1.00  0.00     0.012 A 
HETATM   19  C   UNL     1     -41.756  59.004 -50.964  1.00  0.00     0.037 A 
HETATM   20  C   UNL     1     -40.414  59.212 -51.241  1.00  0.00     0.065 A 
HETATM   21  C   UNL     1     -39.859  58.781 -52.442  1.00  0.00     0.037 A 
HETATM   22  C   UNL     1     -40.654  58.125 -53.384  1.00  0.00     0.012 A 
BRANCH  20  23
HETATM   23  O   UNL     1     -39.595  59.839 -50.351  1.00  0.00    -0.361 OA
HETATM   24  H   UNL     1     -39.688  60.801 -50.454  1.00  0.00     0.217 HD
ENDBRANCH  20  23
ENDBRANCH   6  17
BRANCH   1  25
HETATM   25  C   UNL     1     -42.527  54.907 -52.761  1.00  0.00     0.155 C 
BRANCH  25  26
HETATM   26  C   UNL     1     -41.068  54.519 -52.503  1.00  0.00     0.254 C 
BRANCH  26  27
HETATM   27  N   UNL     1     -40.859  53.017 -52.545  1.00  0.00    -0.077 N 
HETATM   28  C   UNL     1     -40.093  52.532 -51.348  1.00  0.00     0.269 C 
HETATM   29  H   UNL     1     -41.793  52.575 -52.528  1.00  0.00     0.279 HD
HETATM   30  C   UNL     1     -40.235  52.530 -53.826  1.00  0.00     0.269 C 
ENDBRANCH  26  27
ENDBRANCH  25  26
ENDBRANCH   1  25
TORSDOF 5
ENDMDL
MODEL 5
REMARK VINA RESULT:      -7.1      2.315      2.904
REMARK  5 active torsions:
REMARK  status: ('A' for Active; 'I' for Inactive)
REMARK    1  A    between atoms: N_2  and  C_4 
REMARK    2  A    between atoms: C_4  and  C_5 
REMARK    3  A    between atoms: C_5  and  N_6 
REMARK    4  A    between atoms: C_11  and  C_12 
REMARK    5  A    between atoms: C_15  and  O_16 
ROOT
HETATM    1  N   UNL     1     -42.575  56.978 -55.285  1.00  0.00    -0.332 N 
HETATM    2  C   UNL     1     -42.152  55.668 -55.142  1.00  0.00     0.279 C 
HETATM    3  O   UNL     1     -42.075  54.850 -56.038  1.00  0.00    -0.265 OA
HETATM    4  C   UNL     1     -41.763  55.497 -53.731  1.00  0.00     0.156 A 
HETATM    5  C   UNL     1     -41.831  56.707 -53.174  1.00  0.00     0.060 A 
HETATM    6  C   UNL     1     -42.185  57.785 -54.128  1.00  0.00     0.161 C 
HETATM    7  O   UNL     1     -41.398  54.318 -53.146  1.00  0.00    -0.303 OA
HETATM    8  C   UNL     1     -41.143  54.375 -51.792  1.00  0.00     0.090 A 
HETATM    9  C   UNL     1     -41.195  55.571 -51.058  1.00  0.00     0.051 A 
HETATM   10  C   UNL     1     -41.484  56.841 -51.764  1.00  0.00     0.196 A 
HETATM   11  O   UNL     1     -41.408  57.933 -51.222  1.00  0.00    -0.287 OA
HETATM   12  C   UNL     1     -40.826  53.175 -51.156  1.00  0.00     0.041 A 
HETATM   13  C   UNL     1     -40.585  53.169 -49.780  1.00  0.00     0.045 A 
HETATM   14  C   UNL     1     -40.665  54.360 -49.058  1.00  0.00     0.117 A 
HETATM   15  F   UNL     1     -40.445  54.339 -47.738  1.00  0.00    -0.206 F 
HETATM   16  C   UNL     1     -40.964  55.565 -49.682  1.00  0.00     0.060 A 
ENDROOT
BRANCH   6  17
HETATM   17  C   UNL     1     -43.210  58.812 -53.724  1.00  0.00    -0.030 A 
HETATM   18  C   UNL     1     -42.888  60.178 -53.850  1.00  0.00     0.012 A 
HETATM   19  C   UNL     1     -43.823  61.170 -53.550  1.00  0.00     0.037 A 
HETATM   20  C   UNL     1     -45.088  60.798 -53.119  1.00  0.00     0.065 A 
HETATM   21  C   UNL     1     -45.426  59.456 -52.976  1.00  0.00     0.037 A 
HETATM   22  C   UNL     1     -44.490  58.463 -53.273  1.00  0.00     0.012 A 
BRANCH  20  23
HETATM   23  O   UNL     1     -46.039  61.728 -52.826  1.00  0.00    -0.361 OA
HETATM   24  H   UNL     1     -46.106  62.359 -53.562  1.00  0.00     0.217 HD
ENDBRANCH  20  23
ENDBRANCH   6  17
BRANCH   1  25
HETATM   25  C   UNL     1     -43.290  57.472 -56.461  1.00  0.00     0.155 C 
BRANCH  25  26
HETATM   26  C   UNL     1     -42.381  57.960 -57.593  1.00  0.00     0.254 C 
BRANCH  26  27
HETATM   27  N   UNL     1     -42.258  56.939 -58.708  1.00  0.00    -0.077 N 
HETATM   28  C   UNL     1     -41.881  57.586 -60.010  1.00  0.00     0.269 C 
HETATM   29  H   UNL     1     -41.502  56.285 -58.445  1.00  0.00     0.279 HD
HETATM   30  C   UNL     1     -43.475  56.066 -58.865  1.00  0.00     0.269 C 
ENDBRANCH  26  27
ENDBRANCH  25  26
ENDBRANCH   1  25
TORSDOF 5
ENDMDL
MODEL 6
REMARK VINA RESULT:      -7.0      3.295      7.090
REMARK  5 active torsions:
REMARK  status: ('A' for Active; 'I' for Inactive)
REMARK    1  A    between atoms: N_2  and  C_4 
REMARK    2  A    between atoms: C_4  and  C_5 
REMARK    3  A    between atoms: C_5  and  N_6 
REMARK    4  A    between atoms: C_11  and  C_12 
REMARK    5  A    between atoms: C_15  and  O_16 
ROOT
HETATM    1  N   UNL     1     -42.675  57.791 -54.451  1.00  0.00    -0.332 N 
HETATM    2  C   UNL     1     -43.720  58.591 -54.881  1.00  0.00     0.279 C 
HETATM    3  O   UNL     1     -44.148  59.565 -54.295  1.00  0.00    -0.265 OA
HETATM    4  C   UNL     1     -44.144  58.068 -56.192  1.00  0.00     0.156 A 
HETATM    5  C   UNL     1     -43.265  57.120 -56.521  1.00  0.00     0.060 A 
HETATM    6  C   UNL     1     -42.161  56.964 -55.543  1.00  0.00     0.161 C 
HETATM    7  O   UNL     1     -45.224  58.502 -56.907  1.00  0.00    -0.303 OA
HETATM    8  C   UNL     1     -45.479  57.821 -58.079  1.00  0.00     0.090 A 
HETATM    9  C   UNL     1     -44.660  56.782 -58.549  1.00  0.00     0.051 A 
HETATM   10  C   UNL     1     -43.435  56.429 -57.793  1.00  0.00     0.196 A 
HETATM   11  O   UNL     1     -42.604  55.638 -58.210  1.00  0.00    -0.287 OA
HETATM   12  C   UNL     1     -46.611  58.202 -58.799  1.00  0.00     0.041 A 
HETATM   13  C   UNL     1     -46.934  57.528 -59.979  1.00  0.00     0.045 A 
HETATM   14  C   UNL     1     -46.125  56.482 -60.423  1.00  0.00     0.117 A 
HETATM   15  F   UNL     1     -46.452  55.835 -61.548  1.00  0.00    -0.206 F 
HETATM   16  C   UNL     1     -44.986  56.102 -59.723  1.00  0.00     0.060 A 
ENDROOT
BRANCH   6  17
HETATM   17  C   UNL     1     -41.748  55.578 -55.121  1.00  0.00    -0.030 A 
HETATM   18  C   UNL     1     -42.750  54.628 -54.840  1.00  0.00     0.012 A 
HETATM   19  C   UNL     1     -42.422  53.313 -54.507  1.00  0.00     0.037 A 
HETATM   20  C   UNL     1     -41.087  52.943 -54.450  1.00  0.00     0.065 A 
HETATM   21  C   UNL     1     -40.080  53.865 -54.713  1.00  0.00     0.037 A 
HETATM   22  C   UNL     1     -40.406  55.182 -55.044  1.00  0.00     0.012 A 
BRANCH  20  23
HETATM   23  O   UNL     1     -40.717  51.669 -54.142  1.00  0.00    -0.361 OA
HETATM   24  H   UNL     1     -41.446  51.063 -54.358  1.00  0.00     0.217 HD
ENDBRANCH  20  23
ENDBRANCH   6  17
BRANCH   1  25
HETATM   25  C   UNL     1     -42.154  57.810 -53.085  1.00  0.00     0.155 C 
BRANCH  25  26
HETATM   26  C   UNL     1     -43.058  57.128 -52.055  1.00  0.00     0.254 C 
BRANCH  26  27
HETATM   27  N   UNL     1     -43.599  58.106 -51.030  1.00  0.00    -0.077 N 
HETATM   28  C   UNL     1     -45.093  58.231 -51.120  1.00  0.00     0.269 C 
HETATM   29  H   UNL     1     -43.364  57.735 -50.095  1.00  0.00     0.279 HD
HETATM   30  C   UNL     1     -42.935  59.458 -51.077  1.00  0.00     0.269 C 
ENDBRANCH  26  27
ENDBRANCH  25  26
ENDBRANCH   1  25
TORSDOF 5
ENDMDL
MODEL 7
REMARK VINA RESULT:      -6.7      1.901      2.303
REMARK  5 active torsions:
REMARK  status: ('A' for Active; 'I' for Inactive)
REMARK    1  A    between atoms: N_2  and  C_4 
REMARK    2  A    between atoms: C_4  and  C_5 
REMARK    3  A    between atoms: C_5  and  N_6 
REMARK    4  A    between atoms: C_11  and  C_12 
REMARK    5  A    between atoms: C_15  and  O_16 
ROOT
HETATM    1  N   UNL     1     -42.493  58.147 -54.248  1.00  0.00    -0.332 N 
HETATM    2  C   UNL     1     -42.014  56.966 -54.788  1.00  0.00     0.279 C 
HETATM    3  O   UNL     1     -41.905  56.728 -55.975  1.00  0.00    -0.265 OA
HETATM    4  C   UNL     1     -41.614  56.111 -53.658  1.00  0.00     0.156 A 
HETATM    5  C   UNL     1     -41.732  56.860 -52.560  1.00  0.00     0.060 A 
HETATM    6  C   UNL     1     -42.136  58.260 -52.833  1.00  0.00     0.161 C 
HETATM    7  O   UNL     1     -41.196  54.814 -53.752  1.00  0.00    -0.303 OA
HETATM    8  C   UNL     1     -40.939  54.178 -52.556  1.00  0.00     0.090 A 
HETATM    9  C   UNL     1     -41.041  54.825 -51.314  1.00  0.00     0.051 A 
HETATM   10  C   UNL     1     -41.386  56.266 -51.275  1.00  0.00     0.196 A 
HETATM   11  O   UNL     1     -41.356  56.926 -50.248  1.00  0.00    -0.287 OA
HETATM   12  C   UNL     1     -40.569  52.835 -52.619  1.00  0.00     0.041 A 
HETATM   13  C   UNL     1     -40.323  52.134 -51.437  1.00  0.00     0.045 A 
HETATM   14  C   UNL     1     -40.452  52.781 -50.208  1.00  0.00     0.117 A 
HETATM   15  F   UNL     1     -40.227  52.094 -49.082  1.00  0.00    -0.206 F 
HETATM   16  C   UNL     1     -40.805  54.123 -50.131  1.00  0.00     0.060 A 
ENDROOT
BRANCH   6  17
HETATM   17  C   UNL     1     -43.202  58.894 -51.980  1.00  0.00    -0.030 A 
HETATM   18  C   UNL     1     -44.409  58.196 -51.773  1.00  0.00     0.012 A 
HETATM   19  C   UNL     1     -45.404  58.709 -50.939  1.00  0.00     0.037 A 
HETATM   20  C   UNL     1     -45.197  59.928 -50.311  1.00  0.00     0.065 A 
HETATM   21  C   UNL     1     -44.020  60.641 -50.508  1.00  0.00     0.037 A 
HETATM   22  C   UNL     1     -43.024  60.130 -51.344  1.00  0.00     0.012 A 
BRANCH  20  23
HETATM   23  O   UNL     1     -46.133  60.464 -49.479  1.00  0.00    -0.361 OA
HETATM   24  H   UNL     1     -45.686  60.907 -48.738  1.00  0.00     0.217 HD
ENDBRANCH  20  23
ENDBRANCH   6  17
BRANCH   1  25
HETATM   25  C   UNL     1     -43.233  59.146 -55.017  1.00  0.00     0.155 C 
BRANCH  25  26
HETATM   26  C   UNL     1     -42.472  60.454 -55.248  1.00  0.00     0.254 C 
BRANCH  26  27
HETATM   27  N   UNL     1     -43.368  61.671 -55.103  1.00  0.00    -0.077 N 
HETATM   28  C   UNL     1     -44.680  61.318 -54.464  1.00  0.00     0.269 C 
HETATM   29  H   UNL     1     -42.880  62.340 -54.486  1.00  0.00     0.279 HD
HETATM   30  C   UNL     1     -43.573  62.425 -56.391  1.00  0.00     0.269 C 
ENDBRANCH  26  27
ENDBRANCH  25  26
ENDBRANCH   1  25
TORSDOF 5
ENDMDL
MODEL 8
REMARK VINA RESULT:      -6.7      2.254      4.920
REMARK  5 active torsions:
REMARK  status: ('A' for Active; 'I' for Inactive)
REMARK    1  A    between atoms: N_2  and  C_4 
REMARK    2  A    between atoms: C_4  and  C_5 
REMARK    3  A    between atoms: C_5  and  N_6 
REMARK    4  A    between atoms: C_11  and  C_12 
REMARK    5  A    between atoms: C_15  and  O_16 
ROOT
HETATM    1  N   UNL     1     -43.150  59.186 -52.522  1.00  0.00    -0.332 N 
HETATM    2  C   UNL     1     -42.410  58.972 -51.372  1.00  0.00     0.279 C 
HETATM    3  O   UNL     1     -42.138  59.818 -50.542  1.00  0.00    -0.265 OA
HETATM    4  C   UNL     1     -42.089  57.535 -51.332  1.00  0.00     0.156 A 
HETATM    5  C   UNL     1     -42.758  56.973 -52.341  1.00  0.00     0.060 A 
HETATM    6  C   UNL     1     -43.620  57.920 -53.087  1.00  0.00     0.161 C 
HETATM    7  O   UNL     1     -41.274  56.929 -50.419  1.00  0.00    -0.303 OA
HETATM    8  C   UNL     1     -41.054  55.581 -50.613  1.00  0.00     0.090 A 
HETATM    9  C   UNL     1     -41.667  54.851 -51.644  1.00  0.00     0.051 A 
HETATM   10  C   UNL     1     -42.634  55.534 -52.537  1.00  0.00     0.196 A 
HETATM   11  O   UNL     1     -43.308  54.938 -53.362  1.00  0.00    -0.287 OA
HETATM   12  C   UNL     1     -40.177  54.949 -49.731  1.00  0.00     0.041 A 
HETATM   13  C   UNL     1     -39.897  53.591 -49.897  1.00  0.00     0.045 A 
HETATM   14  C   UNL     1     -40.493  52.883 -50.941  1.00  0.00     0.117 A 
HETATM   15  F   UNL     1     -40.206  51.585 -51.097  1.00  0.00    -0.206 F 
HETATM   16  C   UNL     1     -41.381  53.497 -51.817  1.00  0.00     0.060 A 
ENDROOT
BRANCH   6  17
HETATM   17  C   UNL     1     -43.616  57.882 -54.592  1.00  0.00    -0.030 A 
HETATM   18  C   UNL     1     -44.847  57.946 -55.275  1.00  0.00     0.012 A 
HETATM   19  C   UNL     1     -44.896  57.979 -56.670  1.00  0.00     0.037 A 
HETATM   20  C   UNL     1     -43.711  57.943 -57.389  1.00  0.00     0.065 A 
HETATM   21  C   UNL     1     -42.484  57.869 -56.738  1.00  0.00     0.037 A 
HETATM   22  C   UNL     1     -42.434  57.833 -55.343  1.00  0.00     0.012 A 
BRANCH  20  23
HETATM   23  O   UNL     1     -43.706  57.985 -58.751  1.00  0.00    -0.361 OA
HETATM   24  H   UNL     1     -43.164  57.253 -59.090  1.00  0.00     0.217 HD
ENDBRANCH  20  23
ENDBRANCH   6  17
BRANCH   1  25
HETATM   25  C   UNL     1     -43.434  60.513 -53.064  1.00  0.00     0.155 C 
BRANCH  25  26
HETATM   26  C   UNL     1     -44.779  61.099 -52.626  1.00  0.00     0.254 C 
BRANCH  26  27
HETATM   27  N   UNL     1     -44.744  61.612 -51.199  1.00  0.00    -0.077 N 
HETATM   28  C   UNL     1     -45.583  60.765 -50.287  1.00  0.00     0.269 C 
HETATM   29  H   UNL     1     -43.764  61.556 -50.876  1.00  0.00     0.279 HD
HETATM   30  C   UNL     1     -45.101  63.070 -51.073  1.00  0.00     0.269 C 
ENDBRANCH  26  27
ENDBRANCH  25  26
ENDBRANCH   1  25
TORSDOF 5
ENDMDL
MODEL 9
REMARK VINA RESULT:      -6.7      2.142      4.614
REMARK  5 active torsions:
REMARK  status: ('A' for Active; 'I' for Inactive)
REMARK    1  A    between atoms: N_2  and  C_4 
REMARK    2  A    between atoms: C_4  and  C_5 
REMARK    3  A    between atoms: C_5  and  N_6 
REMARK    4  A    between atoms: C_11  and  C_12 
REMARK    5  A    between atoms: C_15  and  O_16 
ROOT
HETATM    1  N   UNL     1     -43.437  59.086 -52.588  1.00  0.00    -0.332 N 
HETATM    2  C   UNL     1     -42.706  58.857 -51.435  1.00  0.00     0.279 C 
HETATM    3  O   UNL     1     -42.504  59.672 -50.556  1.00  0.00    -0.265 OA
HETATM    4  C   UNL     1     -42.294  57.443 -51.465  1.00  0.00     0.156 A 
HETATM    5  C   UNL     1     -42.907  56.895 -52.516  1.00  0.00     0.060 A 
HETATM    6  C   UNL     1     -43.814  57.826 -53.230  1.00  0.00     0.161 C 
HETATM    7  O   UNL     1     -41.459  56.840 -50.568  1.00  0.00    -0.303 OA
HETATM    8  C   UNL     1     -41.150  55.522 -50.828  1.00  0.00     0.090 A 
HETATM    9  C   UNL     1     -41.695  54.812 -51.910  1.00  0.00     0.051 A 
HETATM   10  C   UNL     1     -42.687  55.480 -52.786  1.00  0.00     0.196 A 
HETATM   11  O   UNL     1     -43.306  54.888 -53.656  1.00  0.00    -0.287 OA
HETATM   12  C   UNL     1     -40.250  54.899 -49.963  1.00  0.00     0.041 A 
HETATM   13  C   UNL     1     -39.881  53.573 -50.195  1.00  0.00     0.045 A 
HETATM   14  C   UNL     1     -40.411  52.886 -51.287  1.00  0.00     0.117 A 
HETATM   15  F   UNL     1     -40.038  51.620 -51.507  1.00  0.00    -0.206 F 
HETATM   16  C   UNL     1     -41.319  53.490 -52.148  1.00  0.00     0.060 A 
ENDROOT
BRANCH   6  17
HETATM   17  C   UNL     1     -43.781  57.870 -54.734  1.00  0.00    -0.030 A 
HETATM   18  C   UNL     1     -42.531  57.866 -55.386  1.00  0.00     0.012 A 
HETATM   19  C   UNL     1     -42.445  57.842 -56.779  1.00  0.00     0.037 A 
HETATM   20  C   UNL     1     -43.611  57.825 -57.528  1.00  0.00     0.065 A 
HETATM   21  C   UNL     1     -44.857  57.840 -56.908  1.00  0.00     0.037 A 
HETATM   22  C   UNL     1     -44.944  57.867 -55.515  1.00  0.00     0.012 A 
BRANCH  20  23
HETATM   23  O   UNL     1     -43.579  57.789 -58.889  1.00  0.00    -0.361 OA
HETATM   24  H   UNL     1     -44.489  57.771 -59.230  1.00  0.00     0.217 HD
ENDBRANCH  20  23
ENDBRANCH   6  17
BRANCH   1  25
HETATM   25  C   UNL     1     -43.796  60.420 -53.065  1.00  0.00     0.155 C 
BRANCH  25  26
HETATM   26  C   UNL     1     -42.603  61.279 -53.495  1.00  0.00     0.254 C 
BRANCH  26  27
HETATM   27  N   UNL     1     -42.917  62.127 -54.713  1.00  0.00    -0.077 N 
HETATM   28  C   UNL     1     -43.482  63.462 -54.326  1.00  0.00     0.269 C 
HETATM   29  H   UNL     1     -42.027  62.288 -55.214  1.00  0.00     0.279 HD
HETATM   30  C   UNL     1     -43.796  61.433 -55.721  1.00  0.00     0.269 C 
ENDBRANCH  26  27
ENDBRANCH  25  26
ENDBRANCH   1  25
TORSDOF 5
ENDMDL
MODEL 10
REMARK VINA RESULT:      -6.5     16.833     19.202
REMARK  5 active torsions:
REMARK  status: ('A' for Active; 'I' for Inactive)
REMARK    1  A    between atoms: N_2  and  C_4 
REMARK    2  A    between atoms: C_4  and  C_5 
REMARK    3  A    between atoms: C_5  and  N_6 
REMARK    4  A    between atoms: C_11  and  C_12 
REMARK    5  A    between atoms: C_15  and  O_16 
ROOT
HETATM    1  N   UNL     1     -32.842  40.192 -55.407  1.00  0.00    -0.332 N 
HETATM    2  C   UNL     1     -32.314  39.575 -54.286  1.00  0.00     0.279 C 
HETATM    3  O   UNL     1     -31.205  39.084 -54.208  1.00  0.00    -0.265 OA
HETATM    4  C   UNL     1     -33.323  39.696 -53.219  1.00  0.00     0.156 A 
HETATM    5  C   UNL     1     -34.290  40.477 -53.702  1.00  0.00     0.060 A 
HETATM    6  C   UNL     1     -34.010  41.002 -55.060  1.00  0.00     0.161 C 
HETATM    7  O   UNL     1     -33.244  39.118 -51.984  1.00  0.00    -0.303 OA
HETATM    8  C   UNL     1     -34.338  39.303 -51.165  1.00  0.00     0.090 A 
HETATM    9  C   UNL     1     -35.446  40.080 -51.539  1.00  0.00     0.051 A 
HETATM   10  C   UNL     1     -35.429  40.781 -52.845  1.00  0.00     0.196 A 
HETATM   11  O   UNL     1     -36.288  41.582 -53.178  1.00  0.00    -0.287 OA
HETATM   12  C   UNL     1     -34.311  38.674 -49.920  1.00  0.00     0.041 A 
HETATM   13  C   UNL     1     -35.404  38.805 -49.061  1.00  0.00     0.045 A 
HETATM   14  C   UNL     1     -36.509  39.559 -49.454  1.00  0.00     0.117 A 
HETATM   15  F   UNL     1     -37.556  39.666 -48.628  1.00  0.00    -0.206 F 
HETATM   16  C   UNL     1     -36.542  40.204 -50.685  1.00  0.00     0.060 A 
ENDROOT
BRANCH   6  17
HETATM   17  C   UNL     1     -35.104  40.975 -56.095  1.00  0.00    -0.030 A 
HETATM   18  C   UNL     1     -35.885  39.810 -56.226  1.00  0.00     0.012 A 
HETATM   19  C   UNL     1     -36.952  39.755 -57.125  1.00  0.00     0.037 A 
HETATM   20  C   UNL     1     -37.240  40.868 -57.900  1.00  0.00     0.065 A 
HETATM   21  C   UNL     1     -36.477  42.026 -57.797  1.00  0.00     0.037 A 
HETATM   22  C   UNL     1     -35.407  42.082 -56.900  1.00  0.00     0.012 A 
BRANCH  20  23
HETATM   23  O   UNL     1     -38.278  40.868 -58.783  1.00  0.00    -0.361 OA
HETATM   24  H   UNL     1     -38.899  40.160 -58.545  1.00  0.00     0.217 HD
ENDBRANCH  20  23
ENDBRANCH   6  17
BRANCH   1  25
HETATM   25  C   UNL     1     -32.271  40.057 -56.746  1.00  0.00     0.155 C 
BRANCH  25  26
HETATM   26  C   UNL     1     -32.477  38.681 -57.384  1.00  0.00     0.254 C 
BRANCH  26  27
HETATM   27  N   UNL     1     -31.264  38.230 -58.177  1.00  0.00    -0.077 N 
HETATM   28  C   UNL     1     -31.620  37.163 -59.172  1.00  0.00     0.269 C 
HETATM   29  H   UNL     1     -30.915  39.051 -58.698  1.00  0.00     0.279 HD
HETATM   30  C   UNL     1     -30.103  37.808 -57.315  1.00  0.00     0.269 C 
ENDBRANCH  26  27
ENDBRANCH  25  26
ENDBRANCH   1  25
TORSDOF 5
ENDMDL
