MODEL 1
REMARK VINA RESULT:      -7.7      0.000      0.000
REMARK  6 active torsions:
REMARK  status: ('A' for Active; 'I' for Inactive)
REMARK    1  A    between atoms: C_2  and  C_3 
REMARK    2  A    between atoms: C_3  and  O_4 
REMARK    3  A    between atoms: O_4  and  C_5 
REMARK    4  A    between atoms: C_7  and  N_8 
REMARK       I    between atoms: N_8  and  C_9 
REMARK       I    between atoms: C_9  and  N_10 
REMARK    5  A    between atoms: N_10  and  C_11 
REMARK    6  A    between atoms: C_11  and  C_12 
ROOT
HETATM    1  N   UNL     1     -43.268  54.231 -55.646  1.00  0.00    -0.309 N 
HETATM    2  C   UNL     1     -43.059  55.284 -56.510  1.00  0.00     0.320 C 
HETATM    3  N   UNL     1     -43.706  55.061 -57.705  1.00  0.00    -0.339 N 
HETATM    4  O   UNL     1     -42.353  56.262 -56.315  1.00  0.00    -0.247 OA
HETATM    5  H   UNL     1     -43.677  53.410 -56.062  1.00  0.00     0.170 HD
HETATM    6  H   UNL     1     -44.544  54.500 -57.690  1.00  0.00     0.164 HD
ENDROOT
BRANCH   1   7
HETATM    7  C   UNL     1     -42.719  54.066 -54.359  1.00  0.00     0.039 A 
HETATM    8  C   UNL     1     -41.599  53.235 -54.245  1.00  0.00     0.066 A 
HETATM    9  C   UNL     1     -40.952  53.062 -53.017  1.00  0.00     0.070 A 
HETATM   10  C   UNL     1     -41.465  53.677 -51.878  1.00  0.00     0.037 A 
HETATM   11  C   UNL     1     -42.598  54.487 -51.979  1.00  0.00     0.005 A 
HETATM   12  C   UNL     1     -43.219  54.688 -53.215  1.00  0.00     0.030 A 
BRANCH   9  13
HETATM   13  O   UNL     1     -39.841  52.268 -53.066  1.00  0.00    -0.351 OA
BRANCH  13  14
HETATM   14  C   UNL     1     -39.340  51.795 -51.813  1.00  0.00     0.179 C 
BRANCH  14  15
HETATM   15  C   UNL     1     -39.266  50.259 -51.837  1.00  0.00     0.002 C 
HETATM   16  C   UNL     1     -39.736  49.706 -53.185  1.00  0.00     0.011 C 
HETATM   17  C   UNL     1     -40.085  49.640 -50.704  1.00  0.00     0.011 C 
ENDBRANCH  14  15
ENDBRANCH  13  14
ENDBRANCH   9  13
ENDBRANCH   1   7
BRANCH   3  18
HETATM   18  C   UNL     1     -43.495  55.914 -58.857  1.00  0.00     0.164 C 
BRANCH  18  19
HETATM   19  C   UNL     1     -44.767  56.190 -59.616  1.00  0.00    -0.023 A 
HETATM   20  C   UNL     1     -45.074  55.416 -60.734  1.00  0.00     0.127 A 
HETATM   21  N   UNL     1     -46.197  55.551 -61.475  1.00  0.00    -0.248 NA
HETATM   22  C   UNL     1     -47.066  56.500 -61.074  1.00  0.00     0.125 A 
HETATM   23 CL   UNL     1     -48.479  56.632 -62.036  1.00  0.00    -0.063 Cl
HETATM   24  C   UNL     1     -46.875  57.320 -59.978  1.00  0.00     0.045 A 
HETATM   25  C   UNL     1     -45.708  57.154 -59.236  1.00  0.00     0.013 A 
ENDBRANCH  18  19
ENDBRANCH   3  18
TORSDOF 6
ENDMDL
MODEL 2
REMARK VINA RESULT:      -7.5      1.099      1.686
REMARK  6 active torsions:
REMARK  status: ('A' for Active; 'I' for Inactive)
REMARK    1  A    between atoms: C_2  and  C_3 
REMARK    2  A    between atoms: C_3  and  O_4 
REMARK    3  A    between atoms: O_4  and  C_5 
REMARK    4  A    between atoms: C_7  and  N_8 
REMARK       I    between atoms: N_8  and  C_9 
REMARK       I    between atoms: C_9  and  N_10 
REMARK    5  A    between atoms: N_10  and  C_11 
REMARK    6  A    between atoms: C_11  and  C_12 
ROOT
HETATM    1  N   UNL     1     -43.141  54.508 -54.593  1.00  0.00    -0.309 N 
HETATM    2  C   UNL     1     -42.660  55.339 -55.581  1.00  0.00     0.320 C 
HETATM    3  N   UNL     1     -43.436  55.238 -56.715  1.00  0.00    -0.339 N 
HETATM    4  O   UNL     1     -41.654  56.031 -55.531  1.00  0.00    -0.247 OA
HETATM    5  H   UNL     1     -43.833  53.840 -54.893  1.00  0.00     0.170 HD
HETATM    6  H   UNL     1     -44.410  55.000 -56.599  1.00  0.00     0.164 HD
ENDROOT
BRANCH   1   7
HETATM    7  C   UNL     1     -42.580  54.290 -53.319  1.00  0.00     0.039 A 
HETATM    8  C   UNL     1     -41.494  53.410 -53.243  1.00  0.00     0.066 A 
HETATM    9  C   UNL     1     -40.837  53.181 -52.030  1.00  0.00     0.070 A 
HETATM   10  C   UNL     1     -41.306  53.790 -50.868  1.00  0.00     0.037 A 
HETATM   11  C   UNL     1     -42.405  54.648 -50.932  1.00  0.00     0.005 A 
HETATM   12  C   UNL     1     -43.035  54.904 -52.153  1.00  0.00     0.030 A 
BRANCH   9  13
HETATM   13  O   UNL     1     -39.761  52.342 -52.115  1.00  0.00    -0.351 OA
BRANCH  13  14
HETATM   14  C   UNL     1     -39.484  51.788 -53.403  1.00  0.00     0.179 C 
BRANCH  14  15
HETATM   15  C   UNL     1     -40.031  50.353 -53.474  1.00  0.00     0.002 C 
HETATM   16  C   UNL     1     -39.597  49.538 -52.252  1.00  0.00     0.011 C 
HETATM   17  C   UNL     1     -39.589  49.646 -54.756  1.00  0.00     0.011 C 
ENDBRANCH  14  15
ENDBRANCH  13  14
ENDBRANCH   9  13
ENDBRANCH   1   7
BRANCH   3  18
HETATM   18  C   UNL     1     -43.043  55.853 -57.965  1.00  0.00     0.164 C 
BRANCH  18  19
HETATM   19  C   UNL     1     -44.167  55.904 -58.967  1.00  0.00    -0.023 A 
HETATM   20  C   UNL     1     -45.117  56.920 -58.872  1.00  0.00     0.127 A 
HETATM   21  N   UNL     1     -46.152  57.084 -59.728  1.00  0.00    -0.248 NA
HETATM   22  C   UNL     1     -46.237  56.197 -60.739  1.00  0.00     0.125 A 
HETATM   23 CL   UNL     1     -47.556  56.447 -61.805  1.00  0.00    -0.063 Cl
HETATM   24  C   UNL     1     -45.349  55.157 -60.941  1.00  0.00     0.045 A 
HETATM   25  C   UNL     1     -44.295  55.016 -60.041  1.00  0.00     0.013 A 
ENDBRANCH  18  19
ENDBRANCH   3  18
TORSDOF 6
ENDMDL
MODEL 3
REMARK VINA RESULT:      -7.3      2.888      4.025
REMARK  6 active torsions:
REMARK  status: ('A' for Active; 'I' for Inactive)
REMARK    1  A    between atoms: C_2  and  C_3 
REMARK    2  A    between atoms: C_3  and  O_4 
REMARK    3  A    between atoms: O_4  and  C_5 
REMARK    4  A    between atoms: C_7  and  N_8 
REMARK       I    between atoms: N_8  and  C_9 
REMARK       I    between atoms: C_9  and  N_10 
REMARK    5  A    between atoms: N_10  and  C_11 
REMARK    6  A    between atoms: C_11  and  C_12 
ROOT
HETATM    1  N   UNL     1     -43.198  55.263 -51.606  1.00  0.00    -0.309 N 
HETATM    2  C   UNL     1     -43.076  56.385 -52.395  1.00  0.00     0.320 C 
HETATM    3  N   UNL     1     -44.231  56.595 -53.116  1.00  0.00    -0.339 N 
HETATM    4  O   UNL     1     -42.083  57.086 -52.523  1.00  0.00    -0.247 OA
HETATM    5  H   UNL     1     -43.996  54.681 -51.808  1.00  0.00     0.170 HD
HETATM    6  H   UNL     1     -45.100  56.277 -52.716  1.00  0.00     0.164 HD
ENDROOT
BRANCH   1   7
HETATM    7  C   UNL     1     -42.209  54.694 -50.778  1.00  0.00     0.039 A 
HETATM    8  C   UNL     1     -41.661  53.474 -51.188  1.00  0.00     0.066 A 
HETATM    9  C   UNL     1     -40.631  52.867 -50.461  1.00  0.00     0.070 A 
HETATM   10  C   UNL     1     -40.187  53.454 -49.279  1.00  0.00     0.037 A 
HETATM   11  C   UNL     1     -40.749  54.658 -48.849  1.00  0.00     0.005 A 
HETATM   12  C   UNL     1     -41.750  55.280 -49.599  1.00  0.00     0.030 A 
BRANCH   9  13
HETATM   13  O   UNL     1     -40.154  51.708 -51.008  1.00  0.00    -0.351 OA
BRANCH  13  14
HETATM   14  C   UNL     1     -39.313  51.844 -52.156  1.00  0.00     0.179 C 
BRANCH  14  15
HETATM   15  C   UNL     1     -40.099  51.450 -53.418  1.00  0.00     0.002 C 
HETATM   16  C   UNL     1     -39.495  50.208 -54.077  1.00  0.00     0.011 C 
HETATM   17  C   UNL     1     -40.157  52.599 -54.424  1.00  0.00     0.011 C 
ENDBRANCH  14  15
ENDBRANCH  13  14
ENDBRANCH   9  13
ENDBRANCH   1   7
BRANCH   3  18
HETATM   18  C   UNL     1     -44.303  57.590 -54.166  1.00  0.00     0.164 C 
BRANCH  18  19
HETATM   19  C   UNL     1     -43.922  57.038 -55.516  1.00  0.00    -0.023 A 
HETATM   20  C   UNL     1     -44.271  57.747 -56.664  1.00  0.00     0.127 A 
HETATM   21  N   UNL     1     -43.959  57.367 -57.924  1.00  0.00    -0.248 NA
HETATM   22  C   UNL     1     -43.250  56.227 -58.045  1.00  0.00     0.125 A 
HETATM   23 CL   UNL     1     -42.868  55.787 -59.658  1.00  0.00    -0.063 Cl
HETATM   24  C   UNL     1     -42.838  55.447 -56.981  1.00  0.00     0.045 A 
HETATM   25  C   UNL     1     -43.177  55.866 -55.697  1.00  0.00     0.013 A 
ENDBRANCH  18  19
ENDBRANCH   3  18
TORSDOF 6
ENDMDL
MODEL 4
REMARK VINA RESULT:      -7.2      2.994      4.229
REMARK  6 active torsions:
REMARK  status: ('A' for Active; 'I' for Inactive)
REMARK    1  A    between atoms: C_2  and  C_3 
REMARK    2  A    between atoms: C_3  and  O_4 
REMARK    3  A    between atoms: O_4  and  C_5 
REMARK    4  A    between atoms: C_7  and  N_8 
REMARK       I    between atoms: N_8  and  C_9 
REMARK       I    between atoms: C_9  and  N_10 
REMARK    5  A    between atoms: N_10  and  C_11 
REMARK    6  A    between atoms: C_11  and  C_12 
ROOT
HETATM    1  N   UNL     1     -40.634  53.921 -55.170  1.00  0.00    -0.309 N 
HETATM    2  C   UNL     1     -41.891  54.400 -55.466  1.00  0.00     0.320 C 
HETATM    3  N   UNL     1     -41.818  55.380 -56.431  1.00  0.00    -0.339 N 
HETATM    4  O   UNL     1     -42.942  54.082 -54.927  1.00  0.00    -0.247 OA
HETATM    5  H   UNL     1     -39.870  54.464 -55.538  1.00  0.00     0.170 HD
HETATM    6  H   UNL     1     -41.060  55.332 -57.095  1.00  0.00     0.164 HD
ENDROOT
BRANCH   1   7
HETATM    7  C   UNL     1     -40.298  52.962 -54.193  1.00  0.00     0.039 A 
HETATM    8  C   UNL     1     -40.486  53.324 -52.854  1.00  0.00     0.066 A 
HETATM    9  C   UNL     1     -40.237  52.415 -51.821  1.00  0.00     0.070 A 
HETATM   10  C   UNL     1     -39.737  51.151 -52.124  1.00  0.00     0.037 A 
HETATM   11  C   UNL     1     -39.522  50.792 -53.456  1.00  0.00     0.005 A 
HETATM   12  C   UNL     1     -39.808  51.690 -54.487  1.00  0.00     0.030 A 
BRANCH   9  13
HETATM   13  O   UNL     1     -40.516  52.886 -50.568  1.00  0.00    -0.351 OA
BRANCH  13  14
HETATM   14  C   UNL     1     -41.640  53.760 -50.451  1.00  0.00     0.179 C 
BRANCH  14  15
HETATM   15  C   UNL     1     -41.423  54.721 -49.271  1.00  0.00     0.002 C 
HETATM   16  C   UNL     1     -41.036  56.118 -49.763  1.00  0.00     0.011 C 
HETATM   17  C   UNL     1     -40.361  54.194 -48.306  1.00  0.00     0.011 C 
ENDBRANCH  14  15
ENDBRANCH  13  14
ENDBRANCH   9  13
ENDBRANCH   1   7
BRANCH   3  18
HETATM   18  C   UNL     1     -42.967  56.187 -56.786  1.00  0.00     0.164 C 
BRANCH  18  19
HETATM   19  C   UNL     1     -42.719  57.051 -57.996  1.00  0.00    -0.023 A 
HETATM   20  C   UNL     1     -42.435  58.404 -57.819  1.00  0.00     0.127 A 
HETATM   21  N   UNL     1     -42.168  59.269 -58.823  1.00  0.00    -0.248 NA
HETATM   22  C   UNL     1     -42.169  58.756 -60.069  1.00  0.00     0.125 A 
HETATM   23 CL   UNL     1     -41.816  59.883 -61.312  1.00  0.00    -0.063 Cl
HETATM   24  C   UNL     1     -42.424  57.430 -60.367  1.00  0.00     0.045 A 
HETATM   25  C   UNL     1     -42.697  56.566 -59.309  1.00  0.00     0.013 A 
ENDBRANCH  18  19
ENDBRANCH   3  18
TORSDOF 6
ENDMDL
MODEL 5
REMARK VINA RESULT:      -7.2      2.040      2.924
REMARK  6 active torsions:
REMARK  status: ('A' for Active; 'I' for Inactive)
REMARK    1  A    between atoms: C_2  and  C_3 
REMARK    2  A    between atoms: C_3  and  O_4 
REMARK    3  A    between atoms: O_4  and  C_5 
REMARK    4  A    between atoms: C_7  and  N_8 
REMARK       I    between atoms: N_8  and  C_9 
REMARK       I    between atoms: C_9  and  N_10 
REMARK    5  A    between atoms: N_10  and  C_11 
REMARK    6  A    between atoms: C_11  and  C_12 
ROOT
HETATM    1  N   UNL     1     -42.493  55.550 -52.949  1.00  0.00    -0.309 N 
HETATM    2  C   UNL     1     -42.095  56.504 -53.860  1.00  0.00     0.320 C 
HETATM    3  N   UNL     1     -43.113  56.778 -54.746  1.00  0.00    -0.339 N 
HETATM    4  O   UNL     1     -40.987  57.012 -53.952  1.00  0.00    -0.247 OA
HETATM    5  H   UNL     1     -43.354  55.077 -53.173  1.00  0.00     0.170 HD
HETATM    6  H   UNL     1     -44.062  56.666 -54.422  1.00  0.00     0.164 HD
ENDROOT
BRANCH   1   7
HETATM    7  C   UNL     1     -41.711  54.968 -51.932  1.00  0.00     0.039 A 
HETATM    8  C   UNL     1     -40.982  53.821 -52.266  1.00  0.00     0.066 A 
HETATM    9  C   UNL     1     -40.132  53.212 -51.337  1.00  0.00     0.070 A 
HETATM   10  C   UNL     1     -40.056  53.717 -50.042  1.00  0.00     0.037 A 
HETATM   11  C   UNL     1     -40.801  54.845 -49.693  1.00  0.00     0.005 A 
HETATM   12  C   UNL     1     -41.619  55.473 -50.636  1.00  0.00     0.030 A 
BRANCH   9  13
HETATM   13  O   UNL     1     -39.442  52.134 -51.818  1.00  0.00    -0.351 OA
BRANCH  13  14
HETATM   14  C   UNL     1     -39.617  51.831 -53.203  1.00  0.00     0.179 C 
BRANCH  14  15
HETATM   15  C   UNL     1     -40.073  50.370 -53.356  1.00  0.00     0.002 C 
HETATM   16  C   UNL     1     -39.600  49.520 -52.174  1.00  0.00     0.011 C 
HETATM   17  C   UNL     1     -39.578  49.762 -54.668  1.00  0.00     0.011 C 
ENDBRANCH  14  15
ENDBRANCH  13  14
ENDBRANCH   9  13
ENDBRANCH   1   7
BRANCH   3  18
HETATM   18  C   UNL     1     -42.901  57.598 -55.921  1.00  0.00     0.164 C 
BRANCH  18  19
HETATM   19  C   UNL     1     -43.450  56.969 -57.175  1.00  0.00    -0.023 A 
HETATM   20  C   UNL     1     -44.405  57.658 -57.920  1.00  0.00     0.127 A 
HETATM   21  N   UNL     1     -44.948  57.208 -59.075  1.00  0.00    -0.248 NA
HETATM   22  C   UNL     1     -44.506  56.015 -59.517  1.00  0.00     0.125 A 
HETATM   23 CL   UNL     1     -45.213  55.487 -60.987  1.00  0.00    -0.063 Cl
HETATM   24  C   UNL     1     -43.556  55.246 -58.871  1.00  0.00     0.045 A 
HETATM   25  C   UNL     1     -43.018  55.738 -57.684  1.00  0.00     0.013 A 
ENDBRANCH  18  19
ENDBRANCH   3  18
TORSDOF 6
ENDMDL
MODEL 6
REMARK VINA RESULT:      -7.0      3.873      9.526
REMARK  6 active torsions:
REMARK  status: ('A' for Active; 'I' for Inactive)
REMARK    1  A    between atoms: C_2  and  C_3 
REMARK    2  A    between atoms: C_3  and  O_4 
REMARK    3  A    between atoms: O_4  and  C_5 
REMARK    4  A    between atoms: C_7  and  N_8 
REMARK       I    between atoms: N_8  and  C_9 
REMARK       I    between atoms: C_9  and  N_10 
REMARK    5  A    between atoms: N_10  and  C_11 
REMARK    6  A    between atoms: C_11  and  C_12 
ROOT
HETATM    1  N   UNL     1     -42.459  55.638 -57.741  1.00  0.00    -0.309 N 
HETATM    2  C   UNL     1     -42.559  55.886 -56.390  1.00  0.00     0.320 C 
HETATM    3  N   UNL     1     -41.344  55.688 -55.772  1.00  0.00    -0.339 N 
HETATM    4  O   UNL     1     -43.573  56.174 -55.771  1.00  0.00    -0.247 OA
HETATM    5  H   UNL     1     -41.608  55.183 -58.031  1.00  0.00     0.170 HD
HETATM    6  H   UNL     1     -40.509  55.844 -56.315  1.00  0.00     0.164 HD
ENDROOT
BRANCH   1   7
HETATM    7  C   UNL     1     -43.499  55.672 -58.691  1.00  0.00     0.039 A 
HETATM    8  C   UNL     1     -43.975  56.932 -59.068  1.00  0.00     0.066 A 
HETATM    9  C   UNL     1     -44.963  57.064 -60.049  1.00  0.00     0.070 A 
HETATM   10  C   UNL     1     -45.526  55.923 -60.616  1.00  0.00     0.037 A 
HETATM   11  C   UNL     1     -45.074  54.661 -60.225  1.00  0.00     0.005 A 
HETATM   12  C   UNL     1     -44.059  54.535 -59.272  1.00  0.00     0.030 A 
BRANCH   9  13
HETATM   13  O   UNL     1     -45.292  58.355 -60.357  1.00  0.00    -0.351 OA
BRANCH  13  14
HETATM   14  C   UNL     1     -45.347  59.276 -59.266  1.00  0.00     0.179 C 
BRANCH  14  15
HETATM   15  C   UNL     1     -46.814  59.618 -58.955  1.00  0.00     0.002 C 
HETATM   16  C   UNL     1     -47.360  58.730 -57.834  1.00  0.00     0.011 C 
HETATM   17  C   UNL     1     -47.695  59.492 -60.198  1.00  0.00     0.011 C 
ENDBRANCH  14  15
ENDBRANCH  13  14
ENDBRANCH   9  13
ENDBRANCH   1   7
BRANCH   3  18
HETATM   18  C   UNL     1     -41.213  55.690 -54.330  1.00  0.00     0.164 C 
BRANCH  18  19
HETATM   19  C   UNL     1     -40.735  54.367 -53.788  1.00  0.00    -0.023 A 
HETATM   20  C   UNL     1     -40.689  54.173 -52.408  1.00  0.00     0.127 A 
HETATM   21  N   UNL     1     -40.306  53.023 -51.808  1.00  0.00    -0.248 NA
HETATM   22  C   UNL     1     -39.962  52.009 -52.626  1.00  0.00     0.125 A 
HETATM   23 CL   UNL     1     -39.492  50.568 -51.825  1.00  0.00    -0.063 Cl
HETATM   24  C   UNL     1     -39.978  52.080 -54.006  1.00  0.00     0.045 A 
HETATM   25  C   UNL     1     -40.378  53.279 -54.593  1.00  0.00     0.013 A 
ENDBRANCH  18  19
ENDBRANCH   3  18
TORSDOF 6
ENDMDL
MODEL 7
REMARK VINA RESULT:      -7.0      3.571      4.976
REMARK  6 active torsions:
REMARK  status: ('A' for Active; 'I' for Inactive)
REMARK    1  A    between atoms: C_2  and  C_3 
REMARK    2  A    between atoms: C_3  and  O_4 
REMARK    3  A    between atoms: O_4  and  C_5 
REMARK    4  A    between atoms: C_7  and  N_8 
REMARK       I    between atoms: N_8  and  C_9 
REMARK       I    between atoms: C_9  and  N_10 
REMARK    5  A    between atoms: N_10  and  C_11 
REMARK    6  A    between atoms: C_11  and  C_12 
ROOT
HETATM    1  N   UNL     1     -41.010  54.560 -55.569  1.00  0.00    -0.309 N 
HETATM    2  C   UNL     1     -42.185  55.259 -55.736  1.00  0.00     0.320 C 
HETATM    3  N   UNL     1     -42.157  55.972 -56.915  1.00  0.00    -0.339 N 
HETATM    4  O   UNL     1     -43.117  55.324 -54.949  1.00  0.00    -0.247 OA
HETATM    5  H   UNL     1     -40.266  54.813 -56.200  1.00  0.00     0.170 HD
HETATM    6  H   UNL     1     -41.604  55.606 -57.674  1.00  0.00     0.164 HD
ENDROOT
BRANCH   1   7
HETATM    7  C   UNL     1     -40.641  53.769 -54.462  1.00  0.00     0.039 A 
HETATM    8  C   UNL     1     -40.705  54.371 -53.201  1.00  0.00     0.066 A 
HETATM    9  C   UNL     1     -40.416  53.645 -52.041  1.00  0.00     0.070 A 
HETATM   10  C   UNL     1     -40.000  52.320 -52.146  1.00  0.00     0.037 A 
HETATM   11  C   UNL     1     -39.908  51.720 -53.403  1.00  0.00     0.005 A 
HETATM   12  C   UNL     1     -40.235  52.439 -54.557  1.00  0.00     0.030 A 
BRANCH   9  13
HETATM   13  O   UNL     1     -40.573  54.344 -50.877  1.00  0.00    -0.351 OA
BRANCH  13  14
HETATM   14  C   UNL     1     -41.899  54.415 -50.349  1.00  0.00     0.179 C 
BRANCH  14  15
HETATM   15  C   UNL     1     -42.338  55.887 -50.258  1.00  0.00     0.002 C 
HETATM   16  C   UNL     1     -43.443  56.194 -51.272  1.00  0.00     0.011 C 
HETATM   17  C   UNL     1     -41.159  56.838 -50.466  1.00  0.00     0.011 C 
ENDBRANCH  14  15
ENDBRANCH  13  14
ENDBRANCH   9  13
ENDBRANCH   1   7
BRANCH   3  18
HETATM   18  C   UNL     1     -43.180  56.944 -57.242  1.00  0.00     0.164 C 
BRANCH  18  19
HETATM   19  C   UNL     1     -42.607  58.280 -57.637  1.00  0.00    -0.023 A 
HETATM   20  C   UNL     1     -42.098  59.121 -56.649  1.00  0.00     0.127 A 
HETATM   21  N   UNL     1     -41.534  60.328 -56.885  1.00  0.00    -0.248 NA
HETATM   22  C   UNL     1     -41.462  60.711 -58.175  1.00  0.00     0.125 A 
HETATM   23 CL   UNL     1     -40.733  62.241 -58.431  1.00  0.00    -0.063 Cl
HETATM   24  C   UNL     1     -41.923  59.958 -59.239  1.00  0.00     0.045 A 
HETATM   25  C   UNL     1     -42.498  58.721 -58.961  1.00  0.00     0.013 A 
ENDBRANCH  18  19
ENDBRANCH   3  18
TORSDOF 6
ENDMDL
MODEL 8
REMARK VINA RESULT:      -6.9      1.950      3.711
REMARK  6 active torsions:
REMARK  status: ('A' for Active; 'I' for Inactive)
REMARK    1  A    between atoms: C_2  and  C_3 
REMARK    2  A    between atoms: C_3  and  O_4 
REMARK    3  A    between atoms: O_4  and  C_5 
REMARK    4  A    between atoms: C_7  and  N_8 
REMARK       I    between atoms: N_8  and  C_9 
REMARK       I    between atoms: C_9  and  N_10 
REMARK    5  A    between atoms: N_10  and  C_11 
REMARK    6  A    between atoms: C_11  and  C_12 
ROOT
HETATM    1  N   UNL     1     -43.083  54.384 -55.793  1.00  0.00    -0.309 N 
HETATM    2  C   UNL     1     -42.887  55.407 -56.694  1.00  0.00     0.320 C 
HETATM    3  N   UNL     1     -43.672  55.222 -57.811  1.00  0.00    -0.339 N 
HETATM    4  O   UNL     1     -42.092  56.330 -56.594  1.00  0.00    -0.247 OA
HETATM    5  H   UNL     1     -43.595  53.592 -56.148  1.00  0.00     0.170 HD
HETATM    6  H   UNL     1     -44.544  54.728 -57.697  1.00  0.00     0.164 HD
ENDROOT
BRANCH   1   7
HETATM    7  C   UNL     1     -42.415  54.191 -54.567  1.00  0.00     0.039 A 
HETATM    8  C   UNL     1     -42.734  55.068 -53.524  1.00  0.00     0.066 A 
HETATM    9  C   UNL     1     -42.165  54.914 -52.256  1.00  0.00     0.070 A 
HETATM   10  C   UNL     1     -41.222  53.912 -52.042  1.00  0.00     0.037 A 
HETATM   11  C   UNL     1     -40.879  53.050 -53.086  1.00  0.00     0.005 A 
HETATM   12  C   UNL     1     -41.478  53.184 -54.342  1.00  0.00     0.030 A 
BRANCH   9  13
HETATM   13  O   UNL     1     -42.610  55.806 -51.320  1.00  0.00    -0.351 OA
BRANCH  13  14
HETATM   14  C   UNL     1     -42.561  57.187 -51.683  1.00  0.00     0.179 C 
BRANCH  14  15
HETATM   15  C   UNL     1     -41.119  57.704 -51.549  1.00  0.00     0.002 C 
HETATM   16  C   UNL     1     -40.999  58.710 -50.402  1.00  0.00     0.011 C 
HETATM   17  C   UNL     1     -40.625  58.334 -52.851  1.00  0.00     0.011 C 
ENDBRANCH  14  15
ENDBRANCH  13  14
ENDBRANCH   9  13
ENDBRANCH   1   7
BRANCH   3  18
HETATM   18  C   UNL     1     -43.519  56.043 -58.994  1.00  0.00     0.164 C 
BRANCH  18  19
HETATM   19  C   UNL     1     -44.826  56.286 -59.705  1.00  0.00    -0.023 A 
HETATM   20  C   UNL     1     -45.158  55.497 -60.806  1.00  0.00     0.127 A 
HETATM   21  N   UNL     1     -46.312  55.603 -61.504  1.00  0.00    -0.248 NA
HETATM   22  C   UNL     1     -47.186  56.534 -61.075  1.00  0.00     0.125 A 
HETATM   23 CL   UNL     1     -48.638  56.628 -61.982  1.00  0.00    -0.063 Cl
HETATM   24  C   UNL     1     -46.972  57.365 -59.991  1.00  0.00     0.045 A 
HETATM   25  C   UNL     1     -45.773  57.231 -59.294  1.00  0.00     0.013 A 
ENDBRANCH  18  19
ENDBRANCH   3  18
TORSDOF 6
ENDMDL
MODEL 9
REMARK VINA RESULT:      -6.9      4.182      9.500
REMARK  6 active torsions:
REMARK  status: ('A' for Active; 'I' for Inactive)
REMARK    1  A    between atoms: C_2  and  C_3 
REMARK    2  A    between atoms: C_3  and  O_4 
REMARK    3  A    between atoms: O_4  and  C_5 
REMARK    4  A    between atoms: C_7  and  N_8 
REMARK       I    between atoms: N_8  and  C_9 
REMARK       I    between atoms: C_9  and  N_10 
REMARK    5  A    between atoms: N_10  and  C_11 
REMARK    6  A    between atoms: C_11  and  C_12 
ROOT
HETATM    1  N   UNL     1     -42.144  55.769 -57.435  1.00  0.00    -0.309 N 
HETATM    2  C   UNL     1     -42.380  55.851 -56.081  1.00  0.00     0.320 C 
HETATM    3  N   UNL     1     -41.232  55.567 -55.374  1.00  0.00    -0.339 N 
HETATM    4  O   UNL     1     -43.451  56.070 -55.535  1.00  0.00    -0.247 OA
HETATM    5  H   UNL     1     -41.267  55.346 -57.694  1.00  0.00     0.170 HD
HETATM    6  H   UNL     1     -40.347  55.781 -55.809  1.00  0.00     0.164 HD
ENDROOT
BRANCH   1   7
HETATM    7  C   UNL     1     -43.085  55.929 -58.473  1.00  0.00     0.039 A 
HETATM    8  C   UNL     1     -43.117  57.171 -59.117  1.00  0.00     0.066 A 
HETATM    9  C   UNL     1     -43.976  57.400 -60.197  1.00  0.00     0.070 A 
HETATM   10  C   UNL     1     -44.856  56.397 -60.599  1.00  0.00     0.037 A 
HETATM   11  C   UNL     1     -44.848  55.165 -59.944  1.00  0.00     0.005 A 
HETATM   12  C   UNL     1     -43.961  54.928 -58.890  1.00  0.00     0.030 A 
BRANCH   9  13
HETATM   13  O   UNL     1     -43.861  58.639 -60.763  1.00  0.00    -0.351 OA
BRANCH  13  14
HETATM   14  C   UNL     1     -43.924  59.755 -59.874  1.00  0.00     0.179 C 
BRANCH  14  15
HETATM   15  C   UNL     1     -42.709  60.669 -60.110  1.00  0.00     0.002 C 
HETATM   16  C   UNL     1     -41.952  60.260 -61.376  1.00  0.00     0.011 C 
HETATM   17  C   UNL     1     -41.762  60.665 -58.910  1.00  0.00     0.011 C 
ENDBRANCH  14  15
ENDBRANCH  13  14
ENDBRANCH   9  13
ENDBRANCH   1   7
BRANCH   3  18
HETATM   18  C   UNL     1     -41.245  55.391 -53.937  1.00  0.00     0.164 C 
BRANCH  18  19
HETATM   19  C   UNL     1     -40.730  54.040 -53.512  1.00  0.00    -0.023 A 
HETATM   20  C   UNL     1     -40.520  53.787 -52.158  1.00  0.00     0.127 A 
HETATM   21  N   UNL     1     -40.088  52.607 -51.657  1.00  0.00    -0.248 NA
HETATM   22  C   UNL     1     -39.868  51.623 -52.551  1.00  0.00     0.125 A 
HETATM   23 CL   UNL     1     -39.332  50.142 -51.873  1.00  0.00    -0.063 Cl
HETATM   24  C   UNL     1     -40.051  51.753 -53.915  1.00  0.00     0.045 A 
HETATM   25  C   UNL     1     -40.495  52.981 -54.398  1.00  0.00     0.013 A 
ENDBRANCH  18  19
ENDBRANCH   3  18
TORSDOF 6
ENDMDL
MODEL 10
REMARK VINA RESULT:      -6.8      5.119      9.027
REMARK  6 active torsions:
REMARK  status: ('A' for Active; 'I' for Inactive)
REMARK    1  A    between atoms: C_2  and  C_3 
REMARK    2  A    between atoms: C_3  and  O_4 
REMARK    3  A    between atoms: O_4  and  C_5 
REMARK    4  A    between atoms: C_7  and  N_8 
REMARK       I    between atoms: N_8  and  C_9 
REMARK       I    between atoms: C_9  and  N_10 
REMARK    5  A    between atoms: N_10  and  C_11 
REMARK    6  A    between atoms: C_11  and  C_12 
ROOT
HETATM    1  N   UNL     1     -40.516  56.763 -50.594  1.00  0.00    -0.309 N 
HETATM    2  C   UNL     1     -41.020  55.596 -50.064  1.00  0.00     0.320 C 
HETATM    3  N   UNL     1     -40.061  54.607 -50.077  1.00  0.00    -0.339 N 
HETATM    4  O   UNL     1     -42.166  55.397 -49.688  1.00  0.00    -0.247 OA
HETATM    5  H   UNL     1     -39.631  56.672 -51.068  1.00  0.00     0.170 HD
HETATM    6  H   UNL     1     -39.094  54.888 -50.009  1.00  0.00     0.164 HD
ENDROOT
BRANCH   1   7
HETATM    7  C   UNL     1     -41.211  57.970 -50.806  1.00  0.00     0.039 A 
HETATM    8  C   UNL     1     -42.170  57.983 -51.825  1.00  0.00     0.066 A 
HETATM    9  C   UNL     1     -42.950  59.118 -52.065  1.00  0.00     0.070 A 
HETATM   10  C   UNL     1     -42.728  60.275 -51.321  1.00  0.00     0.037 A 
HETATM   11  C   UNL     1     -41.755  60.278 -50.320  1.00  0.00     0.005 A 
HETATM   12  C   UNL     1     -41.004  59.129 -50.058  1.00  0.00     0.030 A 
BRANCH   9  13
HETATM   13  O   UNL     1     -43.884  58.970 -53.053  1.00  0.00    -0.351 OA
BRANCH  13  14
HETATM   14  C   UNL     1     -44.706  57.803 -52.983  1.00  0.00     0.179 C 
BRANCH  14  15
HETATM   15  C   UNL     1     -44.760  57.129 -54.364  1.00  0.00     0.002 C 
HETATM   16  C   UNL     1     -43.933  55.841 -54.382  1.00  0.00     0.011 C 
HETATM   17  C   UNL     1     -44.281  58.072 -55.468  1.00  0.00     0.011 C 
ENDBRANCH  14  15
ENDBRANCH  13  14
ENDBRANCH   9  13
ENDBRANCH   1   7
BRANCH   3  18
HETATM   18  C   UNL     1     -40.381  53.231 -49.758  1.00  0.00     0.164 C 
BRANCH  18  19
HETATM   19  C   UNL     1     -40.162  52.300 -50.922  1.00  0.00    -0.023 A 
HETATM   20  C   UNL     1     -40.224  52.806 -52.220  1.00  0.00     0.127 A 
HETATM   21  N   UNL     1     -40.018  52.074 -53.338  1.00  0.00    -0.248 NA
HETATM   22  C   UNL     1     -39.721  50.773 -53.154  1.00  0.00     0.125 A 
HETATM   23 CL   UNL     1     -39.457  49.885 -54.597  1.00  0.00    -0.063 Cl
HETATM   24  C   UNL     1     -39.621  50.162 -51.918  1.00  0.00     0.045 A 
HETATM   25  C   UNL     1     -39.840  50.944 -50.786  1.00  0.00     0.013 A 
ENDBRANCH  18  19
ENDBRANCH   3  18
TORSDOF 6
ENDMDL
