MODEL 1
REMARK VINA RESULT:      -7.0      0.000      0.000
REMARK  5 active torsions:
REMARK  status: ('A' for Active; 'I' for Inactive)
REMARK    1  A    between atoms: C_12  and  N_13 
REMARK    2  A    between atoms: N_13  and  C_14 
REMARK    3  A    between atoms: C_14  and  C_15 
REMARK    4  A    between atoms: C_15  and  N_16 
REMARK       I    between atoms: N_16  and  C_17 
REMARK    5  A    between atoms: C_17  and  C_18 
ROOT
HETATM    1  C   UNL     1     -41.316  54.944 -55.085  1.00  0.00     0.025 A 
HETATM    2  C   UNL     1     -42.527  55.435 -55.554  1.00  0.00     0.036 A 
HETATM    3 CL   UNL     1     -42.867  55.415 -57.238  1.00  0.00    -0.084 Cl
HETATM    4  C   UNL     1     -43.477  55.933 -54.668  1.00  0.00     0.054 A 
HETATM    5  C   UNL     1     -43.209  55.943 -53.292  1.00  0.00     0.046 A 
HETATM    6  C   UNL     1     -41.978  55.463 -52.779  1.00  0.00     0.017 A 
HETATM    7  C   UNL     1     -41.045  54.956 -53.713  1.00  0.00     0.018 A 
HETATM    8  N   UNL     1     -44.143  56.399 -52.437  1.00  0.00    -0.365 N 
HETATM    9  H   UNL     1     -45.029  56.734 -52.814  1.00  0.00     0.165 HD
HETATM   10  C   UNL     1     -43.974  56.412 -51.111  1.00  0.00     0.090 A 
HETATM   11  C   UNL     1     -42.792  55.953 -50.554  1.00  0.00     0.047 A 
HETATM   12  C   UNL     1     -41.759  55.487 -51.372  1.00  0.00     0.042 A 
ENDROOT
BRANCH  12  13
HETATM   13  N   UNL     1     -40.588  54.944 -50.842  1.00  0.00    -0.388 N 
HETATM   14  H   UNL     1     -39.774  55.553 -50.900  1.00  0.00     0.159 HD
BRANCH  13  15
HETATM   15  C   UNL     1     -40.575  54.049 -49.681  1.00  0.00     0.139 C 
BRANCH  15  16
HETATM   16  C   UNL     1     -40.353  52.593 -50.132  1.00  0.00     0.142 C 
BRANCH  16  17
HETATM   17  N   UNL     1     -39.862  52.457 -51.491  1.00  0.00    -0.359 N 
HETATM   18  C   UNL     1     -39.523  51.225 -52.000  1.00  0.00     0.221 C 
HETATM   19  O   UNL     1     -39.439  50.204 -51.329  1.00  0.00    -0.273 OA
HETATM   20  H   UNL     1     -40.079  53.191 -52.154  1.00  0.00     0.162 HD
BRANCH  18  21
HETATM   21  C   UNL     1     -39.302  51.211 -53.470  1.00  0.00     0.078 A 
HETATM   22  C   UNL     1     -39.685  50.006 -54.298  1.00  0.00     0.015 A 
HETATM   23  C   UNL     1     -40.497  51.265 -54.395  1.00  0.00     0.015 A 
ENDBRANCH  18  21
ENDBRANCH  16  17
ENDBRANCH  15  16
ENDBRANCH  13  15
ENDBRANCH  12  13
TORSDOF 5
ENDMDL
MODEL 2
REMARK VINA RESULT:      -7.0      4.100      6.844
REMARK  5 active torsions:
REMARK  status: ('A' for Active; 'I' for Inactive)
REMARK    1  A    between atoms: C_12  and  N_13 
REMARK    2  A    between atoms: N_13  and  C_14 
REMARK    3  A    between atoms: C_14  and  C_15 
REMARK    4  A    between atoms: C_15  and  N_16 
REMARK       I    between atoms: N_16  and  C_17 
REMARK    5  A    between atoms: C_17  and  C_18 
ROOT
HETATM    1  C   UNL     1     -41.649  54.706 -50.446  1.00  0.00     0.025 A 
HETATM    2  C   UNL     1     -40.768  53.957 -49.676  1.00  0.00     0.036 A 
HETATM    3 CL   UNL     1     -40.607  54.281 -47.997  1.00  0.00    -0.084 Cl
HETATM    4  C   UNL     1     -40.020  52.935 -50.253  1.00  0.00     0.054 A 
HETATM    5  C   UNL     1     -40.155  52.660 -51.621  1.00  0.00     0.046 A 
HETATM    6  C   UNL     1     -41.034  53.412 -52.440  1.00  0.00     0.017 A 
HETATM    7  C   UNL     1     -41.782  54.435 -51.811  1.00  0.00     0.018 A 
HETATM    8  N   UNL     1     -39.452  51.651 -52.167  1.00  0.00    -0.365 N 
HETATM    9  H   UNL     1     -38.828  51.109 -51.569  1.00  0.00     0.165 HD
HETATM   10  C   UNL     1     -39.549  51.308 -53.456  1.00  0.00     0.090 A 
HETATM   11  C   UNL     1     -40.393  52.007 -54.302  1.00  0.00     0.047 A 
HETATM   12  C   UNL     1     -41.141  53.086 -53.822  1.00  0.00     0.042 A 
ENDROOT
BRANCH  12  13
HETATM   13  N   UNL     1     -42.060  53.761 -54.625  1.00  0.00    -0.388 N 
HETATM   14  H   UNL     1     -42.969  53.916 -54.193  1.00  0.00     0.159 HD
BRANCH  13  15
HETATM   15  C   UNL     1     -41.673  54.807 -55.578  1.00  0.00     0.139 C 
BRANCH  15  16
HETATM   16  C   UNL     1     -42.908  55.623 -56.004  1.00  0.00     0.142 C 
BRANCH  16  17
HETATM   17  N   UNL     1     -43.434  55.274 -57.310  1.00  0.00    -0.359 N 
HETATM   18  C   UNL     1     -43.200  56.075 -58.404  1.00  0.00     0.221 C 
HETATM   19  O   UNL     1     -42.704  57.192 -58.343  1.00  0.00    -0.273 OA
HETATM   20  H   UNL     1     -43.676  54.306 -57.485  1.00  0.00     0.162 HD
BRANCH  18  21
HETATM   21  C   UNL     1     -43.562  55.454 -59.705  1.00  0.00     0.078 A 
HETATM   22  C   UNL     1     -44.563  54.323 -59.771  1.00  0.00     0.015 A 
HETATM   23  C   UNL     1     -44.945  55.685 -60.272  1.00  0.00     0.015 A 
ENDBRANCH  18  21
ENDBRANCH  16  17
ENDBRANCH  15  16
ENDBRANCH  13  15
ENDBRANCH  12  13
TORSDOF 5
ENDMDL
MODEL 3
REMARK VINA RESULT:      -6.8      2.903      5.250
REMARK  5 active torsions:
REMARK  status: ('A' for Active; 'I' for Inactive)
REMARK    1  A    between atoms: C_12  and  N_13 
REMARK    2  A    between atoms: N_13  and  C_14 
REMARK    3  A    between atoms: C_14  and  C_15 
REMARK    4  A    between atoms: C_15  and  N_16 
REMARK       I    between atoms: N_16  and  C_17 
REMARK    5  A    between atoms: C_17  and  C_18 
ROOT
HETATM    1  C   UNL     1     -40.234  52.676 -54.090  1.00  0.00     0.025 A 
HETATM    2  C   UNL     1     -39.851  51.514 -53.431  1.00  0.00     0.036 A 
HETATM    3 CL   UNL     1     -39.360  50.138 -54.332  1.00  0.00    -0.084 Cl
HETATM    4  C   UNL     1     -39.851  51.460 -52.040  1.00  0.00     0.054 A 
HETATM    5  C   UNL     1     -40.241  52.584 -51.299  1.00  0.00     0.046 A 
HETATM    6  C   UNL     1     -40.651  53.782 -51.938  1.00  0.00     0.017 A 
HETATM    7  C   UNL     1     -40.627  53.797 -53.352  1.00  0.00     0.018 A 
HETATM    8  N   UNL     1     -40.210  52.536 -49.954  1.00  0.00    -0.365 N 
HETATM    9  H   UNL     1     -39.906  51.674 -49.503  1.00  0.00     0.165 HD
HETATM   10  C   UNL     1     -40.539  53.575 -49.179  1.00  0.00     0.090 A 
HETATM   11  C   UNL     1     -40.944  54.770 -49.749  1.00  0.00     0.047 A 
HETATM   12  C   UNL     1     -41.029  54.898 -51.139  1.00  0.00     0.042 A 
ENDROOT
BRANCH  12  13
HETATM   13  N   UNL     1     -41.357  56.109 -51.749  1.00  0.00    -0.388 N 
HETATM   14  H   UNL     1     -41.156  56.150 -52.746  1.00  0.00     0.159 HD
BRANCH  13  15
HETATM   15  C   UNL     1     -42.507  56.923 -51.344  1.00  0.00     0.139 C 
BRANCH  15  16
HETATM   16  C   UNL     1     -43.394  57.237 -52.563  1.00  0.00     0.142 C 
BRANCH  16  17
HETATM   17  N   UNL     1     -43.126  56.410 -53.725  1.00  0.00    -0.359 N 
HETATM   18  C   UNL     1     -42.652  56.963 -54.892  1.00  0.00     0.221 C 
HETATM   19  O   UNL     1     -42.587  58.167 -55.105  1.00  0.00    -0.273 OA
HETATM   20  H   UNL     1     -42.969  55.420 -53.582  1.00  0.00     0.162 HD
BRANCH  18  21
HETATM   21  C   UNL     1     -42.172  55.969 -55.888  1.00  0.00     0.078 A 
HETATM   22  C   UNL     1     -42.929  54.683 -56.125  1.00  0.00     0.015 A 
HETATM   23  C   UNL     1     -42.958  55.766 -57.164  1.00  0.00     0.015 A 
ENDBRANCH  18  21
ENDBRANCH  16  17
ENDBRANCH  15  16
ENDBRANCH  13  15
ENDBRANCH  12  13
TORSDOF 5
ENDMDL
MODEL 4
REMARK VINA RESULT:      -6.7     13.694     14.659
REMARK  5 active torsions:
REMARK  status: ('A' for Active; 'I' for Inactive)
REMARK    1  A    between atoms: C_12  and  N_13 
REMARK    2  A    between atoms: N_13  and  C_14 
REMARK    3  A    between atoms: C_14  and  C_15 
REMARK    4  A    between atoms: C_15  and  N_16 
REMARK       I    between atoms: N_16  and  C_17 
REMARK    5  A    between atoms: C_17  and  C_18 
ROOT
HETATM    1  C   UNL     1     -35.359  42.308 -56.839  1.00  0.00     0.025 A 
HETATM    2  C   UNL     1     -36.607  41.956 -57.337  1.00  0.00     0.036 A 
HETATM    3 CL   UNL     1     -36.885  41.950 -59.032  1.00  0.00    -0.084 Cl
HETATM    4  C   UNL     1     -37.636  41.595 -56.471  1.00  0.00     0.054 A 
HETATM    5  C   UNL     1     -37.412  41.589 -55.088  1.00  0.00     0.046 A 
HETATM    6  C   UNL     1     -36.155  41.956 -54.544  1.00  0.00     0.017 A 
HETATM    7  C   UNL     1     -35.135  42.306 -55.459  1.00  0.00     0.018 A 
HETATM    8  N   UNL     1     -38.401  41.211 -54.257  1.00  0.00    -0.365 N 
HETATM    9  H   UNL     1     -39.299  40.940 -54.657  1.00  0.00     0.165 HD
HETATM   10  C   UNL     1     -38.255  41.150 -52.929  1.00  0.00     0.090 A 
HETATM   11  C   UNL     1     -37.049  41.495 -52.343  1.00  0.00     0.047 A 
HETATM   12  C   UNL     1     -35.977  41.924 -53.131  1.00  0.00     0.042 A 
ENDROOT
BRANCH  12  13
HETATM   13  N   UNL     1     -34.725  42.203 -52.583  1.00  0.00    -0.388 N 
HETATM   14  H   UNL     1     -34.477  43.191 -52.571  1.00  0.00     0.159 HD
BRANCH  13  15
HETATM   15  C   UNL     1     -34.149  41.436 -51.474  1.00  0.00     0.139 C 
BRANCH  15  16
HETATM   16  C   UNL     1     -33.021  40.521 -51.987  1.00  0.00     0.142 C 
BRANCH  16  17
HETATM   17  N   UNL     1     -32.562  40.834 -53.328  1.00  0.00    -0.359 N 
HETATM   18  C   UNL     1     -32.059  39.852 -54.150  1.00  0.00     0.221 C 
HETATM   19  O   UNL     1     -31.797  38.714 -53.780  1.00  0.00    -0.273 OA
HETATM   20  H   UNL     1     -32.911  41.676 -53.769  1.00  0.00     0.162 HD
BRANCH  18  21
HETATM   21  C   UNL     1     -31.890  40.268 -55.567  1.00  0.00     0.078 A 
HETATM   22  C   UNL     1     -31.261  39.336 -56.577  1.00  0.00     0.015 A 
HETATM   23  C   UNL     1     -32.736  39.611 -56.634  1.00  0.00     0.015 A 
ENDBRANCH  18  21
ENDBRANCH  16  17
ENDBRANCH  15  16
ENDBRANCH  13  15
ENDBRANCH  12  13
TORSDOF 5
ENDMDL
MODEL 5
REMARK VINA RESULT:      -6.7      4.290      6.688
REMARK  5 active torsions:
REMARK  status: ('A' for Active; 'I' for Inactive)
REMARK    1  A    between atoms: C_12  and  N_13 
REMARK    2  A    between atoms: N_13  and  C_14 
REMARK    3  A    between atoms: C_14  and  C_15 
REMARK    4  A    between atoms: C_15  and  N_16 
REMARK       I    between atoms: N_16  and  C_17 
REMARK    5  A    between atoms: C_17  and  C_18 
ROOT
HETATM    1  C   UNL     1     -39.997  51.571 -53.573  1.00  0.00     0.025 A 
HETATM    2  C   UNL     1     -39.774  51.438 -52.209  1.00  0.00     0.036 A 
HETATM    3 CL   UNL     1     -39.139  49.971 -51.582  1.00  0.00    -0.084 Cl
HETATM    4  C   UNL     1     -40.050  52.493 -51.343  1.00  0.00     0.054 A 
HETATM    5  C   UNL     1     -40.560  53.696 -51.850  1.00  0.00     0.046 A 
HETATM    6  C   UNL     1     -40.812  53.862 -53.236  1.00  0.00     0.017 A 
HETATM    7  C   UNL     1     -40.508  52.770 -54.081  1.00  0.00     0.018 A 
HETATM    8  N   UNL     1     -40.797  54.722 -51.013  1.00  0.00    -0.365 N 
HETATM    9  H   UNL     1     -40.604  54.597 -50.020  1.00  0.00     0.165 HD
HETATM   10  C   UNL     1     -41.253  55.910 -51.425  1.00  0.00     0.090 A 
HETATM   11  C   UNL     1     -41.515  56.129 -52.766  1.00  0.00     0.047 A 
HETATM   12  C   UNL     1     -41.321  55.108 -53.702  1.00  0.00     0.042 A 
ENDROOT
BRANCH  12  13
HETATM   13  N   UNL     1     -41.499  55.318 -55.069  1.00  0.00    -0.388 N 
HETATM   14  H   UNL     1     -41.044  54.630 -55.667  1.00  0.00     0.159 HD
BRANCH  13  15
HETATM   15  C   UNL     1     -42.730  55.874 -55.639  1.00  0.00     0.139 C 
BRANCH  15  16
HETATM   16  C   UNL     1     -42.561  56.100 -57.153  1.00  0.00     0.142 C 
BRANCH  16  17
HETATM   17  N   UNL     1     -43.691  55.663 -57.953  1.00  0.00    -0.359 N 
HETATM   18  C   UNL     1     -43.572  55.495 -59.313  1.00  0.00     0.221 C 
HETATM   19  O   UNL     1     -42.601  55.854 -59.966  1.00  0.00    -0.273 OA
HETATM   20  H   UNL     1     -44.445  55.173 -57.487  1.00  0.00     0.162 HD
BRANCH  18  21
HETATM   21  C   UNL     1     -44.718  54.789 -59.944  1.00  0.00     0.078 A 
HETATM   22  C   UNL     1     -45.976  55.538 -60.318  1.00  0.00     0.015 A 
HETATM   23  C   UNL     1     -45.043  55.065 -61.395  1.00  0.00     0.015 A 
ENDBRANCH  18  21
ENDBRANCH  16  17
ENDBRANCH  15  16
ENDBRANCH  13  15
ENDBRANCH  12  13
TORSDOF 5
ENDMDL
MODEL 6
REMARK VINA RESULT:      -6.5      3.534      5.829
REMARK  5 active torsions:
REMARK  status: ('A' for Active; 'I' for Inactive)
REMARK    1  A    between atoms: C_12  and  N_13 
REMARK    2  A    between atoms: N_13  and  C_14 
REMARK    3  A    between atoms: C_14  and  C_15 
REMARK    4  A    between atoms: C_15  and  N_16 
REMARK       I    between atoms: N_16  and  C_17 
REMARK    5  A    between atoms: C_17  and  C_18 
ROOT
HETATM    1  C   UNL     1     -39.479  51.698 -52.404  1.00  0.00     0.025 A 
HETATM    2  C   UNL     1     -39.949  51.228 -53.624  1.00  0.00     0.036 A 
HETATM    3 CL   UNL     1     -39.399  49.718 -54.230  1.00  0.00    -0.084 Cl
HETATM    4  C   UNL     1     -40.873  51.967 -54.356  1.00  0.00     0.054 A 
HETATM    5  C   UNL     1     -41.332  53.195 -53.862  1.00  0.00     0.046 A 
HETATM    6  C   UNL     1     -40.864  53.712 -52.627  1.00  0.00     0.017 A 
HETATM    7  C   UNL     1     -39.934  52.925 -51.910  1.00  0.00     0.018 A 
HETATM    8  N   UNL     1     -42.248  53.891 -54.559  1.00  0.00    -0.365 N 
HETATM    9  H   UNL     1     -42.586  53.508 -55.441  1.00  0.00     0.165 HD
HETATM   10  C   UNL     1     -42.756  55.054 -54.139  1.00  0.00     0.090 A 
HETATM   11  C   UNL     1     -42.338  55.606 -52.940  1.00  0.00     0.047 A 
HETATM   12  C   UNL     1     -41.369  54.961 -52.164  1.00  0.00     0.042 A 
ENDROOT
BRANCH  12  13
HETATM   13  N   UNL     1     -40.983  55.446 -50.915  1.00  0.00    -0.388 N 
HETATM   14  H   UNL     1     -40.001  55.300 -50.688  1.00  0.00     0.159 HD
BRANCH  13  15
HETATM   15  C   UNL     1     -41.554  56.657 -50.316  1.00  0.00     0.139 C 
BRANCH  15  16
HETATM   16  C   UNL     1     -40.775  57.901 -50.783  1.00  0.00     0.142 C 
BRANCH  16  17
HETATM   17  N   UNL     1     -41.564  58.845 -51.553  1.00  0.00    -0.359 N 
HETATM   18  C   UNL     1     -41.149  59.264 -52.795  1.00  0.00     0.221 C 
HETATM   19  O   UNL     1     -40.043  59.031 -53.265  1.00  0.00    -0.273 OA
HETATM   20  H   UNL     1     -42.549  58.934 -51.336  1.00  0.00     0.162 HD
BRANCH  18  21
HETATM   21  C   UNL     1     -42.181  60.006 -53.566  1.00  0.00     0.078 A 
HETATM   22  C   UNL     1     -42.088  60.123 -55.070  1.00  0.00     0.015 A 
HETATM   23  C   UNL     1     -43.131  59.235 -54.456  1.00  0.00     0.015 A 
ENDBRANCH  18  21
ENDBRANCH  16  17
ENDBRANCH  15  16
ENDBRANCH  13  15
ENDBRANCH  12  13
TORSDOF 5
ENDMDL
MODEL 7
REMARK VINA RESULT:      -6.5      3.378      6.626
REMARK  5 active torsions:
REMARK  status: ('A' for Active; 'I' for Inactive)
REMARK    1  A    between atoms: C_12  and  N_13 
REMARK    2  A    between atoms: N_13  and  C_14 
REMARK    3  A    between atoms: C_14  and  C_15 
REMARK    4  A    between atoms: C_15  and  N_16 
REMARK       I    between atoms: N_16  and  C_17 
REMARK    5  A    between atoms: C_17  and  C_18 
ROOT
HETATM    1  C   UNL     1     -41.604  54.596 -50.271  1.00  0.00     0.025 A 
HETATM    2  C   UNL     1     -40.685  53.795 -49.605  1.00  0.00     0.036 A 
HETATM    3 CL   UNL     1     -40.428  54.003 -47.920  1.00  0.00    -0.084 Cl
HETATM    4  C   UNL     1     -39.976  52.814 -50.292  1.00  0.00     0.054 A 
HETATM    5  C   UNL     1     -40.188  52.634 -51.665  1.00  0.00     0.046 A 
HETATM    6  C   UNL     1     -41.109  53.442 -52.380  1.00  0.00     0.017 A 
HETATM    7  C   UNL     1     -41.815  54.419 -51.642  1.00  0.00     0.018 A 
HETATM    8  N   UNL     1     -39.522  51.664 -52.319  1.00  0.00    -0.365 N 
HETATM    9  H   UNL     1     -38.869  51.082 -51.796  1.00  0.00     0.165 HD
HETATM   10  C   UNL     1     -39.693  51.411 -53.621  1.00  0.00     0.090 A 
HETATM   11  C   UNL     1     -40.581  52.167 -54.367  1.00  0.00     0.047 A 
HETATM   12  C   UNL     1     -41.295  53.212 -53.773  1.00  0.00     0.042 A 
ENDROOT
BRANCH  12  13
HETATM   13  N   UNL     1     -42.254  53.941 -54.475  1.00  0.00    -0.388 N 
HETATM   14  H   UNL     1     -43.047  54.251 -53.915  1.00  0.00     0.159 HD
BRANCH  13  15
HETATM   15  C   UNL     1     -41.921  54.848 -55.578  1.00  0.00     0.139 C 
BRANCH  15  16
HETATM   16  C   UNL     1     -42.806  56.107 -55.520  1.00  0.00     0.142 C 
BRANCH  16  17
HETATM   17  N   UNL     1     -42.780  56.796 -54.243  1.00  0.00    -0.359 N 
HETATM   18  C   UNL     1     -43.946  57.204 -53.636  1.00  0.00     0.221 C 
HETATM   19  O   UNL     1     -45.044  57.185 -54.176  1.00  0.00    -0.273 OA
HETATM   20  H   UNL     1     -41.964  56.682 -53.654  1.00  0.00     0.162 HD
BRANCH  18  21
HETATM   21  C   UNL     1     -43.779  57.642 -52.225  1.00  0.00     0.078 A 
HETATM   22  C   UNL     1     -44.945  58.211 -51.449  1.00  0.00     0.015 A 
HETATM   23  C   UNL     1     -44.431  56.839 -51.123  1.00  0.00     0.015 A 
ENDBRANCH  18  21
ENDBRANCH  16  17
ENDBRANCH  15  16
ENDBRANCH  13  15
ENDBRANCH  12  13
TORSDOF 5
ENDMDL
MODEL 8
REMARK VINA RESULT:      -6.3      4.016      6.815
REMARK  5 active torsions:
REMARK  status: ('A' for Active; 'I' for Inactive)
REMARK    1  A    between atoms: C_12  and  N_13 
REMARK    2  A    between atoms: N_13  and  C_14 
REMARK    3  A    between atoms: C_14  and  C_15 
REMARK    4  A    between atoms: C_15  and  N_16 
REMARK       I    between atoms: N_16  and  C_17 
REMARK    5  A    between atoms: C_17  and  C_18 
ROOT
HETATM    1  C   UNL     1     -39.860  51.747 -52.419  1.00  0.00     0.025 A 
HETATM    2  C   UNL     1     -39.799  51.395 -53.761  1.00  0.00     0.036 A 
HETATM    3 CL   UNL     1     -39.305  49.813 -54.212  1.00  0.00    -0.084 Cl
HETATM    4  C   UNL     1     -40.148  52.313 -54.748  1.00  0.00     0.054 A 
HETATM    5  C   UNL     1     -40.561  53.602 -54.385  1.00  0.00     0.046 A 
HETATM    6  C   UNL     1     -40.622  54.000 -53.026  1.00  0.00     0.017 A 
HETATM    7  C   UNL     1     -40.270  53.034 -52.056  1.00  0.00     0.018 A 
HETATM    8  N   UNL     1     -40.925  54.475 -55.342  1.00  0.00    -0.365 N 
HETATM    9  H   UNL     1     -40.887  54.178 -56.316  1.00  0.00     0.165 HD
HETATM   10  C   UNL     1     -41.359  55.712 -55.074  1.00  0.00     0.090 A 
HETATM   11  C   UNL     1     -41.442  56.154 -53.765  1.00  0.00     0.047 A 
HETATM   12  C   UNL     1     -41.058  55.319 -52.710  1.00  0.00     0.042 A 
ENDROOT
BRANCH  12  13
HETATM   13  N   UNL     1     -41.202  55.702 -51.377  1.00  0.00    -0.388 N 
HETATM   14  H   UNL     1     -40.354  55.626 -50.819  1.00  0.00     0.159 HD
BRANCH  13  15
HETATM   15  C   UNL     1     -42.096  56.782 -50.948  1.00  0.00     0.139 C 
BRANCH  15  16
HETATM   16  C   UNL     1     -41.279  58.027 -50.555  1.00  0.00     0.142 C 
BRANCH  16  17
HETATM   17  N   UNL     1     -42.067  59.235 -50.400  1.00  0.00    -0.359 N 
HETATM   18  C   UNL     1     -42.161  60.154 -51.420  1.00  0.00     0.221 C 
HETATM   19  O   UNL     1     -41.476  60.126 -52.434  1.00  0.00    -0.273 OA
HETATM   20  H   UNL     1     -42.796  59.244 -49.698  1.00  0.00     0.162 HD
BRANCH  18  21
HETATM   21  C   UNL     1     -43.210  61.188 -51.217  1.00  0.00     0.078 A 
HETATM   22  C   UNL     1     -43.748  61.483 -49.836  1.00  0.00     0.015 A 
HETATM   23  C   UNL     1     -42.847  62.476 -50.512  1.00  0.00     0.015 A 
ENDBRANCH  18  21
ENDBRANCH  16  17
ENDBRANCH  15  16
ENDBRANCH  13  15
ENDBRANCH  12  13
TORSDOF 5
ENDMDL
MODEL 9
REMARK VINA RESULT:      -6.2      4.131      6.311
REMARK  5 active torsions:
REMARK  status: ('A' for Active; 'I' for Inactive)
REMARK    1  A    between atoms: C_12  and  N_13 
REMARK    2  A    between atoms: N_13  and  C_14 
REMARK    3  A    between atoms: C_14  and  C_15 
REMARK    4  A    between atoms: C_15  and  N_16 
REMARK       I    between atoms: N_16  and  C_17 
REMARK    5  A    between atoms: C_17  and  C_18 
ROOT
HETATM    1  C   UNL     1     -41.264  53.495 -50.650  1.00  0.00     0.025 A 
HETATM    2  C   UNL     1     -41.024  54.383 -49.609  1.00  0.00     0.036 A 
HETATM    3 CL   UNL     1     -40.086  53.889 -48.258  1.00  0.00    -0.084 Cl
HETATM    4  C   UNL     1     -41.530  55.679 -49.657  1.00  0.00     0.054 A 
HETATM    5  C   UNL     1     -42.288  56.091 -50.762  1.00  0.00     0.046 A 
HETATM    6  C   UNL     1     -42.564  55.207 -51.836  1.00  0.00     0.017 A 
HETATM    7  C   UNL     1     -42.023  53.903 -51.751  1.00  0.00     0.018 A 
HETATM    8  N   UNL     1     -42.749  57.354 -50.817  1.00  0.00    -0.365 N 
HETATM    9  H   UNL     1     -42.539  57.985 -50.045  1.00  0.00     0.165 HD
HETATM   10  C   UNL     1     -43.453  57.829 -51.850  1.00  0.00     0.090 A 
HETATM   11  C   UNL     1     -43.750  57.012 -52.927  1.00  0.00     0.047 A 
HETATM   12  C   UNL     1     -43.332  55.677 -52.939  1.00  0.00     0.042 A 
ENDROOT
BRANCH  12  13
HETATM   13  N   UNL     1     -43.544  54.849 -54.041  1.00  0.00    -0.388 N 
HETATM   14  H   UNL     1     -44.510  54.809 -54.361  1.00  0.00     0.159 HD
BRANCH  13  15
HETATM   15  C   UNL     1     -42.559  54.673 -55.112  1.00  0.00     0.139 C 
BRANCH  15  16
HETATM   16  C   UNL     1     -42.746  55.756 -56.191  1.00  0.00     0.142 C 
BRANCH  16  17
HETATM   17  N   UNL     1     -43.343  55.274 -57.423  1.00  0.00    -0.359 N 
HETATM   18  C   UNL     1     -43.419  56.081 -58.535  1.00  0.00     0.221 C 
HETATM   19  O   UNL     1     -43.165  57.279 -58.533  1.00  0.00    -0.273 OA
HETATM   20  H   UNL     1     -43.397  54.274 -57.570  1.00  0.00     0.162 HD
BRANCH  18  21
HETATM   21  C   UNL     1     -43.800  55.368 -59.783  1.00  0.00     0.078 A 
HETATM   22  C   UNL     1     -44.681  54.142 -59.735  1.00  0.00     0.015 A 
HETATM   23  C   UNL     1     -45.233  55.435 -60.260  1.00  0.00     0.015 A 
ENDBRANCH  18  21
ENDBRANCH  16  17
ENDBRANCH  15  16
ENDBRANCH  13  15
ENDBRANCH  12  13
TORSDOF 5
ENDMDL
MODEL 10
REMARK VINA RESULT:      -6.0      3.661      6.178
REMARK  5 active torsions:
REMARK  status: ('A' for Active; 'I' for Inactive)
REMARK    1  A    between atoms: C_12  and  N_13 
REMARK    2  A    between atoms: N_13  and  C_14 
REMARK    3  A    between atoms: C_14  and  C_15 
REMARK    4  A    between atoms: C_15  and  N_16 
REMARK       I    between atoms: N_16  and  C_17 
REMARK    5  A    between atoms: C_17  and  C_18 
ROOT
HETATM    1  C   UNL     1     -41.136  53.194 -52.369  1.00  0.00     0.025 A 
HETATM    2  C   UNL     1     -40.406  52.774 -53.474  1.00  0.00     0.036 A 
HETATM    3 CL   UNL     1     -39.291  51.477 -53.323  1.00  0.00    -0.084 Cl
HETATM    4  C   UNL     1     -40.579  53.391 -54.710  1.00  0.00     0.054 A 
HETATM    5  C   UNL     1     -41.494  54.444 -54.841  1.00  0.00     0.046 A 
HETATM    6  C   UNL     1     -42.247  54.908 -53.731  1.00  0.00     0.017 A 
HETATM    7  C   UNL     1     -42.047  54.247 -52.497  1.00  0.00     0.018 A 
HETATM    8  N   UNL     1     -41.680  55.017 -56.044  1.00  0.00    -0.365 N 
HETATM    9  H   UNL     1     -41.141  54.672 -56.838  1.00  0.00     0.165 HD
HETATM   10  C   UNL     1     -42.555  56.005 -56.255  1.00  0.00     0.090 A 
HETATM   11  C   UNL     1     -43.318  56.496 -55.209  1.00  0.00     0.047 A 
HETATM   12  C   UNL     1     -43.170  55.975 -53.920  1.00  0.00     0.042 A 
ENDROOT
BRANCH  12  13
HETATM   13  N   UNL     1     -43.977  56.390 -52.861  1.00  0.00    -0.388 N 
HETATM   14  H   UNL     1     -43.617  56.159 -51.936  1.00  0.00     0.159 HD
BRANCH  13  15
HETATM   15  C   UNL     1     -44.770  57.624 -52.894  1.00  0.00     0.139 C 
BRANCH  15  16
HETATM   16  C   UNL     1     -44.527  58.448 -51.616  1.00  0.00     0.142 C 
BRANCH  16  17
HETATM   17  N   UNL     1     -43.171  58.371 -51.104  1.00  0.00    -0.359 N 
HETATM   18  C   UNL     1     -42.344  59.470 -51.127  1.00  0.00     0.221 C 
HETATM   19  O   UNL     1     -42.601  60.511 -51.717  1.00  0.00    -0.273 OA
HETATM   20  H   UNL     1     -42.950  57.636 -50.444  1.00  0.00     0.162 HD
BRANCH  18  21
HETATM   21  C   UNL     1     -41.099  59.315 -50.329  1.00  0.00     0.078 A 
HETATM   22  C   UNL     1     -40.307  58.029 -50.373  1.00  0.00     0.015 A 
HETATM   23  C   UNL     1     -39.768  59.259 -51.044  1.00  0.00     0.015 A 
ENDBRANCH  18  21
ENDBRANCH  16  17
ENDBRANCH  15  16
ENDBRANCH  13  15
ENDBRANCH  12  13
TORSDOF 5
ENDMDL
