MODEL 1
REMARK VINA RESULT:      -8.5      0.000      0.000
REMARK  3 active torsions:
REMARK  status: ('A' for Active; 'I' for Inactive)
REMARK    1  A    between atoms: C_2  and  C_3 
REMARK    2  A    between atoms: N_4  and  N_5 
REMARK    3  A    between atoms: C_23  and  O_24 
ROOT
HETATM    1  N   UNL     1     -41.339  56.215 -52.304  1.00  0.00    -0.189 N 
HETATM    2  C   UNL     1     -41.517  56.897 -51.087  1.00  0.00     0.298 A 
HETATM    3  O   UNL     1     -41.350  56.428 -49.964  1.00  0.00    -0.264 OA
HETATM    4  C   UNL     1     -41.925  58.249 -51.293  1.00  0.00     0.133 A 
HETATM    5  C   UNL     1     -42.142  58.797 -52.522  1.00  0.00     0.103 A 
HETATM    6  N   UNL     1     -42.006  58.076 -53.708  1.00  0.00    -0.239 NA
HETATM    7  C   UNL     1     -41.632  56.842 -53.516  1.00  0.00     0.239 A 
HETATM    8  N   UNL     1     -42.179  59.212 -50.357  1.00  0.00    -0.349 N 
HETATM    9  H   UNL     1     -42.106  59.078 -49.357  1.00  0.00     0.166 HD
HETATM   10  C   UNL     1     -42.558  60.383 -50.987  1.00  0.00     0.045 A 
HETATM   11  C   UNL     1     -42.537  60.143 -52.369  1.00  0.00     0.024 A 
HETATM   12  C   UNL     1     -42.919  61.622 -50.444  1.00  0.00     0.032 A 
HETATM   13  C   UNL     1     -43.264  62.642 -51.338  1.00  0.00     0.026 A 
HETATM   14  C   UNL     1     -43.246  62.424 -52.715  1.00  0.00     0.035 A 
HETATM   15 CL   UNL     1     -43.675  63.709 -53.781  1.00  0.00    -0.084 Cl
HETATM   16  C   UNL     1     -42.887  61.183 -53.249  1.00  0.00     0.040 A 
ENDROOT
BRANCH   1  17
HETATM   17  N   UNL     1     -40.979  54.881 -52.197  1.00  0.00    -0.175 NA
HETATM   18  C   UNL     1     -40.633  54.191 -53.232  1.00  0.00     0.150 C 
BRANCH  18  19
HETATM   19  C   UNL     1     -40.279  52.760 -53.105  1.00  0.00    -0.017 A 
HETATM   20  C   UNL     1     -40.357  51.904 -54.208  1.00  0.00     0.016 A 
HETATM   21  C   UNL     1     -40.021  50.557 -54.063  1.00  0.00     0.037 A 
HETATM   22  C   UNL     1     -39.607  50.078 -52.826  1.00  0.00     0.065 A 
HETATM   23  C   UNL     1     -39.525  50.923 -51.721  1.00  0.00     0.037 A 
HETATM   24  C   UNL     1     -39.866  52.272 -51.860  1.00  0.00     0.016 A 
BRANCH  22  25
HETATM   25  O   UNL     1     -39.286  48.757 -52.734  1.00  0.00    -0.361 OA
HETATM   26  H   UNL     1     -39.440  48.456 -51.824  1.00  0.00     0.217 HD
ENDBRANCH  22  25
ENDBRANCH  18  19
ENDBRANCH   1  17
TORSDOF 3
ENDMDL
MODEL 2
REMARK VINA RESULT:      -8.1      1.529      1.817
REMARK  3 active torsions:
REMARK  status: ('A' for Active; 'I' for Inactive)
REMARK    1  A    between atoms: C_2  and  C_3 
REMARK    2  A    between atoms: N_4  and  N_5 
REMARK    3  A    between atoms: C_23  and  O_24 
ROOT
HETATM    1  N   UNL     1     -42.282  55.754 -52.148  1.00  0.00    -0.189 N 
HETATM    2  C   UNL     1     -43.374  56.038 -51.309  1.00  0.00     0.298 A 
HETATM    3  O   UNL     1     -43.974  55.231 -50.604  1.00  0.00    -0.264 OA
HETATM    4  C   UNL     1     -43.729  57.420 -51.354  1.00  0.00     0.133 A 
HETATM    5  C   UNL     1     -43.101  58.339 -52.140  1.00  0.00     0.103 A 
HETATM    6  N   UNL     1     -42.054  58.012 -53.001  1.00  0.00    -0.239 NA
HETATM    7  C   UNL     1     -41.732  56.750 -52.956  1.00  0.00     0.239 A 
HETATM    8  N   UNL     1     -44.721  58.065 -50.669  1.00  0.00    -0.349 N 
HETATM    9  H   UNL     1     -45.353  57.621 -50.016  1.00  0.00     0.166 HD
HETATM   10  C   UNL     1     -44.728  59.404 -51.015  1.00  0.00     0.045 A 
HETATM   11  C   UNL     1     -43.701  59.602 -51.948  1.00  0.00     0.024 A 
HETATM   12  C   UNL     1     -45.561  60.442 -50.580  1.00  0.00     0.032 A 
HETATM   13  C   UNL     1     -45.334  61.716 -51.112  1.00  0.00     0.026 A 
HETATM   14  C   UNL     1     -44.316  61.935 -52.038  1.00  0.00     0.035 A 
HETATM   15 CL   UNL     1     -44.070  63.520 -52.666  1.00  0.00    -0.084 Cl
HETATM   16  C   UNL     1     -43.490  60.892 -52.469  1.00  0.00     0.040 A 
ENDROOT
BRANCH   1  17
HETATM   17  N   UNL     1     -41.893  54.424 -52.196  1.00  0.00    -0.175 NA
HETATM   18  C   UNL     1     -40.679  54.087 -52.480  1.00  0.00     0.150 C 
BRANCH  18  19
HETATM   19  C   UNL     1     -40.287  52.662 -52.554  1.00  0.00    -0.017 A 
HETATM   20  C   UNL     1     -39.900  51.967 -51.404  1.00  0.00     0.016 A 
HETATM   21  C   UNL     1     -39.532  50.624 -51.499  1.00  0.00     0.037 A 
HETATM   22  C   UNL     1     -39.557  49.987 -52.734  1.00  0.00     0.065 A 
HETATM   23  C   UNL     1     -39.942  50.670 -53.885  1.00  0.00     0.037 A 
HETATM   24  C   UNL     1     -40.307  52.017 -53.796  1.00  0.00     0.016 A 
BRANCH  22  25
HETATM   25  O   UNL     1     -39.192  48.674 -52.776  1.00  0.00    -0.361 OA
HETATM   26  H   UNL     1     -38.867  48.407 -51.902  1.00  0.00     0.217 HD
ENDBRANCH  22  25
ENDBRANCH  18  19
ENDBRANCH   1  17
TORSDOF 3
ENDMDL
MODEL 3
REMARK VINA RESULT:      -8.0      1.546      2.202
REMARK  3 active torsions:
REMARK  status: ('A' for Active; 'I' for Inactive)
REMARK    1  A    between atoms: C_2  and  C_3 
REMARK    2  A    between atoms: N_4  and  N_5 
REMARK    3  A    between atoms: C_23  and  O_24 
ROOT
HETATM    1  N   UNL     1     -41.873  56.127 -51.567  1.00  0.00    -0.189 N 
HETATM    2  C   UNL     1     -42.963  56.627 -52.302  1.00  0.00     0.298 A 
HETATM    3  O   UNL     1     -43.669  55.986 -53.076  1.00  0.00    -0.264 OA
HETATM    4  C   UNL     1     -43.183  58.014 -52.043  1.00  0.00     0.133 A 
HETATM    5  C   UNL     1     -42.408  58.762 -51.209  1.00  0.00     0.103 A 
HETATM    6  N   UNL     1     -41.301  58.246 -50.536  1.00  0.00    -0.239 NA
HETATM    7  C   UNL     1     -41.104  56.979 -50.773  1.00  0.00     0.239 A 
HETATM    8  N   UNL     1     -44.150  58.831 -52.558  1.00  0.00    -0.349 N 
HETATM    9  H   UNL     1     -44.861  58.539 -53.216  1.00  0.00     0.166 HD
HETATM   10  C   UNL     1     -43.997  60.108 -52.051  1.00  0.00     0.045 A 
HETATM   11  C   UNL     1     -42.895  60.086 -51.184  1.00  0.00     0.024 A 
HETATM   12  C   UNL     1     -44.740  61.269 -52.295  1.00  0.00     0.032 A 
HETATM   13  C   UNL     1     -44.347  62.436 -51.632  1.00  0.00     0.026 A 
HETATM   14  C   UNL     1     -43.256  62.436 -50.764  1.00  0.00     0.035 A 
HETATM   15 CL   UNL     1     -42.807  63.896 -49.967  1.00  0.00    -0.084 Cl
HETATM   16  C   UNL     1     -42.518  61.272 -50.528  1.00  0.00     0.040 A 
ENDROOT
BRANCH   1  17
HETATM   17  N   UNL     1     -41.563  54.794 -51.787  1.00  0.00    -0.175 NA
HETATM   18  C   UNL     1     -40.573  54.449 -52.541  1.00  0.00     0.150 C 
BRANCH  18  19
HETATM   19  C   UNL     1     -40.272  53.021 -52.788  1.00  0.00    -0.017 A 
HETATM   20  C   UNL     1     -39.761  52.211 -51.768  1.00  0.00     0.016 A 
HETATM   21  C   UNL     1     -39.483  50.868 -52.025  1.00  0.00     0.037 A 
HETATM   22  C   UNL     1     -39.720  50.344 -53.290  1.00  0.00     0.065 A 
HETATM   23  C   UNL     1     -40.231  51.141 -54.312  1.00  0.00     0.037 A 
HETATM   24  C   UNL     1     -40.506  52.489 -54.061  1.00  0.00     0.016 A 
BRANCH  22  25
HETATM   25  O   UNL     1     -39.436  49.026 -53.493  1.00  0.00    -0.361 OA
HETATM   26  H   UNL     1     -40.134  48.632 -54.039  1.00  0.00     0.217 HD
ENDBRANCH  22  25
ENDBRANCH  18  19
ENDBRANCH   1  17
TORSDOF 3
ENDMDL
MODEL 4
REMARK VINA RESULT:      -7.8      3.671      9.070
REMARK  3 active torsions:
REMARK  status: ('A' for Active; 'I' for Inactive)
REMARK    1  A    between atoms: C_2  and  C_3 
REMARK    2  A    between atoms: N_4  and  N_5 
REMARK    3  A    between atoms: C_23  and  O_24 
ROOT
HETATM    1  N   UNL     1     -41.925  56.758 -51.835  1.00  0.00    -0.189 N 
HETATM    2  C   UNL     1     -41.432  55.932 -50.810  1.00  0.00     0.298 A 
HETATM    3  O   UNL     1     -41.359  56.221 -49.619  1.00  0.00    -0.264 OA
HETATM    4  C   UNL     1     -41.011  54.663 -51.312  1.00  0.00     0.133 A 
HETATM    5  C   UNL     1     -41.057  54.314 -52.628  1.00  0.00     0.103 A 
HETATM    6  N   UNL     1     -41.504  55.180 -53.626  1.00  0.00    -0.239 NA
HETATM    7  C   UNL     1     -41.888  56.337 -53.165  1.00  0.00     0.239 A 
HETATM    8  N   UNL     1     -40.495  53.604 -50.618  1.00  0.00    -0.349 N 
HETATM    9  H   UNL     1     -40.341  53.590 -49.618  1.00  0.00     0.166 HD
HETATM   10  C   UNL     1     -40.210  52.571 -51.492  1.00  0.00     0.045 A 
HETATM   11  C   UNL     1     -40.565  53.000 -52.779  1.00  0.00     0.024 A 
HETATM   12  C   UNL     1     -39.667  51.305 -51.244  1.00  0.00     0.032 A 
HETATM   13  C   UNL     1     -39.485  50.456 -52.341  1.00  0.00     0.026 A 
HETATM   14  C   UNL     1     -39.834  50.862 -53.628  1.00  0.00     0.035 A 
HETATM   15 CL   UNL     1     -39.596  49.783 -54.950  1.00  0.00    -0.084 Cl
HETATM   16  C   UNL     1     -40.374  52.129 -53.867  1.00  0.00     0.040 A 
ENDROOT
BRANCH   1  17
HETATM   17  N   UNL     1     -42.321  58.027 -51.443  1.00  0.00    -0.175 NA
HETATM   18  C   UNL     1     -43.569  58.347 -51.357  1.00  0.00     0.150 C 
BRANCH  18  19
HETATM   19  C   UNL     1     -43.975  59.715 -50.964  1.00  0.00    -0.017 A 
HETATM   20  C   UNL     1     -43.019  60.661 -50.579  1.00  0.00     0.016 A 
HETATM   21  C   UNL     1     -43.425  61.944 -50.210  1.00  0.00     0.037 A 
HETATM   22  C   UNL     1     -44.775  62.274 -50.231  1.00  0.00     0.065 A 
HETATM   23  C   UNL     1     -45.735  61.339 -50.614  1.00  0.00     0.037 A 
HETATM   24  C   UNL     1     -45.334  60.051 -50.980  1.00  0.00     0.016 A 
BRANCH  22  25
HETATM   25  O   UNL     1     -45.123  63.539 -49.865  1.00  0.00    -0.361 OA
HETATM   26  H   UNL     1     -44.490  63.865 -49.206  1.00  0.00     0.217 HD
ENDBRANCH  22  25
ENDBRANCH  18  19
ENDBRANCH   1  17
TORSDOF 3
ENDMDL
MODEL 5
REMARK VINA RESULT:      -7.6      4.212      9.165
REMARK  3 active torsions:
REMARK  status: ('A' for Active; 'I' for Inactive)
REMARK    1  A    between atoms: C_2  and  C_3 
REMARK    2  A    between atoms: N_4  and  N_5 
REMARK    3  A    between atoms: C_23  and  O_24 
ROOT
HETATM    1  N   UNL     1     -43.845  56.420 -52.973  1.00  0.00    -0.189 N 
HETATM    2  C   UNL     1     -42.995  56.117 -51.893  1.00  0.00     0.298 A 
HETATM    3  O   UNL     1     -42.919  56.737 -50.836  1.00  0.00    -0.264 OA
HETATM    4  C   UNL     1     -42.198  54.963 -52.158  1.00  0.00     0.133 A 
HETATM    5  C   UNL     1     -42.239  54.263 -53.326  1.00  0.00     0.103 A 
HETATM    6  N   UNL     1     -43.057  54.623 -54.397  1.00  0.00    -0.239 NA
HETATM    7  C   UNL     1     -43.784  55.677 -54.152  1.00  0.00     0.239 A 
HETATM    8  N   UNL     1     -41.275  54.364 -51.346  1.00  0.00    -0.349 N 
HETATM    9  H   UNL     1     -41.033  54.682 -50.416  1.00  0.00     0.166 HD
HETATM   10  C   UNL     1     -40.723  53.275 -51.995  1.00  0.00     0.045 A 
HETATM   11  C   UNL     1     -41.327  53.189 -53.258  1.00  0.00     0.024 A 
HETATM   12  C   UNL     1     -39.743  52.373 -51.566  1.00  0.00     0.032 A 
HETATM   13  C   UNL     1     -39.373  51.354 -52.451  1.00  0.00     0.026 A 
HETATM   14  C   UNL     1     -39.963  51.249 -53.710  1.00  0.00     0.035 A 
HETATM   15 CL   UNL     1     -39.480  49.977 -54.768  1.00  0.00    -0.084 Cl
HETATM   16  C   UNL     1     -40.940  52.156 -54.131  1.00  0.00     0.040 A 
ENDROOT
BRANCH   1  17
HETATM   17  N   UNL     1     -44.629  57.552 -52.818  1.00  0.00    -0.175 NA
HETATM   18  C   UNL     1     -44.519  58.563 -53.615  1.00  0.00     0.150 C 
BRANCH  18  19
HETATM   19  C   UNL     1     -45.344  59.775 -53.418  1.00  0.00    -0.017 A 
HETATM   20  C   UNL     1     -45.984  60.014 -52.198  1.00  0.00     0.016 A 
HETATM   21  C   UNL     1     -46.759  61.163 -52.036  1.00  0.00     0.037 A 
HETATM   22  C   UNL     1     -46.885  62.064 -53.088  1.00  0.00     0.065 A 
HETATM   23  C   UNL     1     -46.251  61.836 -54.307  1.00  0.00     0.037 A 
HETATM   24  C   UNL     1     -45.477  60.683 -54.475  1.00  0.00     0.016 A 
BRANCH  22  25
HETATM   25  O   UNL     1     -47.650  63.173 -52.882  1.00  0.00    -0.361 OA
HETATM   26  H   UNL     1     -48.453  63.110 -53.423  1.00  0.00     0.217 HD
ENDBRANCH  22  25
ENDBRANCH  18  19
ENDBRANCH   1  17
TORSDOF 3
ENDMDL
MODEL 6
REMARK VINA RESULT:      -7.4     16.923     18.606
REMARK  3 active torsions:
REMARK  status: ('A' for Active; 'I' for Inactive)
REMARK    1  A    between atoms: C_2  and  C_3 
REMARK    2  A    between atoms: N_4  and  N_5 
REMARK    3  A    between atoms: C_23  and  O_24 
ROOT
HETATM    1  N   UNL     1     -35.569  40.384 -53.491  1.00  0.00    -0.189 N 
HETATM    2  C   UNL     1     -36.059  39.331 -54.285  1.00  0.00     0.298 A 
HETATM    3  O   UNL     1     -36.182  38.159 -53.937  1.00  0.00    -0.264 OA
HETATM    4  C   UNL     1     -36.421  39.779 -55.591  1.00  0.00     0.133 A 
HETATM    5  C   UNL     1     -36.279  41.065 -56.019  1.00  0.00     0.103 A 
HETATM    6  N   UNL     1     -35.740  42.074 -55.221  1.00  0.00    -0.239 NA
HETATM    7  C   UNL     1     -35.411  41.662 -54.029  1.00  0.00     0.239 A 
HETATM    8  N   UNL     1     -36.943  39.051 -56.624  1.00  0.00    -0.349 N 
HETATM    9  H   UNL     1     -37.145  38.061 -56.587  1.00  0.00     0.166 HD
HETATM   10  C   UNL     1     -37.137  39.873 -57.719  1.00  0.00     0.045 A 
HETATM   11  C   UNL     1     -36.725  41.163 -57.354  1.00  0.00     0.024 A 
HETATM   12  C   UNL     1     -37.638  39.575 -58.992  1.00  0.00     0.032 A 
HETATM   13  C   UNL     1     -37.721  40.625 -59.913  1.00  0.00     0.026 A 
HETATM   14  C   UNL     1     -37.320  41.914 -59.570  1.00  0.00     0.035 A 
HETATM   15 CL   UNL     1     -37.441  43.178 -60.735  1.00  0.00    -0.084 Cl
HETATM   16  C   UNL     1     -36.819  42.203 -58.297  1.00  0.00     0.040 A 
ENDROOT
BRANCH   1  17
HETATM   17  N   UNL     1     -35.157  40.031 -52.216  1.00  0.00    -0.175 NA
HETATM   18  C   UNL     1     -33.904  39.918 -51.920  1.00  0.00     0.150 C 
BRANCH  18  19
HETATM   19  C   UNL     1     -33.481  39.513 -50.562  1.00  0.00    -0.017 A 
HETATM   20  C   UNL     1     -34.279  38.665 -49.788  1.00  0.00     0.016 A 
HETATM   21  C   UNL     1     -33.861  38.298 -48.508  1.00  0.00     0.037 A 
HETATM   22  C   UNL     1     -32.652  38.774 -48.014  1.00  0.00     0.065 A 
HETATM   23  C   UNL     1     -31.849  39.618 -48.778  1.00  0.00     0.037 A 
HETATM   24  C   UNL     1     -32.266  39.993 -50.059  1.00  0.00     0.016 A 
BRANCH  22  25
HETATM   25  O   UNL     1     -32.283  38.385 -46.761  1.00  0.00    -0.361 OA
HETATM   26  H   UNL     1     -32.544  39.072 -46.127  1.00  0.00     0.217 HD
ENDBRANCH  22  25
ENDBRANCH  18  19
ENDBRANCH   1  17
TORSDOF 3
ENDMDL
MODEL 7
REMARK VINA RESULT:      -7.3      4.014      9.277
REMARK  3 active torsions:
REMARK  status: ('A' for Active; 'I' for Inactive)
REMARK    1  A    between atoms: C_2  and  C_3 
REMARK    2  A    between atoms: N_4  and  N_5 
REMARK    3  A    between atoms: C_23  and  O_24 
ROOT
HETATM    1  N   UNL     1     -42.239  57.072 -51.901  1.00  0.00    -0.189 N 
HETATM    2  C   UNL     1     -41.939  56.517 -53.158  1.00  0.00     0.298 A 
HETATM    3  O   UNL     1     -42.122  57.052 -54.248  1.00  0.00    -0.264 OA
HETATM    4  C   UNL     1     -41.370  55.213 -53.036  1.00  0.00     0.133 A 
HETATM    5  C   UNL     1     -41.173  54.579 -51.847  1.00  0.00     0.103 A 
HETATM    6  N   UNL     1     -41.531  55.139 -50.621  1.00  0.00    -0.239 NA
HETATM    7  C   UNL     1     -42.050  56.329 -50.735  1.00  0.00     0.239 A 
HETATM    8  N   UNL     1     -40.942  54.377 -54.030  1.00  0.00    -0.349 N 
HETATM    9  H   UNL     1     -40.979  54.590 -55.018  1.00  0.00     0.166 HD
HETATM   10  C   UNL     1     -40.467  53.203 -53.476  1.00  0.00     0.045 A 
HETATM   11  C   UNL     1     -40.600  53.311 -52.084  1.00  0.00     0.024 A 
HETATM   12  C   UNL     1     -39.939  52.064 -54.095  1.00  0.00     0.032 A 
HETATM   13  C   UNL     1     -39.535  51.010 -53.269  1.00  0.00     0.026 A 
HETATM   14  C   UNL     1     -39.655  51.099 -51.883  1.00  0.00     0.035 A 
HETATM   15 CL   UNL     1     -39.143  49.778 -50.902  1.00  0.00    -0.084 Cl
HETATM   16  C   UNL     1     -40.186  52.239 -51.272  1.00  0.00     0.040 A 
ENDROOT
BRANCH   1  17
HETATM   17  N   UNL     1     -42.833  58.324 -51.926  1.00  0.00    -0.175 NA
HETATM   18  C   UNL     1     -43.968  58.543 -51.348  1.00  0.00     0.150 C 
BRANCH  18  19
HETATM   19  C   UNL     1     -44.602  59.878 -51.408  1.00  0.00    -0.017 A 
HETATM   20  C   UNL     1     -43.858  61.035 -51.151  1.00  0.00     0.016 A 
HETATM   21  C   UNL     1     -44.478  62.284 -51.210  1.00  0.00     0.037 A 
HETATM   22  C   UNL     1     -45.828  62.370 -51.530  1.00  0.00     0.065 A 
HETATM   23  C   UNL     1     -46.577  61.224 -51.790  1.00  0.00     0.037 A 
HETATM   24  C   UNL     1     -45.962  59.970 -51.726  1.00  0.00     0.016 A 
BRANCH  22  25
HETATM   25  O   UNL     1     -46.389  63.611 -51.580  1.00  0.00    -0.361 OA
HETATM   26  H   UNL     1     -45.752  64.231 -51.969  1.00  0.00     0.217 HD
ENDBRANCH  22  25
ENDBRANCH  18  19
ENDBRANCH   1  17
TORSDOF 3
ENDMDL
MODEL 8
REMARK VINA RESULT:      -7.3      5.529      8.399
REMARK  3 active torsions:
REMARK  status: ('A' for Active; 'I' for Inactive)
REMARK    1  A    between atoms: C_2  and  C_3 
REMARK    2  A    between atoms: N_4  and  N_5 
REMARK    3  A    between atoms: C_23  and  O_24 
ROOT
HETATM    1  N   UNL     1     -42.013  56.204 -55.525  1.00  0.00    -0.189 N 
HETATM    2  C   UNL     1     -41.796  56.850 -54.295  1.00  0.00     0.298 A 
HETATM    3  O   UNL     1     -41.868  58.058 -54.089  1.00  0.00    -0.264 OA
HETATM    4  C   UNL     1     -41.475  55.919 -53.260  1.00  0.00     0.133 A 
HETATM    5  C   UNL     1     -41.365  54.575 -53.455  1.00  0.00     0.103 A 
HETATM    6  N   UNL     1     -41.535  53.974 -54.702  1.00  0.00    -0.239 NA
HETATM    7  C   UNL     1     -41.829  54.826 -55.644  1.00  0.00     0.239 A 
HETATM    8  N   UNL     1     -41.217  56.171 -51.941  1.00  0.00    -0.349 N 
HETATM    9  H   UNL     1     -41.221  57.091 -51.519  1.00  0.00     0.166 HD
HETATM   10  C   UNL     1     -40.941  54.985 -51.288  1.00  0.00     0.045 A 
HETATM   11  C   UNL     1     -41.035  53.953 -52.233  1.00  0.00     0.024 A 
HETATM   12  C   UNL     1     -40.615  54.750 -49.947  1.00  0.00     0.032 A 
HETATM   13  C   UNL     1     -40.382  53.425 -49.563  1.00  0.00     0.026 A 
HETATM   14  C   UNL     1     -40.473  52.384 -50.486  1.00  0.00     0.035 A 
HETATM   15 CL   UNL     1     -40.180  50.766 -49.970  1.00  0.00    -0.084 Cl
HETATM   16  C   UNL     1     -40.797  52.628 -51.824  1.00  0.00     0.040 A 
ENDROOT
BRANCH   1  17
HETATM   17  N   UNL     1     -42.292  57.037 -56.597  1.00  0.00    -0.175 NA
HETATM   18  C   UNL     1     -43.139  56.697 -57.511  1.00  0.00     0.150 C 
BRANCH  18  19
HETATM   19  C   UNL     1     -43.405  57.586 -58.664  1.00  0.00    -0.017 A 
HETATM   20  C   UNL     1     -44.710  57.788 -59.124  1.00  0.00     0.016 A 
HETATM   21  C   UNL     1     -44.937  58.628 -60.215  1.00  0.00     0.037 A 
HETATM   22  C   UNL     1     -43.865  59.262 -60.833  1.00  0.00     0.065 A 
HETATM   23  C   UNL     1     -42.562  59.068 -60.381  1.00  0.00     0.037 A 
HETATM   24  C   UNL     1     -42.329  58.223 -59.292  1.00  0.00     0.016 A 
BRANCH  22  25
HETATM   25  O   UNL     1     -44.136  60.076 -61.892  1.00  0.00    -0.361 OA
HETATM   26  H   UNL     1     -44.998  60.499 -61.754  1.00  0.00     0.217 HD
ENDBRANCH  22  25
ENDBRANCH  18  19
ENDBRANCH   1  17
TORSDOF 3
ENDMDL
MODEL 9
REMARK VINA RESULT:      -7.3      4.102      9.312
REMARK  3 active torsions:
REMARK  status: ('A' for Active; 'I' for Inactive)
REMARK    1  A    between atoms: C_2  and  C_3 
REMARK    2  A    between atoms: N_4  and  N_5 
REMARK    3  A    between atoms: C_23  and  O_24 
ROOT
HETATM    1  N   UNL     1     -41.837  56.424 -53.683  1.00  0.00    -0.189 N 
HETATM    2  C   UNL     1     -41.730  55.468 -54.709  1.00  0.00     0.298 A 
HETATM    3  O   UNL     1     -42.021  55.639 -55.890  1.00  0.00    -0.264 OA
HETATM    4  C   UNL     1     -41.221  54.226 -54.223  1.00  0.00     0.133 A 
HETATM    5  C   UNL     1     -40.907  53.994 -52.917  1.00  0.00     0.103 A 
HETATM    6  N   UNL     1     -41.076  54.949 -51.915  1.00  0.00    -0.239 NA
HETATM    7  C   UNL     1     -41.540  56.082 -52.363  1.00  0.00     0.239 A 
HETATM    8  N   UNL     1     -40.969  53.079 -54.923  1.00  0.00    -0.349 N 
HETATM    9  H   UNL     1     -41.120  52.965 -55.916  1.00  0.00     0.166 HD
HETATM   10  C   UNL     1     -40.490  52.107 -54.064  1.00  0.00     0.045 A 
HETATM   11  C   UNL     1     -40.438  52.670 -52.780  1.00  0.00     0.024 A 
HETATM   12  C   UNL     1     -40.108  50.786 -54.322  1.00  0.00     0.032 A 
HETATM   13  C   UNL     1     -39.658  50.022 -53.240  1.00  0.00     0.026 A 
HETATM   14  C   UNL     1     -39.596  50.563 -51.957  1.00  0.00     0.035 A 
HETATM   15 CL   UNL     1     -39.034  49.587 -50.652  1.00  0.00    -0.084 Cl
HETATM   16  C   UNL     1     -39.982  51.883 -51.706  1.00  0.00     0.040 A 
ENDROOT
BRANCH   1  17
HETATM   17  N   UNL     1     -42.361  57.651 -54.059  1.00  0.00    -0.175 NA
HETATM   18  C   UNL     1     -41.656  58.731 -53.998  1.00  0.00     0.150 C 
BRANCH  18  19
HETATM   19  C   UNL     1     -42.240  60.037 -54.377  1.00  0.00    -0.017 A 
HETATM   20  C   UNL     1     -42.441  60.367 -55.721  1.00  0.00     0.016 A 
HETATM   21  C   UNL     1     -42.990  61.606 -56.055  1.00  0.00     0.037 A 
HETATM   22  C   UNL     1     -43.338  62.500 -55.049  1.00  0.00     0.065 A 
HETATM   23  C   UNL     1     -43.143  62.180 -53.708  1.00  0.00     0.037 A 
HETATM   24  C   UNL     1     -42.588  60.943 -53.368  1.00  0.00     0.016 A 
BRANCH  22  25
HETATM   25  O   UNL     1     -43.874  63.696 -55.423  1.00  0.00    -0.361 OA
HETATM   26  H   UNL     1     -44.819  63.703 -55.202  1.00  0.00     0.217 HD
ENDBRANCH  22  25
ENDBRANCH  18  19
ENDBRANCH   1  17
TORSDOF 3
ENDMDL
MODEL 10
REMARK VINA RESULT:      -7.1     17.366     19.813
REMARK  3 active torsions:
REMARK  status: ('A' for Active; 'I' for Inactive)
REMARK    1  A    between atoms: C_2  and  C_3 
REMARK    2  A    between atoms: N_4  and  N_5 
REMARK    3  A    between atoms: C_23  and  O_24 
ROOT
HETATM    1  N   UNL     1     -34.048  39.796 -51.927  1.00  0.00    -0.189 N 
HETATM    2  C   UNL     1     -32.791  40.219 -51.456  1.00  0.00     0.298 A 
HETATM    3  O   UNL     1     -31.980  40.903 -52.075  1.00  0.00    -0.264 OA
HETATM    4  C   UNL     1     -32.544  39.761 -50.127  1.00  0.00     0.133 A 
HETATM    5  C   UNL     1     -33.410  38.984 -49.419  1.00  0.00     0.103 A 
HETATM    6  N   UNL     1     -34.626  38.538 -49.936  1.00  0.00    -0.239 NA
HETATM    7  C   UNL     1     -34.849  38.959 -51.150  1.00  0.00     0.239 A 
HETATM    8  N   UNL     1     -31.447  39.984 -49.342  1.00  0.00    -0.349 N 
HETATM    9  H   UNL     1     -30.639  40.526 -49.621  1.00  0.00     0.166 HD
HETATM   10  C   UNL     1     -31.610  39.349 -48.125  1.00  0.00     0.045 A 
HETATM   11  C   UNL     1     -32.858  38.709 -48.149  1.00  0.00     0.024 A 
HETATM   12  C   UNL     1     -30.755  39.290 -47.018  1.00  0.00     0.032 A 
HETATM   13  C   UNL     1     -31.190  38.560 -45.907  1.00  0.00     0.026 A 
HETATM   14  C   UNL     1     -32.428  37.918 -45.910  1.00  0.00     0.035 A 
HETATM   15 CL   UNL     1     -32.925  37.031 -44.518  1.00  0.00    -0.084 Cl
HETATM   16  C   UNL     1     -33.275  37.980 -47.020  1.00  0.00     0.040 A 
ENDROOT
BRANCH   1  17
HETATM   17  N   UNL     1     -34.355  40.164 -53.227  1.00  0.00    -0.175 NA
HETATM   18  C   UNL     1     -35.245  41.066 -53.479  1.00  0.00     0.150 C 
BRANCH  18  19
HETATM   19  C   UNL     1     -35.582  41.427 -54.874  1.00  0.00    -0.017 A 
HETATM   20  C   UNL     1     -34.584  41.519 -55.849  1.00  0.00     0.016 A 
HETATM   21  C   UNL     1     -34.925  41.864 -57.158  1.00  0.00     0.037 A 
HETATM   22  C   UNL     1     -36.254  42.109 -57.483  1.00  0.00     0.065 A 
HETATM   23  C   UNL     1     -37.255  42.020 -56.519  1.00  0.00     0.037 A 
HETATM   24  C   UNL     1     -36.918  41.680 -55.205  1.00  0.00     0.016 A 
BRANCH  22  25
HETATM   25  O   UNL     1     -36.539  42.440 -58.774  1.00  0.00    -0.361 OA
HETATM   26  H   UNL     1     -36.743  43.387 -58.821  1.00  0.00     0.217 HD
ENDBRANCH  22  25
ENDBRANCH  18  19
ENDBRANCH   1  17
TORSDOF 3
ENDMDL
