MODEL 1
REMARK VINA RESULT:      -7.3      0.000      0.000
REMARK  7 active torsions:
REMARK  status: ('A' for Active; 'I' for Inactive)
REMARK    1  A    between atoms: C_2  and  C_3 
REMARK    2  A    between atoms: C_3  and  N_4 
REMARK       I    between atoms: N_4  and  C_5 
REMARK    3  A    between atoms: C_5  and  C_6 
REMARK    4  A    between atoms: C_8  and  N_9 
REMARK       I    between atoms: N_9  and  C_10 
REMARK    5  A    between atoms: C_10  and  C_11 
REMARK    6  A    between atoms: C_13  and  O_14 
REMARK    7  A    between atoms: O_14  and  C_15 
ROOT
HETATM    1  N   UNL     1     -41.723  56.528 -53.904  1.00  0.00    -0.323 N 
HETATM    2  C   UNL     1     -43.003  56.826 -54.340  1.00  0.00     0.256 C 
HETATM    3  O   UNL     1     -44.039  56.535 -53.747  1.00  0.00    -0.267 OA
HETATM    4  H   UNL     1     -40.957  56.628 -54.554  1.00  0.00     0.169 HD
ENDROOT
BRANCH   1   5
HETATM    5  C   UNL     1     -41.377  55.991 -52.639  1.00  0.00     0.035 A 
HETATM    6  C   UNL     1     -41.075  54.643 -52.438  1.00  0.00     0.046 A 
HETATM    7  C   UNL     1     -40.715  54.167 -51.169  1.00  0.00     0.034 A 
HETATM    8  C   UNL     1     -40.712  55.040 -50.078  1.00  0.00     0.017 A 
HETATM    9  C   UNL     1     -41.041  56.383 -50.263  1.00  0.00     0.003 A 
HETATM   10  C   UNL     1     -41.367  56.856 -51.538  1.00  0.00     0.029 A 
BRANCH   7  11
HETATM   11  C   UNL     1     -40.358  52.736 -50.951  1.00  0.00     0.251 C 
HETATM   12  N   UNL     1     -39.956  52.035 -52.071  1.00  0.00    -0.357 N 
HETATM   13  H   UNL     1     -39.701  52.557 -52.901  1.00  0.00     0.162 HD
HETATM   14  O   UNL     1     -40.404  52.251 -49.827  1.00  0.00    -0.268 OA
BRANCH  12  15
HETATM   15  C   UNL     1     -39.515  50.659 -51.987  1.00  0.00     0.122 C 
BRANCH  15  16
HETATM   16  C   UNL     1     -39.556  49.966 -53.345  1.00  0.00     0.015 C 
HETATM   17  C   UNL     1     -40.304  50.775 -54.395  1.00  0.00     0.006 C 
ENDBRANCH  15  16
ENDBRANCH  12  15
ENDBRANCH   7  11
ENDBRANCH   1   5
BRANCH   2  18
HETATM   18  C   UNL     1     -43.137  57.541 -55.647  1.00  0.00     0.037 A 
HETATM   19  C   UNL     1     -44.002  57.143 -56.665  1.00  0.00     0.075 A 
HETATM   20  C   UNL     1     -43.967  57.852 -57.854  1.00  0.00     0.165 A 
HETATM   21  N   UNL     1     -43.161  58.905 -58.090  1.00  0.00    -0.237 NA
HETATM   22  C   UNL     1     -42.342  59.278 -57.089  1.00  0.00     0.120 A 
HETATM   23  C   UNL     1     -42.293  58.637 -55.867  1.00  0.00     0.036 A 
BRANCH  20  24
HETATM   24  O   UNL     1     -44.831  57.442 -58.853  1.00  0.00    -0.329 OA
BRANCH  24  25
HETATM   25  C   UNL     1     -44.211  56.780 -59.983  1.00  0.00     0.130 C 
HETATM   26  C   UNL     1     -45.031  55.702 -60.736  1.00  0.00     0.032 C 
HETATM   27  C   UNL     1     -44.344  54.636 -59.870  1.00  0.00     0.005 C 
HETATM   28  C   UNL     1     -43.219  55.651 -59.606  1.00  0.00     0.032 C 
ENDBRANCH  24  25
ENDBRANCH  20  24
ENDBRANCH   2  18
TORSDOF 7
ENDMDL
MODEL 2
REMARK VINA RESULT:      -7.3      1.986      9.090
REMARK  7 active torsions:
REMARK  status: ('A' for Active; 'I' for Inactive)
REMARK    1  A    between atoms: C_2  and  C_3 
REMARK    2  A    between atoms: C_3  and  N_4 
REMARK       I    between atoms: N_4  and  C_5 
REMARK    3  A    between atoms: C_5  and  C_6 
REMARK    4  A    between atoms: C_8  and  N_9 
REMARK       I    between atoms: N_9  and  C_10 
REMARK    5  A    between atoms: C_10  and  C_11 
REMARK    6  A    between atoms: C_13  and  O_14 
REMARK    7  A    between atoms: O_14  and  C_15 
ROOT
HETATM    1  N   UNL     1     -41.816  55.444 -55.724  1.00  0.00    -0.323 N 
HETATM    2  C   UNL     1     -42.407  54.705 -54.713  1.00  0.00     0.256 C 
HETATM    3  O   UNL     1     -43.586  54.783 -54.376  1.00  0.00    -0.267 OA
HETATM    4  H   UNL     1     -40.808  55.455 -55.786  1.00  0.00     0.169 HD
ENDROOT
BRANCH   1   5
HETATM    5  C   UNL     1     -42.489  56.284 -56.645  1.00  0.00     0.035 A 
HETATM    6  C   UNL     1     -43.211  55.799 -57.737  1.00  0.00     0.046 A 
HETATM    7  C   UNL     1     -43.879  56.675 -58.605  1.00  0.00     0.034 A 
HETATM    8  C   UNL     1     -43.776  58.054 -58.410  1.00  0.00     0.017 A 
HETATM    9  C   UNL     1     -43.032  58.550 -57.339  1.00  0.00     0.003 A 
HETATM   10  C   UNL     1     -42.396  57.669 -56.459  1.00  0.00     0.029 A 
BRANCH   7  11
HETATM   11  C   UNL     1     -44.680  56.164 -59.754  1.00  0.00     0.251 C 
HETATM   12  N   UNL     1     -46.052  56.263 -59.628  1.00  0.00    -0.357 N 
HETATM   13  H   UNL     1     -46.427  56.866 -58.906  1.00  0.00     0.162 HD
HETATM   14  O   UNL     1     -44.121  55.716 -60.748  1.00  0.00    -0.268 OA
BRANCH  12  15
HETATM   15  C   UNL     1     -46.942  55.870 -60.698  1.00  0.00     0.122 C 
BRANCH  15  16
HETATM   16  C   UNL     1     -47.715  57.059 -61.261  1.00  0.00     0.015 C 
HETATM   17  C   UNL     1     -48.464  56.718 -62.541  1.00  0.00     0.006 C 
ENDBRANCH  15  16
ENDBRANCH  12  15
ENDBRANCH   7  11
ENDBRANCH   1   5
BRANCH   2  18
HETATM   18  C   UNL     1     -41.537  53.752 -53.956  1.00  0.00     0.037 A 
HETATM   19  C   UNL     1     -41.028  54.008 -52.684  1.00  0.00     0.075 A 
HETATM   20  C   UNL     1     -40.172  53.070 -52.132  1.00  0.00     0.165 A 
HETATM   21  N   UNL     1     -39.805  51.924 -52.738  1.00  0.00    -0.237 NA
HETATM   22  C   UNL     1     -40.317  51.693 -53.961  1.00  0.00     0.120 A 
HETATM   23  C   UNL     1     -41.174  52.564 -54.603  1.00  0.00     0.036 A 
BRANCH  20  24
HETATM   24  O   UNL     1     -39.676  53.341 -50.870  1.00  0.00    -0.329 OA
BRANCH  24  25
HETATM   25  C   UNL     1     -40.625  53.208 -49.784  1.00  0.00     0.130 C 
HETATM   26  C   UNL     1     -41.799  54.217 -49.712  1.00  0.00     0.032 C 
HETATM   27  C   UNL     1     -40.960  55.056 -48.736  1.00  0.00     0.005 C 
HETATM   28  C   UNL     1     -40.143  53.789 -48.430  1.00  0.00     0.032 C 
ENDBRANCH  24  25
ENDBRANCH  20  24
ENDBRANCH   2  18
TORSDOF 7
ENDMDL
MODEL 3
REMARK VINA RESULT:      -7.3      2.181      3.122
REMARK  7 active torsions:
REMARK  status: ('A' for Active; 'I' for Inactive)
REMARK    1  A    between atoms: C_2  and  C_3 
REMARK    2  A    between atoms: C_3  and  N_4 
REMARK       I    between atoms: N_4  and  C_5 
REMARK    3  A    between atoms: C_5  and  C_6 
REMARK    4  A    between atoms: C_8  and  N_9 
REMARK       I    between atoms: N_9  and  C_10 
REMARK    5  A    between atoms: C_10  and  C_11 
REMARK    6  A    between atoms: C_13  and  O_14 
REMARK    7  A    between atoms: O_14  and  C_15 
ROOT
HETATM    1  N   UNL     1     -41.690  55.647 -55.784  1.00  0.00    -0.323 N 
HETATM    2  C   UNL     1     -42.818  56.203 -56.364  1.00  0.00     0.256 C 
HETATM    3  O   UNL     1     -43.824  56.560 -55.755  1.00  0.00    -0.267 OA
HETATM    4  H   UNL     1     -41.009  55.204 -56.384  1.00  0.00     0.169 HD
ENDROOT
BRANCH   1   5
HETATM    5  C   UNL     1     -41.431  55.544 -54.395  1.00  0.00     0.035 A 
HETATM    6  C   UNL     1     -41.044  54.354 -53.775  1.00  0.00     0.046 A 
HETATM    7  C   UNL     1     -40.777  54.313 -52.399  1.00  0.00     0.034 A 
HETATM    8  C   UNL     1     -40.953  55.462 -51.626  1.00  0.00     0.017 A 
HETATM    9  C   UNL     1     -41.367  56.649 -52.230  1.00  0.00     0.003 A 
HETATM   10  C   UNL     1     -41.600  56.690 -53.609  1.00  0.00     0.029 A 
BRANCH   7  11
HETATM   11  C   UNL     1     -40.331  53.054 -51.735  1.00  0.00     0.251 C 
HETATM   12  N   UNL     1     -39.966  52.022 -52.577  1.00  0.00    -0.357 N 
HETATM   13  H   UNL     1     -39.795  52.232 -53.552  1.00  0.00     0.162 HD
HETATM   14  O   UNL     1     -40.277  52.985 -50.513  1.00  0.00    -0.268 OA
BRANCH  12  15
HETATM   15  C   UNL     1     -39.449  50.772 -52.063  1.00  0.00     0.122 C 
BRANCH  15  16
HETATM   16  C   UNL     1     -39.732  49.608 -53.008  1.00  0.00     0.015 C 
HETATM   17  C   UNL     1     -39.842  50.047 -54.462  1.00  0.00     0.006 C 
ENDBRANCH  15  16
ENDBRANCH  12  15
ENDBRANCH   7  11
ENDBRANCH   1   5
BRANCH   2  18
HETATM   18  C   UNL     1     -42.822  56.363 -57.851  1.00  0.00     0.037 A 
HETATM   19  C   UNL     1     -42.190  57.408 -58.521  1.00  0.00     0.075 A 
HETATM   20  C   UNL     1     -42.340  57.476 -59.896  1.00  0.00     0.165 A 
HETATM   21  N   UNL     1     -43.048  56.595 -60.630  1.00  0.00    -0.237 NA
HETATM   22  C   UNL     1     -43.640  55.588 -59.963  1.00  0.00     0.120 A 
HETATM   23  C   UNL     1     -43.559  55.431 -58.593  1.00  0.00     0.036 A 
BRANCH  20  24
HETATM   24  O   UNL     1     -41.708  58.521 -60.544  1.00  0.00    -0.329 OA
BRANCH  24  25
HETATM   25  C   UNL     1     -42.528  59.689 -60.795  1.00  0.00     0.130 C 
HETATM   26  C   UNL     1     -41.985  60.765 -61.770  1.00  0.00     0.032 C 
HETATM   27  C   UNL     1     -41.450  61.534 -60.552  1.00  0.00     0.005 C 
HETATM   28  C   UNL     1     -42.467  60.771 -59.688  1.00  0.00     0.032 C 
ENDBRANCH  24  25
ENDBRANCH  20  24
ENDBRANCH   2  18
TORSDOF 7
ENDMDL
MODEL 4
REMARK VINA RESULT:      -7.1      1.494      8.011
REMARK  7 active torsions:
REMARK  status: ('A' for Active; 'I' for Inactive)
REMARK    1  A    between atoms: C_2  and  C_3 
REMARK    2  A    between atoms: C_3  and  N_4 
REMARK       I    between atoms: N_4  and  C_5 
REMARK    3  A    between atoms: C_5  and  C_6 
REMARK    4  A    between atoms: C_8  and  N_9 
REMARK       I    between atoms: N_9  and  C_10 
REMARK    5  A    between atoms: C_10  and  C_11 
REMARK    6  A    between atoms: C_13  and  O_14 
REMARK    7  A    between atoms: O_14  and  C_15 
ROOT
HETATM    1  N   UNL     1     -42.741  55.781 -53.335  1.00  0.00    -0.323 N 
HETATM    2  C   UNL     1     -41.624  56.094 -52.579  1.00  0.00     0.256 C 
HETATM    3  O   UNL     1     -41.033  57.172 -52.601  1.00  0.00    -0.267 OA
HETATM    4  H   UNL     1     -43.025  54.814 -53.397  1.00  0.00     0.169 HD
ENDROOT
BRANCH   1   5
HETATM    5  C   UNL     1     -43.489  56.684 -54.130  1.00  0.00     0.035 A 
HETATM    6  C   UNL     1     -43.441  56.695 -55.526  1.00  0.00     0.046 A 
HETATM    7  C   UNL     1     -44.222  57.595 -56.266  1.00  0.00     0.034 A 
HETATM    8  C   UNL     1     -45.016  58.532 -55.600  1.00  0.00     0.017 A 
HETATM    9  C   UNL     1     -45.048  58.548 -54.206  1.00  0.00     0.003 A 
HETATM   10  C   UNL     1     -44.292  57.626 -53.475  1.00  0.00     0.029 A 
BRANCH   7  11
HETATM   11  C   UNL     1     -44.202  57.591 -57.757  1.00  0.00     0.251 C 
HETATM   12  N   UNL     1     -45.223  56.896 -58.374  1.00  0.00    -0.357 N 
HETATM   13  H   UNL     1     -46.032  56.637 -57.823  1.00  0.00     0.162 HD
HETATM   14  O   UNL     1     -43.333  58.203 -58.366  1.00  0.00    -0.268 OA
BRANCH  12  15
HETATM   15  C   UNL     1     -45.361  56.872 -59.814  1.00  0.00     0.122 C 
BRANCH  15  16
HETATM   16  C   UNL     1     -45.512  55.451 -60.347  1.00  0.00     0.015 C 
HETATM   17  C   UNL     1     -44.488  54.492 -59.757  1.00  0.00     0.006 C 
ENDBRANCH  15  16
ENDBRANCH  12  15
ENDBRANCH   7  11
ENDBRANCH   1   5
BRANCH   2  18
HETATM   18  C   UNL     1     -41.079  55.030 -51.681  1.00  0.00     0.037 A 
HETATM   19  C   UNL     1     -40.970  53.688 -52.042  1.00  0.00     0.075 A 
HETATM   20  C   UNL     1     -40.520  52.797 -51.083  1.00  0.00     0.165 A 
HETATM   21  N   UNL     1     -40.172  53.140 -49.828  1.00  0.00    -0.237 NA
HETATM   22  C   UNL     1     -40.274  54.442 -49.505  1.00  0.00     0.120 A 
HETATM   23  C   UNL     1     -40.717  55.411 -50.382  1.00  0.00     0.036 A 
BRANCH  20  24
HETATM   24  O   UNL     1     -40.420  51.470 -51.460  1.00  0.00    -0.329 OA
BRANCH  24  25
HETATM   25  C   UNL     1     -39.458  51.188 -52.506  1.00  0.00     0.130 C 
HETATM   26  C   UNL     1     -39.825  51.581 -53.959  1.00  0.00     0.032 C 
HETATM   27  C   UNL     1     -40.323  50.143 -54.175  1.00  0.00     0.005 C 
HETATM   28  C   UNL     1     -39.443  49.716 -52.989  1.00  0.00     0.032 C 
ENDBRANCH  24  25
ENDBRANCH  20  24
ENDBRANCH   2  18
TORSDOF 7
ENDMDL
MODEL 5
REMARK VINA RESULT:      -7.1      2.464      9.113
REMARK  7 active torsions:
REMARK  status: ('A' for Active; 'I' for Inactive)
REMARK    1  A    between atoms: C_2  and  C_3 
REMARK    2  A    between atoms: C_3  and  N_4 
REMARK       I    between atoms: N_4  and  C_5 
REMARK    3  A    between atoms: C_5  and  C_6 
REMARK    4  A    between atoms: C_8  and  N_9 
REMARK       I    between atoms: N_9  and  C_10 
REMARK    5  A    between atoms: C_10  and  C_11 
REMARK    6  A    between atoms: C_13  and  O_14 
REMARK    7  A    between atoms: O_14  and  C_15 
ROOT
HETATM    1  N   UNL     1     -42.284  56.024 -57.073  1.00  0.00    -0.323 N 
HETATM    2  C   UNL     1     -42.641  56.276 -55.759  1.00  0.00     0.256 C 
HETATM    3  O   UNL     1     -43.400  57.170 -55.391  1.00  0.00    -0.267 OA
HETATM    4  H   UNL     1     -41.505  55.405 -57.250  1.00  0.00     0.169 HD
ENDROOT
BRANCH   1   5
HETATM    5  C   UNL     1     -42.847  56.632 -58.222  1.00  0.00     0.035 A 
HETATM    6  C   UNL     1     -43.895  56.067 -58.951  1.00  0.00     0.046 A 
HETATM    7  C   UNL     1     -44.432  56.724 -60.068  1.00  0.00     0.034 A 
HETATM    8  C   UNL     1     -43.875  57.933 -60.493  1.00  0.00     0.017 A 
HETATM    9  C   UNL     1     -42.808  58.491 -59.788  1.00  0.00     0.003 A 
HETATM   10  C   UNL     1     -42.300  57.846 -58.656  1.00  0.00     0.029 A 
BRANCH   7  11
HETATM   11  C   UNL     1     -45.573  56.144 -60.832  1.00  0.00     0.251 C 
HETATM   12  N   UNL     1     -46.633  56.995 -61.077  1.00  0.00    -0.357 N 
HETATM   13  H   UNL     1     -46.493  57.989 -60.945  1.00  0.00     0.162 HD
HETATM   14  O   UNL     1     -45.527  54.986 -61.229  1.00  0.00    -0.268 OA
BRANCH  12  15
HETATM   15  C   UNL     1     -47.771  56.580 -61.867  1.00  0.00     0.122 C 
BRANCH  15  16
HETATM   16  C   UNL     1     -48.751  57.726 -62.098  1.00  0.00     0.015 C 
HETATM   17  C   UNL     1     -48.207  59.067 -61.626  1.00  0.00     0.006 C 
ENDBRANCH  15  16
ENDBRANCH  12  15
ENDBRANCH   7  11
ENDBRANCH   1   5
BRANCH   2  18
HETATM   18  C   UNL     1     -42.040  55.406 -54.702  1.00  0.00     0.037 A 
HETATM   19  C   UNL     1     -41.848  54.033 -54.842  1.00  0.00     0.075 A 
HETATM   20  C   UNL     1     -41.353  53.336 -53.752  1.00  0.00     0.165 A 
HETATM   21  N   UNL     1     -41.036  53.898 -52.570  1.00  0.00    -0.237 NA
HETATM   22  C   UNL     1     -41.219  55.227 -52.461  1.00  0.00     0.120 A 
HETATM   23  C   UNL     1     -41.712  56.013 -53.482  1.00  0.00     0.036 A 
BRANCH  20  24
HETATM   24  O   UNL     1     -41.170  51.975 -53.910  1.00  0.00    -0.329 OA
BRANCH  24  25
HETATM   25  C   UNL     1     -39.808  51.505 -53.760  1.00  0.00     0.130 C 
HETATM   26  C   UNL     1     -39.461  50.092 -54.294  1.00  0.00     0.032 C 
HETATM   27  C   UNL     1     -39.691  49.548 -52.876  1.00  0.00     0.005 C 
HETATM   28  C   UNL     1     -39.459  50.973 -52.347  1.00  0.00     0.032 C 
ENDBRANCH  24  25
ENDBRANCH  20  24
ENDBRANCH   2  18
TORSDOF 7
ENDMDL
MODEL 6
REMARK VINA RESULT:      -6.9      1.531      2.031
REMARK  7 active torsions:
REMARK  status: ('A' for Active; 'I' for Inactive)
REMARK    1  A    between atoms: C_2  and  C_3 
REMARK    2  A    between atoms: C_3  and  N_4 
REMARK       I    between atoms: N_4  and  C_5 
REMARK    3  A    between atoms: C_5  and  C_6 
REMARK    4  A    between atoms: C_8  and  N_9 
REMARK       I    between atoms: N_9  and  C_10 
REMARK    5  A    between atoms: C_10  and  C_11 
REMARK    6  A    between atoms: C_13  and  O_14 
REMARK    7  A    between atoms: O_14  and  C_15 
ROOT
HETATM    1  N   UNL     1     -42.717  57.608 -55.033  1.00  0.00    -0.323 N 
HETATM    2  C   UNL     1     -42.119  58.741 -55.558  1.00  0.00     0.256 C 
HETATM    3  O   UNL     1     -41.392  59.512 -54.935  1.00  0.00    -0.267 OA
HETATM    4  H   UNL     1     -43.450  57.160 -55.563  1.00  0.00     0.169 HD
ENDROOT
BRANCH   1   5
HETATM    5  C   UNL     1     -42.469  57.051 -53.754  1.00  0.00     0.035 A 
HETATM    6  C   UNL     1     -41.774  55.855 -53.561  1.00  0.00     0.046 A 
HETATM    7  C   UNL     1     -41.536  55.361 -52.271  1.00  0.00     0.034 A 
HETATM    8  C   UNL     1     -42.048  56.042 -51.164  1.00  0.00     0.017 A 
HETATM    9  C   UNL     1     -42.769  57.222 -51.347  1.00  0.00     0.003 A 
HETATM   10  C   UNL     1     -42.974  57.726 -52.635  1.00  0.00     0.029 A 
BRANCH   7  11
HETATM   11  C   UNL     1     -40.766  54.102 -52.054  1.00  0.00     0.251 C 
HETATM   12  N   UNL     1     -40.753  53.212 -53.110  1.00  0.00    -0.357 N 
HETATM   13  H   UNL     1     -41.047  53.540 -54.021  1.00  0.00     0.162 HD
HETATM   14  O   UNL     1     -40.169  53.916 -51.001  1.00  0.00    -0.268 OA
BRANCH  12  15
HETATM   15  C   UNL     1     -39.986  51.986 -53.058  1.00  0.00     0.122 C 
BRANCH  15  16
HETATM   16  C   UNL     1     -40.152  51.157 -54.328  1.00  0.00     0.015 C 
HETATM   17  C   UNL     1     -39.492  49.790 -54.226  1.00  0.00     0.006 C 
ENDBRANCH  15  16
ENDBRANCH  12  15
ENDBRANCH   7  11
ENDBRANCH   1   5
BRANCH   2  18
HETATM   18  C   UNL     1     -42.397  59.066 -56.991  1.00  0.00     0.037 A 
HETATM   19  C   UNL     1     -43.030  58.196 -57.877  1.00  0.00     0.075 A 
HETATM   20  C   UNL     1     -43.153  58.596 -59.197  1.00  0.00     0.165 A 
HETATM   21  N   UNL     1     -42.710  59.773 -59.680  1.00  0.00    -0.237 NA
HETATM   22  C   UNL     1     -42.112  60.602 -58.805  1.00  0.00     0.120 A 
HETATM   23  C   UNL     1     -41.932  60.298 -57.470  1.00  0.00     0.036 A 
BRANCH  20  24
HETATM   24  O   UNL     1     -43.783  57.720 -60.061  1.00  0.00    -0.329 OA
BRANCH  24  25
HETATM   25  C   UNL     1     -44.429  56.583 -59.437  1.00  0.00     0.130 C 
HETATM   26  C   UNL     1     -43.915  55.165 -59.794  1.00  0.00     0.032 C 
HETATM   27  C   UNL     1     -45.024  55.079 -60.854  1.00  0.00     0.005 C 
HETATM   28  C   UNL     1     -45.778  56.173 -60.080  1.00  0.00     0.032 C 
ENDBRANCH  24  25
ENDBRANCH  20  24
ENDBRANCH   2  18
TORSDOF 7
ENDMDL
MODEL 7
REMARK VINA RESULT:      -6.8      2.544      9.041
REMARK  7 active torsions:
REMARK  status: ('A' for Active; 'I' for Inactive)
REMARK    1  A    between atoms: C_2  and  C_3 
REMARK    2  A    between atoms: C_3  and  N_4 
REMARK       I    between atoms: N_4  and  C_5 
REMARK    3  A    between atoms: C_5  and  C_6 
REMARK    4  A    between atoms: C_8  and  N_9 
REMARK       I    between atoms: N_9  and  C_10 
REMARK    5  A    between atoms: C_10  and  C_11 
REMARK    6  A    between atoms: C_13  and  O_14 
REMARK    7  A    between atoms: O_14  and  C_15 
ROOT
HETATM    1  N   UNL     1     -42.237  55.912 -57.054  1.00  0.00    -0.323 N 
HETATM    2  C   UNL     1     -42.098  56.408 -55.769  1.00  0.00     0.256 C 
HETATM    3  O   UNL     1     -42.191  57.592 -55.453  1.00  0.00    -0.267 OA
HETATM    4  H   UNL     1     -41.944  54.963 -57.239  1.00  0.00     0.169 HD
ENDROOT
BRANCH   1   5
HETATM    5  C   UNL     1     -42.665  56.644 -58.189  1.00  0.00     0.035 A 
HETATM    6  C   UNL     1     -42.318  57.978 -58.414  1.00  0.00     0.046 A 
HETATM    7  C   UNL     1     -42.750  58.649 -59.567  1.00  0.00     0.034 A 
HETATM    8  C   UNL     1     -43.585  57.996 -60.476  1.00  0.00     0.017 A 
HETATM    9  C   UNL     1     -43.961  56.672 -60.246  1.00  0.00     0.003 A 
HETATM   10  C   UNL     1     -43.500  55.999 -59.110  1.00  0.00     0.029 A 
BRANCH   7  11
HETATM   11  C   UNL     1     -42.357  60.063 -59.831  1.00  0.00     0.251 C 
HETATM   12  N   UNL     1     -42.111  60.842 -58.717  1.00  0.00    -0.357 N 
HETATM   13  H   UNL     1     -41.979  60.380 -57.826  1.00  0.00     0.162 HD
HETATM   14  O   UNL     1     -42.241  60.468 -60.982  1.00  0.00    -0.268 OA
BRANCH  12  15
HETATM   15  C   UNL     1     -41.654  62.210 -58.835  1.00  0.00     0.122 C 
BRANCH  15  16
HETATM   16  C   UNL     1     -40.135  62.312 -58.736  1.00  0.00     0.015 C 
HETATM   17  C   UNL     1     -39.515  63.008 -59.939  1.00  0.00     0.006 C 
ENDBRANCH  15  16
ENDBRANCH  12  15
ENDBRANCH   7  11
ENDBRANCH   1   5
BRANCH   2  18
HETATM   18  C   UNL     1     -41.792  55.428 -54.681  1.00  0.00     0.037 A 
HETATM   19  C   UNL     1     -41.578  54.068 -54.897  1.00  0.00     0.075 A 
HETATM   20  C   UNL     1     -41.380  53.262 -53.789  1.00  0.00     0.165 A 
HETATM   21  N   UNL     1     -41.372  53.706 -52.517  1.00  0.00    -0.237 NA
HETATM   22  C   UNL     1     -41.570  55.024 -52.332  1.00  0.00     0.120 A 
HETATM   23  C   UNL     1     -41.782  55.913 -53.367  1.00  0.00     0.036 A 
BRANCH  20  24
HETATM   24  O   UNL     1     -41.170  51.916 -54.023  1.00  0.00    -0.329 OA
BRANCH  24  25
HETATM   25  C   UNL     1     -39.803  51.461 -53.877  1.00  0.00     0.130 C 
HETATM   26  C   UNL     1     -39.453  50.032 -54.365  1.00  0.00     0.032 C 
HETATM   27  C   UNL     1     -39.659  49.538 -52.925  1.00  0.00     0.005 C 
HETATM   28  C   UNL     1     -39.429  50.983 -52.452  1.00  0.00     0.032 C 
ENDBRANCH  24  25
ENDBRANCH  20  24
ENDBRANCH   2  18
TORSDOF 7
ENDMDL
MODEL 8
REMARK VINA RESULT:      -6.6     15.227     18.368
REMARK  7 active torsions:
REMARK  status: ('A' for Active; 'I' for Inactive)
REMARK    1  A    between atoms: C_2  and  C_3 
REMARK    2  A    between atoms: C_3  and  N_4 
REMARK       I    between atoms: N_4  and  C_5 
REMARK    3  A    between atoms: C_5  and  C_6 
REMARK    4  A    between atoms: C_8  and  N_9 
REMARK       I    between atoms: N_9  and  C_10 
REMARK    5  A    between atoms: C_10  and  C_11 
REMARK    6  A    between atoms: C_13  and  O_14 
REMARK    7  A    between atoms: O_14  and  C_15 
ROOT
HETATM    1  N   UNL     1     -36.782  40.767 -56.229  1.00  0.00    -0.323 N 
HETATM    2  C   UNL     1     -37.673  40.956 -55.186  1.00  0.00     0.256 C 
HETATM    3  O   UNL     1     -38.812  41.402 -55.299  1.00  0.00    -0.267 OA
HETATM    4  H   UNL     1     -35.813  40.591 -56.009  1.00  0.00     0.169 HD
ENDROOT
BRANCH   1   5
HETATM    5  C   UNL     1     -37.075  40.895 -57.609  1.00  0.00     0.035 A 
HETATM    6  C   UNL     1     -37.502  39.828 -58.403  1.00  0.00     0.046 A 
HETATM    7  C   UNL     1     -37.802  40.014 -59.760  1.00  0.00     0.034 A 
HETATM    8  C   UNL     1     -37.619  41.271 -60.342  1.00  0.00     0.017 A 
HETATM    9  C   UNL     1     -37.165  42.337 -59.565  1.00  0.00     0.003 A 
HETATM   10  C   UNL     1     -36.899  42.150 -58.205  1.00  0.00     0.029 A 
BRANCH   7  11
HETATM   11  C   UNL     1     -38.290  38.888 -60.606  1.00  0.00     0.251 C 
HETATM   12  N   UNL     1     -39.411  38.225 -60.145  1.00  0.00    -0.357 N 
HETATM   13  H   UNL     1     -39.965  38.663 -59.419  1.00  0.00     0.162 HD
HETATM   14  O   UNL     1     -37.724  38.613 -61.656  1.00  0.00    -0.268 OA
BRANCH  12  15
HETATM   15  C   UNL     1     -40.028  37.160 -60.905  1.00  0.00     0.122 C 
BRANCH  15  16
HETATM   16  C   UNL     1     -41.358  37.594 -61.514  1.00  0.00     0.015 C 
HETATM   17  C   UNL     1     -41.232  37.981 -62.981  1.00  0.00     0.006 C 
ENDBRANCH  15  16
ENDBRANCH  12  15
ENDBRANCH   7  11
ENDBRANCH   1   5
BRANCH   2  18
HETATM   18  C   UNL     1     -37.204  40.610 -53.808  1.00  0.00     0.037 A 
HETATM   19  C   UNL     1     -35.896  40.243 -53.502  1.00  0.00     0.075 A 
HETATM   20  C   UNL     1     -35.619  39.873 -52.196  1.00  0.00     0.165 A 
HETATM   21  N   UNL     1     -36.527  39.853 -51.202  1.00  0.00    -0.237 NA
HETATM   22  C   UNL     1     -37.782  40.221 -51.518  1.00  0.00     0.120 A 
HETATM   23  C   UNL     1     -38.165  40.602 -52.789  1.00  0.00     0.036 A 
BRANCH  20  24
HETATM   24  O   UNL     1     -34.315  39.511 -51.911  1.00  0.00    -0.329 OA
BRANCH  24  25
HETATM   25  C   UNL     1     -33.483  40.558 -51.353  1.00  0.00     0.130 C 
HETATM   26  C   UNL     1     -32.001  40.627 -51.798  1.00  0.00     0.032 C 
HETATM   27  C   UNL     1     -31.633  39.814 -50.547  1.00  0.00     0.005 C 
HETATM   28  C   UNL     1     -32.960  40.273 -49.922  1.00  0.00     0.032 C 
ENDBRANCH  24  25
ENDBRANCH  20  24
ENDBRANCH   2  18
TORSDOF 7
ENDMDL
MODEL 9
REMARK VINA RESULT:      -6.6      2.669      4.119
REMARK  7 active torsions:
REMARK  status: ('A' for Active; 'I' for Inactive)
REMARK    1  A    between atoms: C_2  and  C_3 
REMARK    2  A    between atoms: C_3  and  N_4 
REMARK       I    between atoms: N_4  and  C_5 
REMARK    3  A    between atoms: C_5  and  C_6 
REMARK    4  A    between atoms: C_8  and  N_9 
REMARK       I    between atoms: N_9  and  C_10 
REMARK    5  A    between atoms: C_10  and  C_11 
REMARK    6  A    between atoms: C_13  and  O_14 
REMARK    7  A    between atoms: O_14  and  C_15 
ROOT
HETATM    1  N   UNL     1     -43.862  56.262 -56.756  1.00  0.00    -0.323 N 
HETATM    2  C   UNL     1     -43.449  56.609 -58.032  1.00  0.00     0.256 C 
HETATM    3  O   UNL     1     -42.382  57.153 -58.308  1.00  0.00    -0.267 OA
HETATM    4  H   UNL     1     -44.830  56.010 -56.615  1.00  0.00     0.169 HD
ENDROOT
BRANCH   1   5
HETATM    5  C   UNL     1     -43.074  56.318 -55.581  1.00  0.00     0.035 A 
HETATM    6  C   UNL     1     -42.812  55.202 -54.782  1.00  0.00     0.046 A 
HETATM    7  C   UNL     1     -42.004  55.308 -53.641  1.00  0.00     0.034 A 
HETATM    8  C   UNL     1     -41.500  56.555 -53.263  1.00  0.00     0.017 A 
HETATM    9  C   UNL     1     -41.781  57.681 -54.038  1.00  0.00     0.003 A 
HETATM   10  C   UNL     1     -42.560  57.561 -55.193  1.00  0.00     0.029 A 
BRANCH   7  11
HETATM   11  C   UNL     1     -41.692  54.116 -52.801  1.00  0.00     0.251 C 
HETATM   12  N   UNL     1     -40.455  53.537 -53.009  1.00  0.00    -0.357 N 
HETATM   13  H   UNL     1     -39.757  54.061 -53.520  1.00  0.00     0.162 HD
HETATM   14  O   UNL     1     -42.496  53.720 -51.966  1.00  0.00    -0.268 OA
BRANCH  12  15
HETATM   15  C   UNL     1     -39.999  52.418 -52.212  1.00  0.00     0.122 C 
BRANCH  15  16
HETATM   16  C   UNL     1     -39.425  51.301 -53.077  1.00  0.00     0.015 C 
HETATM   17  C   UNL     1     -40.255  51.042 -54.327  1.00  0.00     0.006 C 
ENDBRANCH  15  16
ENDBRANCH  12  15
ENDBRANCH   7  11
ENDBRANCH   1   5
BRANCH   2  18
HETATM   18  C   UNL     1     -44.385  56.320 -59.163  1.00  0.00     0.037 A 
HETATM   19  C   UNL     1     -45.564  57.025 -59.395  1.00  0.00     0.075 A 
HETATM   20  C   UNL     1     -46.376  56.600 -60.433  1.00  0.00     0.165 A 
HETATM   21  N   UNL     1     -46.098  55.557 -61.238  1.00  0.00    -0.237 NA
HETATM   22  C   UNL     1     -44.949  54.898 -61.003  1.00  0.00     0.120 A 
HETATM   23  C   UNL     1     -44.072  55.235 -59.991  1.00  0.00     0.036 A 
BRANCH  20  24
HETATM   24  O   UNL     1     -47.542  57.311 -60.647  1.00  0.00    -0.329 OA
BRANCH  24  25
HETATM   25  C   UNL     1     -47.784  57.717 -62.016  1.00  0.00     0.130 C 
HETATM   26  C   UNL     1     -48.634  58.990 -62.260  1.00  0.00     0.032 C 
HETATM   27  C   UNL     1     -49.864  58.084 -62.424  1.00  0.00     0.005 C 
HETATM   28  C   UNL     1     -48.904  56.925 -62.738  1.00  0.00     0.032 C 
ENDBRANCH  24  25
ENDBRANCH  20  24
ENDBRANCH   2  18
TORSDOF 7
ENDMDL
MODEL 10
REMARK VINA RESULT:      -6.5      2.465      9.481
REMARK  7 active torsions:
REMARK  status: ('A' for Active; 'I' for Inactive)
REMARK    1  A    between atoms: C_2  and  C_3 
REMARK    2  A    between atoms: C_3  and  N_4 
REMARK       I    between atoms: N_4  and  C_5 
REMARK    3  A    between atoms: C_5  and  C_6 
REMARK    4  A    between atoms: C_8  and  N_9 
REMARK       I    between atoms: N_9  and  C_10 
REMARK    5  A    between atoms: C_10  and  C_11 
REMARK    6  A    between atoms: C_13  and  O_14 
REMARK    7  A    between atoms: O_14  and  C_15 
ROOT
HETATM    1  N   UNL     1     -42.046  55.718 -56.630  1.00  0.00    -0.323 N 
HETATM    2  C   UNL     1     -42.635  55.406 -55.416  1.00  0.00     0.256 C 
HETATM    3  O   UNL     1     -43.722  55.826 -55.027  1.00  0.00    -0.267 OA
HETATM    4  H   UNL     1     -41.072  55.489 -56.766  1.00  0.00     0.169 HD
ENDROOT
BRANCH   1   5
HETATM    5  C   UNL     1     -42.654  56.432 -57.692  1.00  0.00     0.035 A 
HETATM    6  C   UNL     1     -42.671  57.826 -57.765  1.00  0.00     0.046 A 
HETATM    7  C   UNL     1     -43.266  58.482 -58.852  1.00  0.00     0.034 A 
HETATM    8  C   UNL     1     -43.901  57.736 -59.848  1.00  0.00     0.017 A 
HETATM    9  C   UNL     1     -43.915  56.343 -59.769  1.00  0.00     0.003 A 
HETATM   10  C   UNL     1     -43.291  55.695 -58.698  1.00  0.00     0.029 A 
BRANCH   7  11
HETATM   11  C   UNL     1     -43.260  59.970 -58.956  1.00  0.00     0.251 C 
HETATM   12  N   UNL     1     -42.301  60.515 -59.787  1.00  0.00    -0.357 N 
HETATM   13  H   UNL     1     -41.827  59.905 -60.442  1.00  0.00     0.162 HD
HETATM   14  O   UNL     1     -44.089  60.636 -58.348  1.00  0.00    -0.268 OA
BRANCH  12  15
HETATM   15  C   UNL     1     -42.230  61.939 -60.032  1.00  0.00     0.122 C 
BRANCH  15  16
HETATM   16  C   UNL     1     -41.736  62.250 -61.441  1.00  0.00     0.015 C 
HETATM   17  C   UNL     1     -40.243  62.543 -61.488  1.00  0.00     0.006 C 
ENDBRANCH  15  16
ENDBRANCH  12  15
ENDBRANCH   7  11
ENDBRANCH   1   5
BRANCH   2  18
HETATM   18  C   UNL     1     -41.878  54.502 -54.494  1.00  0.00     0.037 A 
HETATM   19  C   UNL     1     -42.052  54.479 -53.112  1.00  0.00     0.075 A 
HETATM   20  C   UNL     1     -41.229  53.648 -52.372  1.00  0.00     0.165 A 
HETATM   21  N   UNL     1     -40.277  52.853 -52.899  1.00  0.00    -0.237 NA
HETATM   22  C   UNL     1     -40.134  52.883 -54.237  1.00  0.00     0.120 A 
HETATM   23  C   UNL     1     -40.898  53.680 -55.066  1.00  0.00     0.036 A 
BRANCH  20  24
HETATM   24  O   UNL     1     -41.415  53.639 -51.002  1.00  0.00    -0.329 OA
BRANCH  24  25
HETATM   25  C   UNL     1     -40.661  54.630 -50.262  1.00  0.00     0.130 C 
HETATM   26  C   UNL     1     -39.439  54.151 -49.439  1.00  0.00     0.032 C 
HETATM   27  C   UNL     1     -40.353  54.082 -48.206  1.00  0.00     0.005 C 
HETATM   28  C   UNL     1     -41.301  55.060 -48.918  1.00  0.00     0.032 C 
ENDBRANCH  24  25
ENDBRANCH  20  24
ENDBRANCH   2  18
TORSDOF 7
ENDMDL
