MODEL 1
REMARK VINA RESULT:      -8.3      0.000      0.000
REMARK  2 active torsions:
REMARK  status: ('A' for Active; 'I' for Inactive)
REMARK    1  A    between atoms: C_7  and  C_8 
REMARK    2  A    between atoms: C_8  and  O_9 
ROOT
HETATM    1  C   UNL     1     -42.119  55.650 -50.823  1.00  0.00     0.199 A 
HETATM    2  C   UNL     1     -43.649  55.295 -50.902  1.00  0.00     0.266 A 
HETATM    3  O   UNL     1     -44.309  54.575 -50.168  1.00  0.00    -0.269 OA
HETATM    4  N   UNL     1     -44.183  56.018 -51.972  1.00  0.00    -0.323 N 
HETATM    5  C   UNL     1     -43.209  56.760 -52.622  1.00  0.00     0.045 A 
HETATM    6  C   UNL     1     -41.966  56.576 -52.012  1.00  0.00     0.017 A 
HETATM    7  C   UNL     1     -43.384  57.578 -53.718  1.00  0.00     0.030 A 
HETATM    8  C   UNL     1     -42.259  58.243 -54.210  1.00  0.00     0.002 A 
HETATM    9  C   UNL     1     -41.001  58.077 -53.601  1.00  0.00     0.001 A 
HETATM   10  C   UNL     1     -40.847  57.243 -52.489  1.00  0.00     0.013 A 
HETATM   11  H   UNL     1     -45.159  55.970 -52.224  1.00  0.00     0.169 HD
ENDROOT
BRANCH   1  12
HETATM   12  C   UNL     1     -41.225  54.446 -51.050  1.00  0.00     0.025 A 
HETATM   13  C   UNL     1     -40.338  53.845 -50.150  1.00  0.00     0.016 A 
HETATM   14  C   UNL     1     -39.991  54.155 -48.736  1.00  0.00     0.069 C 
HETATM   15  N   UNL     1     -39.730  52.794 -50.787  1.00  0.00    -0.359 N 
HETATM   16  H   UNL     1     -39.038  52.185 -50.373  1.00  0.00     0.166 HD
HETATM   17  C   UNL     1     -40.166  52.684 -52.080  1.00  0.00     0.043 A 
HETATM   18  C   UNL     1     -41.099  53.700 -52.284  1.00  0.00     0.003 A 
HETATM   19  C   UNL     1     -39.795  51.769 -53.074  1.00  0.00     0.030 A 
HETATM   20  C   UNL     1     -41.687  53.793 -53.567  1.00  0.00     0.014 A 
HETATM   21  C   UNL     1     -41.330  52.889 -54.574  1.00  0.00     0.001 A 
HETATM   22  C   UNL     1     -40.395  51.890 -54.328  1.00  0.00     0.002 A 
ENDBRANCH   1  12
BRANCH   1  23
HETATM   23  O   UNL     1     -41.825  56.392 -49.643  1.00  0.00    -0.371 OA
HETATM   24  H   UNL     1     -40.858  56.445 -49.580  1.00  0.00     0.212 HD
ENDBRANCH   1  23
TORSDOF 2
ENDMDL
MODEL 2
REMARK VINA RESULT:      -8.2      1.648      2.536
REMARK  2 active torsions:
REMARK  status: ('A' for Active; 'I' for Inactive)
REMARK    1  A    between atoms: C_7  and  C_8 
REMARK    2  A    between atoms: C_8  and  O_9 
ROOT
HETATM    1  C   UNL     1     -42.304  55.344 -51.198  1.00  0.00     0.199 A 
HETATM    2  C   UNL     1     -43.795  55.259 -50.706  1.00  0.00     0.266 A 
HETATM    3  O   UNL     1     -44.404  54.295 -50.266  1.00  0.00    -0.269 OA
HETATM    4  N   UNL     1     -44.333  56.545 -50.801  1.00  0.00    -0.323 N 
HETATM    5  C   UNL     1     -43.416  57.443 -51.322  1.00  0.00     0.045 A 
HETATM    6  C   UNL     1     -42.205  56.802 -51.598  1.00  0.00     0.017 A 
HETATM    7  C   UNL     1     -43.613  58.787 -51.556  1.00  0.00     0.030 A 
HETATM    8  C   UNL     1     -42.541  59.512 -52.083  1.00  0.00     0.002 A 
HETATM    9  C   UNL     1     -41.312  58.884 -52.357  1.00  0.00     0.001 A 
HETATM   10  C   UNL     1     -41.134  57.519 -52.110  1.00  0.00     0.013 A 
HETATM   11  H   UNL     1     -45.282  56.756 -50.529  1.00  0.00     0.169 HD
ENDROOT
BRANCH   1  12
HETATM   12  C   UNL     1     -42.046  54.503 -52.433  1.00  0.00     0.025 A 
HETATM   13  C   UNL     1     -42.673  54.584 -53.681  1.00  0.00     0.016 A 
HETATM   14  C   UNL     1     -43.743  55.478 -54.203  1.00  0.00     0.069 C 
HETATM   15  N   UNL     1     -42.133  53.620 -54.494  1.00  0.00    -0.359 N 
HETATM   16  H   UNL     1     -42.404  53.450 -55.453  1.00  0.00     0.166 HD
HETATM   17  C   UNL     1     -41.183  52.892 -53.830  1.00  0.00     0.043 A 
HETATM   18  C   UNL     1     -41.101  53.411 -52.538  1.00  0.00     0.003 A 
HETATM   19  C   UNL     1     -40.406  51.817 -54.278  1.00  0.00     0.030 A 
HETATM   20  C   UNL     1     -40.181  52.803 -51.653  1.00  0.00     0.014 A 
HETATM   21  C   UNL     1     -39.395  51.727 -52.080  1.00  0.00     0.001 A 
HETATM   22  C   UNL     1     -39.508  51.241 -53.378  1.00  0.00     0.002 A 
ENDBRANCH   1  12
BRANCH   1  23
HETATM   23  O   UNL     1     -41.396  55.115 -50.125  1.00  0.00    -0.371 OA
HETATM   24  H   UNL     1     -40.501  55.195 -50.495  1.00  0.00     0.212 HD
ENDBRANCH   1  23
TORSDOF 2
ENDMDL
MODEL 3
REMARK VINA RESULT:      -7.6      2.560      3.458
REMARK  2 active torsions:
REMARK  status: ('A' for Active; 'I' for Inactive)
REMARK    1  A    between atoms: C_7  and  C_8 
REMARK    2  A    between atoms: C_8  and  O_9 
ROOT
HETATM    1  C   UNL     1     -41.757  57.701 -53.149  1.00  0.00     0.199 A 
HETATM    2  C   UNL     1     -40.729  58.824 -52.755  1.00  0.00     0.266 A 
HETATM    3  O   UNL     1     -39.567  58.958 -53.107  1.00  0.00    -0.269 OA
HETATM    4  N   UNL     1     -41.406  59.732 -51.936  1.00  0.00    -0.323 N 
HETATM    5  C   UNL     1     -42.715  59.336 -51.711  1.00  0.00     0.045 A 
HETATM    6  C   UNL     1     -42.985  58.138 -52.378  1.00  0.00     0.017 A 
HETATM    7  C   UNL     1     -43.659  59.989 -50.947  1.00  0.00     0.030 A 
HETATM    8  C   UNL     1     -44.928  59.413 -50.863  1.00  0.00     0.002 A 
HETATM    9  C   UNL     1     -45.221  58.212 -51.536  1.00  0.00     0.001 A 
HETATM   10  C   UNL     1     -44.248  57.567 -52.306  1.00  0.00     0.013 A 
HETATM   11  H   UNL     1     -40.962  60.556 -51.559  1.00  0.00     0.169 HD
ENDROOT
BRANCH   1  12
HETATM   12  C   UNL     1     -41.351  56.331 -52.642  1.00  0.00     0.025 A 
HETATM   13  C   UNL     1     -41.219  55.903 -51.316  1.00  0.00     0.016 A 
HETATM   14  C   UNL     1     -41.430  56.602 -50.018  1.00  0.00     0.069 C 
HETATM   15  N   UNL     1     -40.818  54.592 -51.328  1.00  0.00    -0.359 N 
HETATM   16  H   UNL     1     -40.641  54.031 -50.506  1.00  0.00     0.166 HD
HETATM   17  C   UNL     1     -40.662  54.137 -52.610  1.00  0.00     0.043 A 
HETATM   18  C   UNL     1     -40.982  55.195 -53.460  1.00  0.00     0.003 A 
HETATM   19  C   UNL     1     -40.255  52.878 -53.068  1.00  0.00     0.030 A 
HETATM   20  C   UNL     1     -40.883  54.961 -54.851  1.00  0.00     0.014 A 
HETATM   21  C   UNL     1     -40.478  53.710 -55.330  1.00  0.00     0.001 A 
HETATM   22  C   UNL     1     -40.168  52.682 -54.447  1.00  0.00     0.002 A 
ENDBRANCH   1  12
BRANCH   1  23
HETATM   23  O   UNL     1     -42.064  57.752 -54.539  1.00  0.00    -0.371 OA
HETATM   24  H   UNL     1     -41.239  57.561 -55.014  1.00  0.00     0.212 HD
ENDBRANCH   1  23
TORSDOF 2
ENDMDL
MODEL 4
REMARK VINA RESULT:      -7.6      2.343      5.007
REMARK  2 active torsions:
REMARK  status: ('A' for Active; 'I' for Inactive)
REMARK    1  A    between atoms: C_7  and  C_8 
REMARK    2  A    between atoms: C_8  and  O_9 
ROOT
HETATM    1  C   UNL     1     -43.072  55.782 -52.269  1.00  0.00     0.199 A 
HETATM    2  C   UNL     1     -43.411  54.565 -51.332  1.00  0.00     0.266 A 
HETATM    3  O   UNL     1     -44.210  54.506 -50.409  1.00  0.00    -0.269 OA
HETATM    4  N   UNL     1     -42.655  53.478 -51.780  1.00  0.00    -0.323 N 
HETATM    5  C   UNL     1     -41.845  53.828 -52.849  1.00  0.00     0.045 A 
HETATM    6  C   UNL     1     -42.023  55.174 -53.178  1.00  0.00     0.017 A 
HETATM    7  C   UNL     1     -40.969  53.008 -53.527  1.00  0.00     0.030 A 
HETATM    8  C   UNL     1     -40.252  53.570 -54.587  1.00  0.00     0.002 A 
HETATM    9  C   UNL     1     -40.427  54.922 -54.938  1.00  0.00     0.001 A 
HETATM   10  C   UNL     1     -41.323  55.735 -54.236  1.00  0.00     0.013 A 
HETATM   11  H   UNL     1     -42.705  52.569 -51.345  1.00  0.00     0.169 HD
ENDROOT
BRANCH   1  12
HETATM   12  C   UNL     1     -42.432  56.936 -51.523  1.00  0.00     0.025 A 
HETATM   13  C   UNL     1     -41.437  56.884 -50.540  1.00  0.00     0.016 A 
HETATM   14  C   UNL     1     -40.698  55.745 -49.929  1.00  0.00     0.069 C 
HETATM   15  N   UNL     1     -41.171  58.166 -50.133  1.00  0.00    -0.359 N 
HETATM   16  H   UNL     1     -40.495  58.424 -49.427  1.00  0.00     0.166 HD
HETATM   17  C   UNL     1     -41.962  59.066 -50.796  1.00  0.00     0.043 A 
HETATM   18  C   UNL     1     -42.766  58.336 -51.671  1.00  0.00     0.003 A 
HETATM   19  C   UNL     1     -42.025  60.460 -50.674  1.00  0.00     0.030 A 
HETATM   20  C   UNL     1     -43.685  59.061 -52.464  1.00  0.00     0.014 A 
HETATM   21  C   UNL     1     -43.764  60.455 -52.358  1.00  0.00     0.001 A 
HETATM   22  C   UNL     1     -42.943  61.144 -51.472  1.00  0.00     0.002 A 
ENDBRANCH   1  12
BRANCH   1  23
HETATM   23  O   UNL     1     -44.195  56.142 -53.067  1.00  0.00    -0.371 OA
HETATM   24  H   UNL     1     -43.906  56.098 -53.993  1.00  0.00     0.212 HD
ENDBRANCH   1  23
TORSDOF 2
ENDMDL
MODEL 5
REMARK VINA RESULT:      -7.5     14.501     16.042
REMARK  2 active torsions:
REMARK  status: ('A' for Active; 'I' for Inactive)
REMARK    1  A    between atoms: C_7  and  C_8 
REMARK    2  A    between atoms: C_8  and  O_9 
ROOT
HETATM    1  C   UNL     1     -35.873  41.509 -53.415  1.00  0.00     0.199 A 
HETATM    2  C   UNL     1     -37.408  41.277 -53.167  1.00  0.00     0.266 A 
HETATM    3  O   UNL     1     -37.991  41.058 -52.115  1.00  0.00    -0.269 OA
HETATM    4  N   UNL     1     -38.051  41.426 -54.398  1.00  0.00    -0.323 N 
HETATM    5  C   UNL     1     -37.147  41.682 -55.417  1.00  0.00     0.045 A 
HETATM    6  C   UNL     1     -35.843  41.724 -54.914  1.00  0.00     0.017 A 
HETATM    7  C   UNL     1     -37.434  41.875 -56.751  1.00  0.00     0.030 A 
HETATM    8  C   UNL     1     -36.361  42.129 -57.609  1.00  0.00     0.002 A 
HETATM    9  C   UNL     1     -35.043  42.185 -57.118  1.00  0.00     0.001 A 
HETATM   10  C   UNL     1     -34.776  41.988 -55.760  1.00  0.00     0.013 A 
HETATM   11  H   UNL     1     -39.051  41.337 -54.501  1.00  0.00     0.169 HD
ENDROOT
BRANCH   1  12
HETATM   12  C   UNL     1     -35.037  40.282 -53.103  1.00  0.00     0.025 A 
HETATM   13  C   UNL     1     -35.048  39.041 -53.751  1.00  0.00     0.016 A 
HETATM   14  C   UNL     1     -35.830  38.528 -54.909  1.00  0.00     0.069 C 
HETATM   15  N   UNL     1     -34.140  38.225 -53.125  1.00  0.00    -0.359 N 
HETATM   16  H   UNL     1     -33.944  37.268 -53.384  1.00  0.00     0.166 HD
HETATM   17  C   UNL     1     -33.540  38.870 -52.078  1.00  0.00     0.043 A 
HETATM   18  C   UNL     1     -34.075  40.157 -52.029  1.00  0.00     0.003 A 
HETATM   19  C   UNL     1     -32.576  38.404 -51.175  1.00  0.00     0.030 A 
HETATM   20  C   UNL     1     -33.608  41.016 -51.008  1.00  0.00     0.014 A 
HETATM   21  C   UNL     1     -32.645  40.569 -50.095  1.00  0.00     0.001 A 
HETATM   22  C   UNL     1     -32.136  39.278 -50.180  1.00  0.00     0.002 A 
ENDBRANCH   1  12
BRANCH   1  23
HETATM   23  O   UNL     1     -35.426  42.705 -52.785  1.00  0.00    -0.371 OA
HETATM   24  H   UNL     1     -34.886  42.436 -52.025  1.00  0.00     0.212 HD
ENDBRANCH   1  23
TORSDOF 2
ENDMDL
MODEL 6
REMARK VINA RESULT:      -7.5      1.852      5.318
REMARK  2 active torsions:
REMARK  status: ('A' for Active; 'I' for Inactive)
REMARK    1  A    between atoms: C_7  and  C_8 
REMARK    2  A    between atoms: C_8  and  O_9 
ROOT
HETATM    1  C   UNL     1     -43.255  55.104 -53.071  1.00  0.00     0.199 A 
HETATM    2  C   UNL     1     -43.270  54.517 -51.611  1.00  0.00     0.266 A 
HETATM    3  O   UNL     1     -44.066  54.727 -50.708  1.00  0.00    -0.269 OA
HETATM    4  N   UNL     1     -42.202  53.620 -51.518  1.00  0.00    -0.323 N 
HETATM    5  C   UNL     1     -41.473  53.572 -52.695  1.00  0.00     0.045 A 
HETATM    6  C   UNL     1     -42.024  54.435 -53.647  1.00  0.00     0.017 A 
HETATM    7  C   UNL     1     -40.358  52.803 -52.948  1.00  0.00     0.030 A 
HETATM    8  C   UNL     1     -39.781  52.905 -54.217  1.00  0.00     0.002 A 
HETATM    9  C   UNL     1     -40.329  53.761 -55.190  1.00  0.00     0.001 A 
HETATM   10  C   UNL     1     -41.462  54.531 -54.912  1.00  0.00     0.013 A 
HETATM   11  H   UNL     1     -42.005  53.100 -50.676  1.00  0.00     0.169 HD
ENDROOT
BRANCH   1  12
HETATM   12  C   UNL     1     -43.027  56.602 -53.097  1.00  0.00     0.025 A 
HETATM   13  C   UNL     1     -43.590  57.547 -53.962  1.00  0.00     0.016 A 
HETATM   14  C   UNL     1     -44.558  57.418 -55.086  1.00  0.00     0.069 C 
HETATM   15  N   UNL     1     -43.090  58.781 -53.631  1.00  0.00    -0.359 N 
HETATM   16  H   UNL     1     -43.324  59.647 -54.097  1.00  0.00     0.166 HD
HETATM   17  C   UNL     1     -42.205  58.690 -52.590  1.00  0.00     0.043 A 
HETATM   18  C   UNL     1     -42.136  57.344 -52.230  1.00  0.00     0.003 A 
HETATM   19  C   UNL     1     -41.464  59.695 -51.956  1.00  0.00     0.030 A 
HETATM   20  C   UNL     1     -41.266  57.001 -51.170  1.00  0.00     0.014 A 
HETATM   21  C   UNL     1     -40.516  57.990 -50.523  1.00  0.00     0.001 A 
HETATM   22  C   UNL     1     -40.615  59.321 -50.914  1.00  0.00     0.002 A 
ENDBRANCH   1  12
BRANCH   1  23
HETATM   23  O   UNL     1     -44.388  54.663 -53.812  1.00  0.00    -0.371 OA
HETATM   24  H   UNL     1     -45.173  54.969 -53.330  1.00  0.00     0.212 HD
ENDBRANCH   1  23
TORSDOF 2
ENDMDL
MODEL 7
REMARK VINA RESULT:      -7.4      1.441      1.623
REMARK  2 active torsions:
REMARK  status: ('A' for Active; 'I' for Inactive)
REMARK    1  A    between atoms: C_7  and  C_8 
REMARK    2  A    between atoms: C_8  and  O_9 
ROOT
HETATM    1  C   UNL     1     -42.034  55.876 -50.424  1.00  0.00     0.199 A 
HETATM    2  C   UNL     1     -43.596  55.813 -50.599  1.00  0.00     0.266 A 
HETATM    3  O   UNL     1     -44.367  54.918 -50.286  1.00  0.00    -0.269 OA
HETATM    4  N   UNL     1     -43.997  57.033 -51.148  1.00  0.00    -0.323 N 
HETATM    5  C   UNL     1     -42.914  57.863 -51.391  1.00  0.00     0.045 A 
HETATM    6  C   UNL     1     -41.724  57.239 -51.007  1.00  0.00     0.017 A 
HETATM    7  C   UNL     1     -42.946  59.131 -51.931  1.00  0.00     0.030 A 
HETATM    8  C   UNL     1     -41.727  59.796 -52.081  1.00  0.00     0.002 A 
HETATM    9  C   UNL     1     -40.520  59.186 -51.691  1.00  0.00     0.001 A 
HETATM   10  C   UNL     1     -40.512  57.900 -51.144  1.00  0.00     0.013 A 
HETATM   11  H   UNL     1     -44.964  57.246 -51.346  1.00  0.00     0.169 HD
ENDROOT
BRANCH   1  12
HETATM   12  C   UNL     1     -41.309  54.836 -51.255  1.00  0.00     0.025 A 
HETATM   13  C   UNL     1     -40.556  53.743 -50.810  1.00  0.00     0.016 A 
HETATM   14  C   UNL     1     -40.233  53.246 -49.444  1.00  0.00     0.069 C 
HETATM   15  N   UNL     1     -40.073  53.081 -51.910  1.00  0.00    -0.359 N 
HETATM   16  H   UNL     1     -39.493  52.254 -51.881  1.00  0.00     0.166 HD
HETATM   17  C   UNL     1     -40.462  53.700 -53.067  1.00  0.00     0.043 A 
HETATM   18  C   UNL     1     -41.233  54.803 -52.701  1.00  0.00     0.003 A 
HETATM   19  C   UNL     1     -40.178  53.367 -54.397  1.00  0.00     0.030 A 
HETATM   20  C   UNL     1     -41.743  55.612 -53.742  1.00  0.00     0.014 A 
HETATM   21  C   UNL     1     -41.471  55.297 -55.079  1.00  0.00     0.001 A 
HETATM   22  C   UNL     1     -40.698  54.187 -55.400  1.00  0.00     0.002 A 
ENDBRANCH   1  12
BRANCH   1  23
HETATM   23  O   UNL     1     -41.673  55.890 -49.046  1.00  0.00    -0.371 OA
HETATM   24  H   UNL     1     -41.034  55.170 -48.918  1.00  0.00     0.212 HD
ENDBRANCH   1  23
TORSDOF 2
ENDMDL
MODEL 8
REMARK VINA RESULT:      -7.3      2.247      3.494
REMARK  2 active torsions:
REMARK  status: ('A' for Active; 'I' for Inactive)
REMARK    1  A    between atoms: C_7  and  C_8 
REMARK    2  A    between atoms: C_8  and  O_9 
ROOT
HETATM    1  C   UNL     1     -43.159  56.332 -52.807  1.00  0.00     0.199 A 
HETATM    2  C   UNL     1     -44.208  57.239 -53.550  1.00  0.00     0.266 A 
HETATM    3  O   UNL     1     -45.110  56.908 -54.305  1.00  0.00    -0.269 OA
HETATM    4  N   UNL     1     -43.972  58.556 -53.146  1.00  0.00    -0.323 N 
HETATM    5  C   UNL     1     -42.895  58.637 -52.277  1.00  0.00     0.045 A 
HETATM    6  C   UNL     1     -42.355  57.368 -52.049  1.00  0.00     0.017 A 
HETATM    7  C   UNL     1     -42.386  59.776 -51.693  1.00  0.00     0.030 A 
HETATM    8  C   UNL     1     -41.292  59.626 -50.837  1.00  0.00     0.002 A 
HETATM    9  C   UNL     1     -40.742  58.355 -50.587  1.00  0.00     0.001 A 
HETATM   10  C   UNL     1     -41.277  57.212 -51.191  1.00  0.00     0.013 A 
HETATM   11  H   UNL     1     -44.527  59.331 -53.477  1.00  0.00     0.169 HD
ENDROOT
BRANCH   1  12
HETATM   12  C   UNL     1     -42.221  55.619 -53.761  1.00  0.00     0.025 A 
HETATM   13  C   UNL     1     -41.900  55.965 -55.078  1.00  0.00     0.016 A 
HETATM   14  C   UNL     1     -42.335  57.093 -55.947  1.00  0.00     0.069 C 
HETATM   15  N   UNL     1     -41.022  55.030 -55.563  1.00  0.00    -0.359 N 
HETATM   16  H   UNL     1     -40.627  55.032 -56.494  1.00  0.00     0.166 HD
HETATM   17  C   UNL     1     -40.760  54.068 -54.625  1.00  0.00     0.043 A 
HETATM   18  C   UNL     1     -41.493  54.399 -53.486  1.00  0.00     0.003 A 
HETATM   19  C   UNL     1     -39.940  52.936 -54.711  1.00  0.00     0.030 A 
HETATM   20  C   UNL     1     -41.388  53.532 -52.373  1.00  0.00     0.014 A 
HETATM   21  C   UNL     1     -40.574  52.395 -52.438  1.00  0.00     0.001 A 
HETATM   22  C   UNL     1     -39.859  52.102 -53.595  1.00  0.00     0.002 A 
ENDBRANCH   1  12
BRANCH   1  23
HETATM   23  O   UNL     1     -43.797  55.484 -51.858  1.00  0.00    -0.371 OA
HETATM   24  H   UNL     1     -44.158  56.061 -51.165  1.00  0.00     0.212 HD
ENDBRANCH   1  23
TORSDOF 2
ENDMDL
MODEL 9
REMARK VINA RESULT:      -7.2      2.943      5.412
REMARK  2 active torsions:
REMARK  status: ('A' for Active; 'I' for Inactive)
REMARK    1  A    between atoms: C_7  and  C_8 
REMARK    2  A    between atoms: C_8  and  O_9 
ROOT
HETATM    1  C   UNL     1     -43.304  55.494 -54.095  1.00  0.00     0.199 A 
HETATM    2  C   UNL     1     -43.529  56.076 -52.651  1.00  0.00     0.266 A 
HETATM    3  O   UNL     1     -44.338  56.912 -52.279  1.00  0.00    -0.269 OA
HETATM    4  N   UNL     1     -42.646  55.410 -51.797  1.00  0.00    -0.323 N 
HETATM    5  C   UNL     1     -41.854  54.507 -52.488  1.00  0.00     0.045 A 
HETATM    6  C   UNL     1     -42.172  54.517 -53.849  1.00  0.00     0.017 A 
HETATM    7  C   UNL     1     -40.876  53.690 -51.961  1.00  0.00     0.030 A 
HETATM    8  C   UNL     1     -40.200  52.845 -52.845  1.00  0.00     0.002 A 
HETATM    9  C   UNL     1     -40.515  52.835 -54.216  1.00  0.00     0.001 A 
HETATM   10  C   UNL     1     -41.512  53.672 -54.728  1.00  0.00     0.013 A 
HETATM   11  H   UNL     1     -42.606  55.598 -50.807  1.00  0.00     0.169 HD
ENDROOT
BRANCH   1  12
HETATM   12  C   UNL     1     -42.814  56.538 -55.079  1.00  0.00     0.025 A 
HETATM   13  C   UNL     1     -42.245  57.787 -54.802  1.00  0.00     0.016 A 
HETATM   14  C   UNL     1     -41.934  58.479 -53.521  1.00  0.00     0.069 C 
HETATM   15  N   UNL     1     -41.965  58.402 -55.995  1.00  0.00    -0.359 N 
HETATM   16  H   UNL     1     -41.551  59.319 -56.093  1.00  0.00     0.166 HD
HETATM   17  C   UNL     1     -42.339  57.618 -57.053  1.00  0.00     0.043 A 
HETATM   18  C   UNL     1     -42.877  56.445 -56.522  1.00  0.00     0.003 A 
HETATM   19  C   UNL     1     -42.247  57.868 -58.428  1.00  0.00     0.030 A 
HETATM   20  C   UNL     1     -43.347  55.475 -57.436  1.00  0.00     0.014 A 
HETATM   21  C   UNL     1     -43.265  55.706 -58.815  1.00  0.00     0.001 A 
HETATM   22  C   UNL     1     -42.721  56.889 -59.302  1.00  0.00     0.002 A 
ENDBRANCH   1  12
BRANCH   1  23
HETATM   23  O   UNL     1     -44.440  54.755 -54.532  1.00  0.00    -0.371 OA
HETATM   24  H   UNL     1     -45.197  55.074 -54.014  1.00  0.00     0.212 HD
ENDBRANCH   1  23
TORSDOF 2
ENDMDL
MODEL 10
REMARK VINA RESULT:      -7.1      1.915      5.026
REMARK  2 active torsions:
REMARK  status: ('A' for Active; 'I' for Inactive)
REMARK    1  A    between atoms: C_7  and  C_8 
REMARK    2  A    between atoms: C_8  and  O_9 
ROOT
HETATM    1  C   UNL     1     -42.904  55.164 -53.020  1.00  0.00     0.199 A 
HETATM    2  C   UNL     1     -43.074  55.079 -51.458  1.00  0.00     0.266 A 
HETATM    3  O   UNL     1     -43.850  55.687 -50.737  1.00  0.00    -0.269 OA
HETATM    4  N   UNL     1     -42.188  54.100 -51.001  1.00  0.00    -0.323 N 
HETATM    5  C   UNL     1     -41.439  53.567 -52.038  1.00  0.00     0.045 A 
HETATM    6  C   UNL     1     -41.793  54.160 -53.253  1.00  0.00     0.017 A 
HETATM    7  C   UNL     1     -40.470  52.591 -51.944  1.00  0.00     0.030 A 
HETATM    8  C   UNL     1     -39.841  52.193 -53.126  1.00  0.00     0.002 A 
HETATM    9  C   UNL     1     -40.193  52.773 -54.359  1.00  0.00     0.001 A 
HETATM   10  C   UNL     1     -41.180  53.761 -54.431  1.00  0.00     0.013 A 
HETATM   11  H   UNL     1     -42.116  53.848 -50.026  1.00  0.00     0.169 HD
ENDROOT
BRANCH   1  12
HETATM   12  C   UNL     1     -42.411  56.521 -53.482  1.00  0.00     0.025 A 
HETATM   13  C   UNL     1     -41.610  57.433 -52.787  1.00  0.00     0.016 A 
HETATM   14  C   UNL     1     -40.989  57.386 -51.434  1.00  0.00     0.069 C 
HETATM   15  N   UNL     1     -41.425  58.534 -53.584  1.00  0.00    -0.359 N 
HETATM   16  H   UNL     1     -40.888  59.351 -53.331  1.00  0.00     0.166 HD
HETATM   17  C   UNL     1     -42.086  58.395 -54.775  1.00  0.00     0.043 A 
HETATM   18  C   UNL     1     -42.718  57.152 -54.749  1.00  0.00     0.003 A 
HETATM   19  C   UNL     1     -42.174  59.280 -55.857  1.00  0.00     0.030 A 
HETATM   20  C   UNL     1     -43.480  56.788 -55.882  1.00  0.00     0.014 A 
HETATM   21  C   UNL     1     -43.581  57.658 -56.975  1.00  0.00     0.001 A 
HETATM   22  C   UNL     1     -42.935  58.889 -56.960  1.00  0.00     0.002 A 
ENDBRANCH   1  12
BRANCH   1  23
HETATM   23  O   UNL     1     -44.071  54.697 -53.689  1.00  0.00    -0.371 OA
HETATM   24  H   UNL     1     -44.805  55.260 -53.395  1.00  0.00     0.212 HD
ENDBRANCH   1  23
TORSDOF 2
ENDMDL
