MODEL 1
REMARK VINA RESULT:      -9.1      0.000      0.000
REMARK  5 active torsions:
REMARK  status: ('A' for Active; 'I' for Inactive)
REMARK    1  A    between atoms: C_2  and  C_3 
REMARK    2  A    between atoms: C_5  and  N_6 
REMARK       I    between atoms: N_6  and  C_7 
REMARK    3  A    between atoms: C_7  and  C_8 
REMARK    4  A    between atoms: C_16  and  C_17 
REMARK    5  A    between atoms: C_20  and  O_21 
ROOT
HETATM    1  C   UNL     1     -42.305  57.136 -53.865  1.00  0.00     0.047 A 
HETATM    2  C   UNL     1     -42.156  58.143 -52.886  1.00  0.00     0.008 A 
HETATM    3  C   UNL     1     -41.483  57.757 -51.715  1.00  0.00     0.068 A 
HETATM    4  C   UNL     1     -41.271  58.701 -50.719  1.00  0.00     0.032 A 
HETATM    5  C   UNL     1     -41.731  60.015 -50.833  1.00  0.00     0.002 A 
HETATM    6  C   UNL     1     -42.436  60.397 -51.964  1.00  0.00     0.001 A 
HETATM    7  C   UNL     1     -42.654  59.471 -52.981  1.00  0.00     0.015 A 
HETATM    8  N   UNL     1     -41.046  56.505 -51.498  1.00  0.00    -0.248 NA
HETATM    9  C   UNL     1     -41.266  55.530 -52.414  1.00  0.00     0.068 A 
HETATM   10  C   UNL     1     -41.884  55.825 -53.616  1.00  0.00     0.050 A 
ENDROOT
BRANCH   1  11
HETATM   11  C   UNL     1     -42.917  57.363 -55.200  1.00  0.00     0.257 C 
HETATM   12  N   UNL     1     -42.175  56.904 -56.273  1.00  0.00    -0.323 N 
HETATM   13  H   UNL     1     -41.273  56.490 -56.068  1.00  0.00     0.169 HD
HETATM   14  O   UNL     1     -44.028  57.878 -55.239  1.00  0.00    -0.267 OA
BRANCH  12  15
HETATM   15  C   UNL     1     -42.533  56.953 -57.637  1.00  0.00     0.035 A 
HETATM   16  C   UNL     1     -43.302  55.973 -58.274  1.00  0.00     0.044 A 
HETATM   17  C   UNL     1     -43.608  56.082 -59.638  1.00  0.00     0.011 A 
HETATM   18  C   UNL     1     -43.160  57.194 -60.361  1.00  0.00     0.015 A 
HETATM   19  C   UNL     1     -42.394  58.174 -59.733  1.00  0.00     0.003 A 
HETATM   20  C   UNL     1     -42.073  58.048 -58.380  1.00  0.00     0.029 A 
BRANCH  17  21
HETATM   21  C   UNL     1     -44.395  55.037 -60.357  1.00  0.00     0.155 C 
HETATM   22  C   UNL     1     -44.801  53.788 -59.618  1.00  0.00     0.096 C 
HETATM   23  O   UNL     1     -44.692  55.202 -61.539  1.00  0.00    -0.293 OA
ENDBRANCH  17  21
ENDBRANCH  12  15
ENDBRANCH   1  11
BRANCH   9  24
HETATM   24  C   UNL     1     -40.849  54.161 -52.019  1.00  0.00    -0.007 A 
HETATM   25  C   UNL     1     -40.463  53.221 -52.994  1.00  0.00     0.016 A 
HETATM   26  C   UNL     1     -40.005  51.944 -52.645  1.00  0.00     0.037 A 
HETATM   27  C   UNL     1     -39.904  51.570 -51.309  1.00  0.00     0.068 A 
HETATM   28  C   UNL     1     -40.318  52.462 -50.325  1.00  0.00     0.037 A 
HETATM   29  C   UNL     1     -40.787  53.737 -50.678  1.00  0.00     0.016 A 
BRANCH  27  30
HETATM   30  O   UNL     1     -39.412  50.314 -51.089  1.00  0.00    -0.356 OA
HETATM   31  C   UNL     1     -39.510  49.405 -52.179  1.00  0.00     0.210 C 
ENDBRANCH  27  30
ENDBRANCH   9  24
TORSDOF 5
ENDMDL
MODEL 2
REMARK VINA RESULT:      -9.1      1.974      2.587
REMARK  5 active torsions:
REMARK  status: ('A' for Active; 'I' for Inactive)
REMARK    1  A    between atoms: C_2  and  C_3 
REMARK    2  A    between atoms: C_5  and  N_6 
REMARK       I    between atoms: N_6  and  C_7 
REMARK    3  A    between atoms: C_7  and  C_8 
REMARK    4  A    between atoms: C_16  and  C_17 
REMARK    5  A    between atoms: C_20  and  O_21 
ROOT
HETATM    1  C   UNL     1     -42.098  56.787 -55.797  1.00  0.00     0.047 A 
HETATM    2  C   UNL     1     -42.018  57.869 -54.895  1.00  0.00     0.008 A 
HETATM    3  C   UNL     1     -41.422  57.584 -53.654  1.00  0.00     0.068 A 
HETATM    4  C   UNL     1     -41.279  58.606 -52.725  1.00  0.00     0.032 A 
HETATM    5  C   UNL     1     -41.735  59.902 -52.974  1.00  0.00     0.002 A 
HETATM    6  C   UNL     1     -42.365  60.188 -54.176  1.00  0.00     0.001 A 
HETATM    7  C   UNL     1     -42.513  59.182 -55.127  1.00  0.00     0.015 A 
HETATM    8  N   UNL     1     -40.996  56.357 -53.310  1.00  0.00    -0.248 NA
HETATM    9  C   UNL     1     -41.152  55.311 -54.158  1.00  0.00     0.068 A 
HETATM   10  C   UNL     1     -41.690  55.503 -55.418  1.00  0.00     0.050 A 
ENDROOT
BRANCH   1  11
HETATM   11  C   UNL     1     -42.622  56.901 -57.184  1.00  0.00     0.257 C 
HETATM   12  N   UNL     1     -43.683  56.067 -57.482  1.00  0.00    -0.323 N 
HETATM   13  H   UNL     1     -43.990  55.430 -56.755  1.00  0.00     0.169 HD
HETATM   14  O   UNL     1     -42.118  57.743 -57.917  1.00  0.00    -0.267 OA
BRANCH  12  15
HETATM   15  C   UNL     1     -44.393  55.997 -58.700  1.00  0.00     0.035 A 
HETATM   16  C   UNL     1     -45.379  56.914 -59.078  1.00  0.00     0.044 A 
HETATM   17  C   UNL     1     -46.052  56.773 -60.301  1.00  0.00     0.011 A 
HETATM   18  C   UNL     1     -45.715  55.719 -61.158  1.00  0.00     0.015 A 
HETATM   19  C   UNL     1     -44.734  54.802 -60.788  1.00  0.00     0.003 A 
HETATM   20  C   UNL     1     -44.084  54.934 -59.560  1.00  0.00     0.029 A 
BRANCH  17  21
HETATM   21  C   UNL     1     -47.135  57.712 -60.719  1.00  0.00     0.155 C 
HETATM   22  C   UNL     1     -48.109  57.278 -61.784  1.00  0.00     0.096 C 
HETATM   23  O   UNL     1     -47.212  58.824 -60.201  1.00  0.00    -0.293 OA
ENDBRANCH  17  21
ENDBRANCH  12  15
ENDBRANCH   1  11
BRANCH   9  24
HETATM   24  C   UNL     1     -40.757  53.981 -53.629  1.00  0.00    -0.007 A 
HETATM   25  C   UNL     1     -40.484  52.913 -54.505  1.00  0.00     0.016 A 
HETATM   26  C   UNL     1     -40.047  51.668 -54.036  1.00  0.00     0.037 A 
HETATM   27  C   UNL     1     -39.858  51.452 -52.675  1.00  0.00     0.068 A 
HETATM   28  C   UNL     1     -40.161  52.474 -51.781  1.00  0.00     0.037 A 
HETATM   29  C   UNL     1     -40.607  53.719 -52.253  1.00  0.00     0.016 A 
BRANCH  27  30
HETATM   30  O   UNL     1     -39.398  50.210 -52.338  1.00  0.00    -0.356 OA
HETATM   31  C   UNL     1     -39.497  49.859 -50.963  1.00  0.00     0.210 C 
ENDBRANCH  27  30
ENDBRANCH   9  24
TORSDOF 5
ENDMDL
MODEL 3
REMARK VINA RESULT:      -8.5      1.048      1.970
REMARK  5 active torsions:
REMARK  status: ('A' for Active; 'I' for Inactive)
REMARK    1  A    between atoms: C_2  and  C_3 
REMARK    2  A    between atoms: C_5  and  N_6 
REMARK       I    between atoms: N_6  and  C_7 
REMARK    3  A    between atoms: C_7  and  C_8 
REMARK    4  A    between atoms: C_16  and  C_17 
REMARK    5  A    between atoms: C_20  and  O_21 
ROOT
HETATM    1  C   UNL     1     -42.463  57.054 -54.008  1.00  0.00     0.047 A 
HETATM    2  C   UNL     1     -42.284  58.077 -53.052  1.00  0.00     0.008 A 
HETATM    3  C   UNL     1     -41.544  57.720 -51.912  1.00  0.00     0.068 A 
HETATM    4  C   UNL     1     -41.298  58.682 -50.941  1.00  0.00     0.032 A 
HETATM    5  C   UNL     1     -41.789  59.985 -51.048  1.00  0.00     0.002 A 
HETATM    6  C   UNL     1     -42.559  60.339 -52.146  1.00  0.00     0.001 A 
HETATM    7  C   UNL     1     -42.812  59.394 -53.138  1.00  0.00     0.015 A 
HETATM    8  N   UNL     1     -41.072  56.480 -51.702  1.00  0.00    -0.248 NA
HETATM    9  C   UNL     1     -41.320  55.488 -52.593  1.00  0.00     0.068 A 
HETATM   10  C   UNL     1     -42.005  55.754 -53.765  1.00  0.00     0.050 A 
ENDROOT
BRANCH   1  11
HETATM   11  C   UNL     1     -43.148  57.250 -55.313  1.00  0.00     0.257 C 
HETATM   12  N   UNL     1     -42.391  56.940 -56.427  1.00  0.00    -0.323 N 
HETATM   13  H   UNL     1     -41.435  56.642 -56.268  1.00  0.00     0.169 HD
HETATM   14  O   UNL     1     -44.318  57.613 -55.295  1.00  0.00    -0.267 OA
BRANCH  12  15
HETATM   15  C   UNL     1     -42.801  56.995 -57.777  1.00  0.00     0.035 A 
HETATM   16  C   UNL     1     -42.789  58.164 -58.544  1.00  0.00     0.044 A 
HETATM   17  C   UNL     1     -43.224  58.146 -59.877  1.00  0.00     0.011 A 
HETATM   18  C   UNL     1     -43.651  56.942 -60.449  1.00  0.00     0.015 A 
HETATM   19  C   UNL     1     -43.666  55.773 -59.691  1.00  0.00     0.003 A 
HETATM   20  C   UNL     1     -43.253  55.803 -58.357  1.00  0.00     0.029 A 
BRANCH  17  21
HETATM   21  C   UNL     1     -43.258  59.382 -60.714  1.00  0.00     0.155 C 
HETATM   22  C   UNL     1     -41.969  60.108 -61.001  1.00  0.00     0.096 C 
HETATM   23  O   UNL     1     -44.332  59.795 -61.149  1.00  0.00    -0.293 OA
ENDBRANCH  17  21
ENDBRANCH  12  15
ENDBRANCH   1  11
BRANCH   9  24
HETATM   24  C   UNL     1     -40.858  54.133 -52.202  1.00  0.00    -0.007 A 
HETATM   25  C   UNL     1     -40.465  53.200 -53.181  1.00  0.00     0.016 A 
HETATM   26  C   UNL     1     -39.964  51.938 -52.838  1.00  0.00     0.037 A 
HETATM   27  C   UNL     1     -39.827  51.571 -51.503  1.00  0.00     0.068 A 
HETATM   28  C   UNL     1     -40.246  52.455 -50.514  1.00  0.00     0.037 A 
HETATM   29  C   UNL     1     -40.757  53.716 -50.861  1.00  0.00     0.016 A 
BRANCH  27  30
HETATM   30  O   UNL     1     -39.295  50.331 -51.290  1.00  0.00    -0.356 OA
HETATM   31  C   UNL     1     -39.533  49.365 -52.308  1.00  0.00     0.210 C 
ENDBRANCH  27  30
ENDBRANCH   9  24
TORSDOF 5
ENDMDL
MODEL 4
REMARK VINA RESULT:      -8.5      2.550      6.667
REMARK  5 active torsions:
REMARK  status: ('A' for Active; 'I' for Inactive)
REMARK    1  A    between atoms: C_2  and  C_3 
REMARK    2  A    between atoms: C_5  and  N_6 
REMARK       I    between atoms: N_6  and  C_7 
REMARK    3  A    between atoms: C_7  and  C_8 
REMARK    4  A    between atoms: C_16  and  C_17 
REMARK    5  A    between atoms: C_20  and  O_21 
ROOT
HETATM    1  C   UNL     1     -41.931  57.363 -54.522  1.00  0.00     0.047 A 
HETATM    2  C   UNL     1     -42.416  57.169 -55.833  1.00  0.00     0.008 A 
HETATM    3  C   UNL     1     -42.387  55.844 -56.302  1.00  0.00     0.068 A 
HETATM    4  C   UNL     1     -42.878  55.569 -57.571  1.00  0.00     0.032 A 
HETATM    5  C   UNL     1     -43.371  56.572 -58.409  1.00  0.00     0.002 A 
HETATM    6  C   UNL     1     -43.363  57.889 -57.978  1.00  0.00     0.001 A 
HETATM    7  C   UNL     1     -42.885  58.190 -56.704  1.00  0.00     0.015 A 
HETATM    8  N   UNL     1     -41.889  54.823 -55.585  1.00  0.00    -0.248 NA
HETATM    9  C   UNL     1     -41.355  55.039 -54.358  1.00  0.00     0.068 A 
HETATM   10  C   UNL     1     -41.376  56.303 -53.797  1.00  0.00     0.050 A 
ENDROOT
BRANCH   1  11
HETATM   11  C   UNL     1     -41.947  58.673 -53.819  1.00  0.00     0.257 C 
HETATM   12  N   UNL     1     -43.138  58.987 -53.190  1.00  0.00    -0.323 N 
HETATM   13  H   UNL     1     -43.901  58.328 -53.289  1.00  0.00     0.169 HD
HETATM   14  O   UNL     1     -40.913  59.328 -53.807  1.00  0.00    -0.267 OA
BRANCH  12  15
HETATM   15  C   UNL     1     -43.416  60.139 -52.423  1.00  0.00     0.035 A 
HETATM   16  C   UNL     1     -44.034  60.106 -51.168  1.00  0.00     0.044 A 
HETATM   17  C   UNL     1     -44.290  61.294 -50.468  1.00  0.00     0.011 A 
HETATM   18  C   UNL     1     -43.901  62.520 -51.021  1.00  0.00     0.015 A 
HETATM   19  C   UNL     1     -43.285  62.560 -52.270  1.00  0.00     0.003 A 
HETATM   20  C   UNL     1     -43.054  61.376 -52.972  1.00  0.00     0.029 A 
BRANCH  17  21
HETATM   21  C   UNL     1     -44.980  61.297 -49.144  1.00  0.00     0.155 C 
HETATM   22  C   UNL     1     -44.684  62.406 -48.167  1.00  0.00     0.096 C 
HETATM   23  O   UNL     1     -45.769  60.396 -48.864  1.00  0.00    -0.293 OA
ENDBRANCH  17  21
ENDBRANCH  12  15
ENDBRANCH   1  11
BRANCH   9  24
HETATM   24  C   UNL     1     -40.725  53.863 -53.707  1.00  0.00    -0.007 A 
HETATM   25  C   UNL     1     -40.580  53.810 -52.307  1.00  0.00     0.016 A 
HETATM   26  C   UNL     1     -40.049  52.686 -51.663  1.00  0.00     0.037 A 
HETATM   27  C   UNL     1     -39.655  51.571 -52.396  1.00  0.00     0.068 A 
HETATM   28  C   UNL     1     -39.746  51.610 -53.784  1.00  0.00     0.037 A 
HETATM   29  C   UNL     1     -40.270  52.742 -54.428  1.00  0.00     0.016 A 
BRANCH  27  30
HETATM   30  O   UNL     1     -39.184  50.522 -51.658  1.00  0.00    -0.356 OA
HETATM   31  C   UNL     1     -39.949  50.173 -50.510  1.00  0.00     0.210 C 
ENDBRANCH  27  30
ENDBRANCH   9  24
TORSDOF 5
ENDMDL
MODEL 5
REMARK VINA RESULT:      -8.5      2.590      8.190
REMARK  5 active torsions:
REMARK  status: ('A' for Active; 'I' for Inactive)
REMARK    1  A    between atoms: C_2  and  C_3 
REMARK    2  A    between atoms: C_5  and  N_6 
REMARK       I    between atoms: N_6  and  C_7 
REMARK    3  A    between atoms: C_7  and  C_8 
REMARK    4  A    between atoms: C_16  and  C_17 
REMARK    5  A    between atoms: C_20  and  O_21 
ROOT
HETATM    1  C   UNL     1     -42.517  56.456 -54.609  1.00  0.00     0.047 A 
HETATM    2  C   UNL     1     -43.022  56.512 -55.926  1.00  0.00     0.008 A 
HETATM    3  C   UNL     1     -43.987  57.506 -56.165  1.00  0.00     0.068 A 
HETATM    4  C   UNL     1     -44.508  57.644 -57.444  1.00  0.00     0.032 A 
HETATM    5  C   UNL     1     -44.125  56.807 -58.495  1.00  0.00     0.002 A 
HETATM    6  C   UNL     1     -43.207  55.794 -58.263  1.00  0.00     0.001 A 
HETATM    7  C   UNL     1     -42.663  55.640 -56.990  1.00  0.00     0.015 A 
HETATM    8  N   UNL     1     -44.450  58.325 -55.206  1.00  0.00    -0.248 NA
HETATM    9  C   UNL     1     -44.012  58.207 -53.928  1.00  0.00     0.068 A 
HETATM   10  C   UNL     1     -43.032  57.284 -53.606  1.00  0.00     0.050 A 
ENDROOT
BRANCH   1  11
HETATM   11  C   UNL     1     -41.438  55.531 -54.175  1.00  0.00     0.257 C 
HETATM   12  N   UNL     1     -41.839  54.518 -53.324  1.00  0.00    -0.323 N 
HETATM   13  H   UNL     1     -42.813  54.510 -53.041  1.00  0.00     0.169 HD
HETATM   14  O   UNL     1     -40.316  55.704 -54.637  1.00  0.00    -0.267 OA
BRANCH  12  15
HETATM   15  C   UNL     1     -41.036  53.485 -52.793  1.00  0.00     0.035 A 
HETATM   16  C   UNL     1     -40.772  52.286 -53.462  1.00  0.00     0.044 A 
HETATM   17  C   UNL     1     -39.974  51.298 -52.866  1.00  0.00     0.011 A 
HETATM   18  C   UNL     1     -39.419  51.527 -51.602  1.00  0.00     0.015 A 
HETATM   19  C   UNL     1     -39.679  52.719 -50.929  1.00  0.00     0.003 A 
HETATM   20  C   UNL     1     -40.493  53.689 -51.518  1.00  0.00     0.029 A 
BRANCH  17  21
HETATM   21  C   UNL     1     -39.701  49.992 -53.537  1.00  0.00     0.155 C 
HETATM   22  C   UNL     1     -39.801  49.904 -55.038  1.00  0.00     0.096 C 
HETATM   23  O   UNL     1     -39.410  49.008 -52.860  1.00  0.00    -0.293 OA
ENDBRANCH  17  21
ENDBRANCH  12  15
ENDBRANCH   1  11
BRANCH   9  24
HETATM   24  C   UNL     1     -44.677  59.080 -52.929  1.00  0.00    -0.007 A 
HETATM   25  C   UNL     1     -45.110  60.372 -53.282  1.00  0.00     0.016 A 
HETATM   26  C   UNL     1     -45.798  61.191 -52.378  1.00  0.00     0.037 A 
HETATM   27  C   UNL     1     -46.088  60.740 -51.095  1.00  0.00     0.068 A 
HETATM   28  C   UNL     1     -45.637  59.484 -50.703  1.00  0.00     0.037 A 
HETATM   29  C   UNL     1     -44.939  58.669 -51.608  1.00  0.00     0.016 A 
BRANCH  27  30
HETATM   30  O   UNL     1     -46.793  61.612 -50.314  1.00  0.00    -0.356 OA
HETATM   31  C   UNL     1     -46.559  62.995 -50.553  1.00  0.00     0.210 C 
ENDBRANCH  27  30
ENDBRANCH   9  24
TORSDOF 5
ENDMDL
MODEL 6
REMARK VINA RESULT:      -8.4      1.786      2.114
REMARK  5 active torsions:
REMARK  status: ('A' for Active; 'I' for Inactive)
REMARK    1  A    between atoms: C_2  and  C_3 
REMARK    2  A    between atoms: C_5  and  N_6 
REMARK       I    between atoms: N_6  and  C_7 
REMARK    3  A    between atoms: C_7  and  C_8 
REMARK    4  A    between atoms: C_16  and  C_17 
REMARK    5  A    between atoms: C_20  and  O_21 
ROOT
HETATM    1  C   UNL     1     -42.328  57.222 -54.966  1.00  0.00     0.047 A 
HETATM    2  C   UNL     1     -42.403  58.050 -53.825  1.00  0.00     0.008 A 
HETATM    3  C   UNL     1     -41.815  57.531 -52.659  1.00  0.00     0.068 A 
HETATM    4  C   UNL     1     -41.821  58.300 -51.503  1.00  0.00     0.032 A 
HETATM    5  C   UNL     1     -42.418  59.562 -51.456  1.00  0.00     0.002 A 
HETATM    6  C   UNL     1     -43.041  60.068 -52.587  1.00  0.00     0.001 A 
HETATM    7  C   UNL     1     -43.041  59.318 -53.761  1.00  0.00     0.015 A 
HETATM    8  N   UNL     1     -41.259  56.309 -52.598  1.00  0.00    -0.248 NA
HETATM    9  C   UNL     1     -41.265  55.495 -53.682  1.00  0.00     0.068 A 
HETATM   10  C   UNL     1     -41.785  55.935 -54.886  1.00  0.00     0.050 A 
ENDROOT
BRANCH   1  11
HETATM   11  C   UNL     1     -42.820  57.619 -56.311  1.00  0.00     0.257 C 
HETATM   12  N   UNL     1     -44.129  57.270 -56.586  1.00  0.00    -0.323 N 
HETATM   13  H   UNL     1     -44.628  56.748 -55.874  1.00  0.00     0.169 HD
HETATM   14  O   UNL     1     -42.061  58.257 -57.031  1.00  0.00    -0.267 OA
BRANCH  12  15
HETATM   15  C   UNL     1     -44.857  57.555 -57.762  1.00  0.00     0.035 A 
HETATM   16  C   UNL     1     -45.112  56.615 -58.764  1.00  0.00     0.044 A 
HETATM   17  C   UNL     1     -45.833  56.975 -59.912  1.00  0.00     0.011 A 
HETATM   18  C   UNL     1     -46.320  58.281 -60.042  1.00  0.00     0.015 A 
HETATM   19  C   UNL     1     -46.069  59.223 -59.047  1.00  0.00     0.003 A 
HETATM   20  C   UNL     1     -45.331  58.864 -57.917  1.00  0.00     0.029 A 
BRANCH  17  21
HETATM   21  C   UNL     1     -46.093  56.006 -61.018  1.00  0.00     0.155 C 
HETATM   22  C   UNL     1     -45.049  54.969 -61.344  1.00  0.00     0.096 C 
HETATM   23  O   UNL     1     -47.144  56.072 -61.653  1.00  0.00    -0.293 OA
ENDBRANCH  17  21
ENDBRANCH  12  15
ENDBRANCH   1  11
BRANCH   9  24
HETATM   24  C   UNL     1     -40.734  54.125 -53.469  1.00  0.00    -0.007 A 
HETATM   25  C   UNL     1     -40.425  53.670 -52.172  1.00  0.00     0.016 A 
HETATM   26  C   UNL     1     -39.985  52.362 -51.936  1.00  0.00     0.037 A 
HETATM   27  C   UNL     1     -39.850  51.461 -52.988  1.00  0.00     0.068 A 
HETATM   28  C   UNL     1     -40.106  51.894 -54.285  1.00  0.00     0.037 A 
HETATM   29  C   UNL     1     -40.539  53.208 -54.520  1.00  0.00     0.016 A 
BRANCH  27  30
HETATM   30  O   UNL     1     -39.446  50.204 -52.633  1.00  0.00    -0.356 OA
HETATM   31  C   UNL     1     -39.518  49.893 -51.246  1.00  0.00     0.210 C 
ENDBRANCH  27  30
ENDBRANCH   9  24
TORSDOF 5
ENDMDL
MODEL 7
REMARK VINA RESULT:      -8.4      2.272      3.374
REMARK  5 active torsions:
REMARK  status: ('A' for Active; 'I' for Inactive)
REMARK    1  A    between atoms: C_2  and  C_3 
REMARK    2  A    between atoms: C_5  and  N_6 
REMARK       I    between atoms: N_6  and  C_7 
REMARK    3  A    between atoms: C_7  and  C_8 
REMARK    4  A    between atoms: C_16  and  C_17 
REMARK    5  A    between atoms: C_20  and  O_21 
ROOT
HETATM    1  C   UNL     1     -43.207  56.916 -54.747  1.00  0.00     0.047 A 
HETATM    2  C   UNL     1     -43.801  57.467 -53.591  1.00  0.00     0.008 A 
HETATM    3  C   UNL     1     -43.434  56.865 -52.375  1.00  0.00     0.068 A 
HETATM    4  C   UNL     1     -43.953  57.372 -51.191  1.00  0.00     0.032 A 
HETATM    5  C   UNL     1     -44.851  58.441 -51.173  1.00  0.00     0.002 A 
HETATM    6  C   UNL     1     -45.257  59.015 -52.368  1.00  0.00     0.001 A 
HETATM    7  C   UNL     1     -44.744  58.531 -53.569  1.00  0.00     0.015 A 
HETATM    8  N   UNL     1     -42.614  55.804 -52.299  1.00  0.00    -0.248 NA
HETATM    9  C   UNL     1     -42.113  55.239 -53.425  1.00  0.00     0.068 A 
HETATM   10  C   UNL     1     -42.386  55.787 -54.666  1.00  0.00     0.050 A 
ENDROOT
BRANCH   1  11
HETATM   11  C   UNL     1     -43.405  57.458 -56.118  1.00  0.00     0.257 C 
HETATM   12  N   UNL     1     -42.255  57.892 -56.750  1.00  0.00    -0.323 N 
HETATM   13  H   UNL     1     -41.390  57.841 -56.224  1.00  0.00     0.169 HD
HETATM   14  O   UNL     1     -44.537  57.427 -56.586  1.00  0.00    -0.267 OA
BRANCH  12  15
HETATM   15  C   UNL     1     -42.148  58.411 -58.059  1.00  0.00     0.035 A 
HETATM   16  C   UNL     1     -41.899  59.757 -58.343  1.00  0.00     0.044 A 
HETATM   17  C   UNL     1     -41.819  60.203 -59.670  1.00  0.00     0.011 A 
HETATM   18  C   UNL     1     -41.965  59.286 -60.718  1.00  0.00     0.015 A 
HETATM   19  C   UNL     1     -42.214  57.943 -60.442  1.00  0.00     0.003 A 
HETATM   20  C   UNL     1     -42.316  57.510 -59.119  1.00  0.00     0.029 A 
BRANCH  17  21
HETATM   21  C   UNL     1     -41.590  61.639 -60.009  1.00  0.00     0.155 C 
HETATM   22  C   UNL     1     -40.584  62.428 -59.211  1.00  0.00     0.096 C 
HETATM   23  O   UNL     1     -42.228  62.159 -60.923  1.00  0.00    -0.293 OA
ENDBRANCH  17  21
ENDBRANCH  12  15
ENDBRANCH   1  11
BRANCH   9  24
HETATM   24  C   UNL     1     -41.318  54.000 -53.232  1.00  0.00    -0.007 A 
HETATM   25  C   UNL     1     -40.826  53.655 -51.958  1.00  0.00     0.016 A 
HETATM   26  C   UNL     1     -40.130  52.461 -51.735  1.00  0.00     0.037 A 
HETATM   27  C   UNL     1     -39.911  51.565 -52.777  1.00  0.00     0.068 A 
HETATM   28  C   UNL     1     -40.348  51.898 -54.056  1.00  0.00     0.037 A 
HETATM   29  C   UNL     1     -41.038  53.100 -54.278  1.00  0.00     0.016 A 
BRANCH  27  30
HETATM   30  O   UNL     1     -39.251  50.420 -52.434  1.00  0.00    -0.356 OA
HETATM   31  C   UNL     1     -39.501  49.922 -51.125  1.00  0.00     0.210 C 
ENDBRANCH  27  30
ENDBRANCH   9  24
TORSDOF 5
ENDMDL
MODEL 8
REMARK VINA RESULT:      -8.3      2.323      8.281
REMARK  5 active torsions:
REMARK  status: ('A' for Active; 'I' for Inactive)
REMARK    1  A    between atoms: C_2  and  C_3 
REMARK    2  A    between atoms: C_5  and  N_6 
REMARK       I    between atoms: N_6  and  C_7 
REMARK    3  A    between atoms: C_7  and  C_8 
REMARK    4  A    between atoms: C_16  and  C_17 
REMARK    5  A    between atoms: C_20  and  O_21 
ROOT
HETATM    1  C   UNL     1     -42.241  57.436 -54.703  1.00  0.00     0.047 A 
HETATM    2  C   UNL     1     -42.338  58.489 -53.768  1.00  0.00     0.008 A 
HETATM    3  C   UNL     1     -42.446  59.779 -54.314  1.00  0.00     0.068 A 
HETATM    4  C   UNL     1     -42.578  60.864 -53.457  1.00  0.00     0.032 A 
HETATM    5  C   UNL     1     -42.576  60.715 -52.068  1.00  0.00     0.002 A 
HETATM    6  C   UNL     1     -42.425  59.453 -51.515  1.00  0.00     0.001 A 
HETATM    7  C   UNL     1     -42.300  58.348 -52.354  1.00  0.00     0.015 A 
HETATM    8  N   UNL     1     -42.411  60.023 -55.634  1.00  0.00    -0.248 NA
HETATM    9  C   UNL     1     -42.238  59.008 -56.517  1.00  0.00     0.068 A 
HETATM   10  C   UNL     1     -42.163  57.699 -56.075  1.00  0.00     0.050 A 
ENDROOT
BRANCH   1  11
HETATM   11  C   UNL     1     -42.196  55.998 -54.330  1.00  0.00     0.257 C 
HETATM   12  N   UNL     1     -40.930  55.485 -54.116  1.00  0.00    -0.323 N 
HETATM   13  H   UNL     1     -40.147  56.111 -54.263  1.00  0.00     0.169 HD
HETATM   14  O   UNL     1     -43.262  55.410 -54.194  1.00  0.00    -0.267 OA
BRANCH  12  15
HETATM   15  C   UNL     1     -40.602  54.172 -53.717  1.00  0.00     0.035 A 
HETATM   16  C   UNL     1     -40.606  53.741 -52.386  1.00  0.00     0.044 A 
HETATM   17  C   UNL     1     -40.255  52.422 -52.063  1.00  0.00     0.011 A 
HETATM   18  C   UNL     1     -39.922  51.525 -53.084  1.00  0.00     0.015 A 
HETATM   19  C   UNL     1     -39.915  51.947 -54.412  1.00  0.00     0.003 A 
HETATM   20  C   UNL     1     -40.243  53.268 -54.725  1.00  0.00     0.029 A 
BRANCH  17  21
HETATM   21  C   UNL     1     -40.214  51.939 -50.651  1.00  0.00     0.155 C 
HETATM   22  C   UNL     1     -40.015  50.469 -50.385  1.00  0.00     0.096 C 
HETATM   23  O   UNL     1     -40.352  52.739 -49.727  1.00  0.00    -0.293 OA
ENDBRANCH  17  21
ENDBRANCH  12  15
ENDBRANCH   1  11
BRANCH   9  24
HETATM   24  C   UNL     1     -42.092  59.403 -57.941  1.00  0.00    -0.007 A 
HETATM   25  C   UNL     1     -42.134  58.434 -58.961  1.00  0.00     0.016 A 
HETATM   26  C   UNL     1     -42.064  58.786 -60.315  1.00  0.00     0.037 A 
HETATM   27  C   UNL     1     -41.961  60.120 -60.694  1.00  0.00     0.068 A 
HETATM   28  C   UNL     1     -41.874  61.097 -59.708  1.00  0.00     0.037 A 
HETATM   29  C   UNL     1     -41.935  60.741 -58.351  1.00  0.00     0.016 A 
BRANCH  27  30
HETATM   30  O   UNL     1     -41.934  60.345 -62.042  1.00  0.00    -0.356 OA
HETATM   31  C   UNL     1     -42.936  61.219 -62.550  1.00  0.00     0.210 C 
ENDBRANCH  27  30
ENDBRANCH   9  24
TORSDOF 5
ENDMDL
MODEL 9
REMARK VINA RESULT:      -8.1      2.172      3.281
REMARK  5 active torsions:
REMARK  status: ('A' for Active; 'I' for Inactive)
REMARK    1  A    between atoms: C_2  and  C_3 
REMARK    2  A    between atoms: C_5  and  N_6 
REMARK       I    between atoms: N_6  and  C_7 
REMARK    3  A    between atoms: C_7  and  C_8 
REMARK    4  A    between atoms: C_16  and  C_17 
REMARK    5  A    between atoms: C_20  and  O_21 
ROOT
HETATM    1  C   UNL     1     -42.263  57.924 -54.465  1.00  0.00     0.047 A 
HETATM    2  C   UNL     1     -42.282  58.671 -53.268  1.00  0.00     0.008 A 
HETATM    3  C   UNL     1     -41.742  58.026 -52.141  1.00  0.00     0.068 A 
HETATM    4  C   UNL     1     -41.697  58.709 -50.933  1.00  0.00     0.032 A 
HETATM    5  C   UNL     1     -42.198  60.005 -50.795  1.00  0.00     0.002 A 
HETATM    6  C   UNL     1     -42.773  60.637 -51.887  1.00  0.00     0.001 A 
HETATM    7  C   UNL     1     -42.823  59.976 -53.112  1.00  0.00     0.015 A 
HETATM    8  N   UNL     1     -41.281  56.765 -52.168  1.00  0.00    -0.248 NA
HETATM    9  C   UNL     1     -41.341  56.034 -53.308  1.00  0.00     0.068 A 
HETATM   10  C   UNL     1     -41.818  56.597 -54.478  1.00  0.00     0.050 A 
ENDROOT
BRANCH   1  11
HETATM   11  C   UNL     1     -42.714  58.454 -55.779  1.00  0.00     0.257 C 
HETATM   12  N   UNL     1     -41.710  58.662 -56.706  1.00  0.00    -0.323 N 
HETATM   13  H   UNL     1     -40.759  58.473 -56.408  1.00  0.00     0.169 HD
HETATM   14  O   UNL     1     -43.917  58.610 -55.949  1.00  0.00    -0.267 OA
BRANCH  12  15
HETATM   15  C   UNL     1     -41.859  59.117 -58.034  1.00  0.00     0.035 A 
HETATM   16  C   UNL     1     -41.732  60.457 -58.414  1.00  0.00     0.044 A 
HETATM   17  C   UNL     1     -41.907  60.838 -59.752  1.00  0.00     0.011 A 
HETATM   18  C   UNL     1     -42.186  59.863 -60.718  1.00  0.00     0.015 A 
HETATM   19  C   UNL     1     -42.313  58.527 -60.346  1.00  0.00     0.003 A 
HETATM   20  C   UNL     1     -42.161  58.157 -59.008  1.00  0.00     0.029 A 
BRANCH  17  21
HETATM   21  C   UNL     1     -41.815  62.263 -60.187  1.00  0.00     0.155 C 
HETATM   22  C   UNL     1     -40.472  62.823 -60.581  1.00  0.00     0.096 C 
HETATM   23  O   UNL     1     -42.827  62.961 -60.208  1.00  0.00    -0.293 OA
ENDBRANCH  17  21
ENDBRANCH  12  15
ENDBRANCH   1  11
BRANCH   9  24
HETATM   24  C   UNL     1     -40.916  54.616 -53.195  1.00  0.00    -0.007 A 
HETATM   25  C   UNL     1     -40.680  53.844 -54.348  1.00  0.00     0.016 A 
HETATM   26  C   UNL     1     -40.216  52.525 -54.270  1.00  0.00     0.037 A 
HETATM   27  C   UNL     1     -39.962  51.937 -53.035  1.00  0.00     0.068 A 
HETATM   28  C   UNL     1     -40.226  52.660 -51.876  1.00  0.00     0.037 A 
HETATM   29  C   UNL     1     -40.700  53.979 -51.957  1.00  0.00     0.016 A 
BRANCH  27  30
HETATM   30  O   UNL     1     -39.480  50.659 -53.084  1.00  0.00    -0.356 OA
HETATM   31  C   UNL     1     -39.776  49.924 -54.266  1.00  0.00     0.210 C 
ENDBRANCH  27  30
ENDBRANCH   9  24
TORSDOF 5
ENDMDL
MODEL 10
REMARK VINA RESULT:      -8.0      2.740      8.659
REMARK  5 active torsions:
REMARK  status: ('A' for Active; 'I' for Inactive)
REMARK    1  A    between atoms: C_2  and  C_3 
REMARK    2  A    between atoms: C_5  and  N_6 
REMARK       I    between atoms: N_6  and  C_7 
REMARK    3  A    between atoms: C_7  and  C_8 
REMARK    4  A    between atoms: C_16  and  C_17 
REMARK    5  A    between atoms: C_20  and  O_21 
ROOT
HETATM    1  C   UNL     1     -42.975  57.006 -54.970  1.00  0.00     0.047 A 
HETATM    2  C   UNL     1     -43.380  56.867 -56.315  1.00  0.00     0.008 A 
HETATM    3  C   UNL     1     -44.336  57.796 -56.761  1.00  0.00     0.068 A 
HETATM    4  C   UNL     1     -44.761  57.742 -58.082  1.00  0.00     0.032 A 
HETATM    5  C   UNL     1     -44.289  56.776 -58.973  1.00  0.00     0.002 A 
HETATM    6  C   UNL     1     -43.379  55.826 -58.535  1.00  0.00     0.001 A 
HETATM    7  C   UNL     1     -42.931  55.864 -57.217  1.00  0.00     0.015 A 
HETATM    8  N   UNL     1     -44.880  58.729 -55.963  1.00  0.00    -0.248 NA
HETATM    9  C   UNL     1     -44.538  58.800 -54.653  1.00  0.00     0.068 A 
HETATM   10  C   UNL     1     -43.574  57.954 -54.133  1.00  0.00     0.050 A 
ENDROOT
BRANCH   1  11
HETATM   11  C   UNL     1     -41.921  56.175 -54.332  1.00  0.00     0.257 C 
HETATM   12  N   UNL     1     -42.267  54.855 -54.110  1.00  0.00    -0.323 N 
HETATM   13  H   UNL     1     -43.208  54.575 -54.362  1.00  0.00     0.169 HD
HETATM   14  O   UNL     1     -40.837  56.699 -54.108  1.00  0.00    -0.267 OA
BRANCH  12  15
HETATM   15  C   UNL     1     -41.452  53.843 -53.559  1.00  0.00     0.035 A 
HETATM   16  C   UNL     1     -41.352  53.586 -52.188  1.00  0.00     0.044 A 
HETATM   17  C   UNL     1     -40.509  52.570 -51.713  1.00  0.00     0.011 A 
HETATM   18  C   UNL     1     -39.783  51.792 -52.622  1.00  0.00     0.015 A 
HETATM   19  C   UNL     1     -39.877  52.043 -53.989  1.00  0.00     0.003 A 
HETATM   20  C   UNL     1     -40.700  53.071 -54.454  1.00  0.00     0.029 A 
BRANCH  17  21
HETATM   21  C   UNL     1     -40.351  52.293 -50.254  1.00  0.00     0.155 C 
HETATM   22  C   UNL     1     -40.278  53.451 -49.292  1.00  0.00     0.096 C 
HETATM   23  O   UNL     1     -40.274  51.131 -49.859  1.00  0.00    -0.293 OA
ENDBRANCH  17  21
ENDBRANCH  12  15
ENDBRANCH   1  11
BRANCH   9  24
HETATM   24  C   UNL     1     -45.288  59.788 -53.838  1.00  0.00    -0.007 A 
HETATM   25  C   UNL     1     -45.523  59.557 -52.469  1.00  0.00     0.016 A 
HETATM   26  C   UNL     1     -46.170  60.501 -51.662  1.00  0.00     0.037 A 
HETATM   27  C   UNL     1     -46.594  61.714 -52.195  1.00  0.00     0.068 A 
HETATM   28  C   UNL     1     -46.415  61.954 -53.554  1.00  0.00     0.037 A 
HETATM   29  C   UNL     1     -45.774  61.002 -54.362  1.00  0.00     0.016 A 
BRANCH  27  30
HETATM   30  O   UNL     1     -47.182  62.570 -51.307  1.00  0.00    -0.356 OA
HETATM   31  C   UNL     1     -46.617  62.601 -50.001  1.00  0.00     0.210 C 
ENDBRANCH  27  30
ENDBRANCH   9  24
TORSDOF 5
ENDMDL
