MODEL 1
REMARK VINA RESULT:      -7.7      0.000      0.000
REMARK  7 active torsions:
REMARK  status: ('A' for Active; 'I' for Inactive)
REMARK    1  A    between atoms: C_2  and  N_3 
REMARK    2  A    between atoms: C_2  and  C_17 
REMARK       I    between atoms: N_3  and  C_4 
REMARK    3  A    between atoms: C_4  and  C_5 
REMARK    4  A    between atoms: C_7  and  N_8 
REMARK    5  A    between atoms: C_17  and  O_18 
REMARK    6  A    between atoms: C_17  and  C_19 
REMARK    7  A    between atoms: C_22  and  O_23 
ROOT
HETATM    1  N   UNL     1     -42.670  56.494 -55.278  1.00  0.00    -0.349 N 
HETATM    2  C   UNL     1     -42.899  55.691 -56.373  1.00  0.00     0.270 C 
HETATM    3  O   UNL     1     -43.140  54.491 -56.305  1.00  0.00    -0.266 OA
HETATM    4  H   UNL     1     -42.512  57.479 -55.473  1.00  0.00     0.163 HD
ENDROOT
BRANCH   1   5
HETATM    5  C   UNL     1     -42.660  56.027 -53.893  1.00  0.00     0.114 C 
HETATM    6  C   UNL     1     -43.580  56.901 -53.035  1.00  0.00     0.035 C 
BRANCH   5   7
HETATM    7  C   UNL     1     -41.237  55.899 -53.268  1.00  0.00     0.173 C 
BRANCH   7   8
HETATM    8  O   UNL     1     -41.228  56.448 -51.941  1.00  0.00    -0.389 OA
HETATM    9  H   UNL     1     -40.365  56.217 -51.558  1.00  0.00     0.210 HD
ENDBRANCH   7   8
BRANCH   7  10
HETATM   10  C   UNL     1     -40.768  54.457 -53.180  1.00  0.00    -0.028 A 
HETATM   11  C   UNL     1     -40.536  53.723 -54.351  1.00  0.00     0.012 A 
HETATM   12  C   UNL     1     -40.112  52.393 -54.283  1.00  0.00     0.037 A 
HETATM   13  C   UNL     1     -39.901  51.775 -53.051  1.00  0.00     0.068 A 
HETATM   14  C   UNL     1     -40.138  52.493 -51.879  1.00  0.00     0.037 A 
HETATM   15  C   UNL     1     -40.571  53.822 -51.945  1.00  0.00     0.012 A 
BRANCH  13  16
HETATM   16  O   UNL     1     -39.473  50.477 -53.126  1.00  0.00    -0.356 OA
HETATM   17  C   UNL     1     -39.648  49.820 -54.375  1.00  0.00     0.210 C 
ENDBRANCH  13  16
ENDBRANCH   7  10
ENDBRANCH   5   7
ENDBRANCH   1   5
BRANCH   2  18
HETATM   18  C   UNL     1     -42.854  56.408 -57.689  1.00  0.00     0.126 A 
HETATM   19  N   UNL     1     -42.404  57.694 -57.659  1.00  0.00    -0.224 NA
HETATM   20  C   UNL     1     -42.356  58.349 -58.851  1.00  0.00     0.151 A 
HETATM   21  C   UNL     1     -42.755  57.764 -60.055  1.00  0.00     0.052 A 
HETATM   22  C   UNL     1     -43.215  56.449 -60.044  1.00  0.00     0.006 A 
HETATM   23  C   UNL     1     -43.262  55.752 -58.842  1.00  0.00     0.037 A 
BRANCH  20  24
HETATM   24  N   UNL     1     -41.862  59.689 -58.867  1.00  0.00    -0.227 N 
HETATM   25  N   UNL     1     -41.318  60.282 -57.767  1.00  0.00    -0.179 NA
HETATM   26  C   UNL     1     -40.997  61.511 -58.177  1.00  0.00     0.141 A 
HETATM   27  C   UNL     1     -41.320  61.734 -59.524  1.00  0.00     0.040 A 
HETATM   28  C   UNL     1     -41.872  60.549 -59.946  1.00  0.00     0.122 A 
ENDBRANCH  20  24
ENDBRANCH   2  18
TORSDOF 7
ENDMDL
MODEL 2
REMARK VINA RESULT:      -7.4      1.430      2.004
REMARK  7 active torsions:
REMARK  status: ('A' for Active; 'I' for Inactive)
REMARK    1  A    between atoms: C_2  and  N_3 
REMARK    2  A    between atoms: C_2  and  C_17 
REMARK       I    between atoms: N_3  and  C_4 
REMARK    3  A    between atoms: C_4  and  C_5 
REMARK    4  A    between atoms: C_7  and  N_8 
REMARK    5  A    between atoms: C_17  and  O_18 
REMARK    6  A    between atoms: C_17  and  C_19 
REMARK    7  A    between atoms: C_22  and  O_23 
ROOT
HETATM    1  N   UNL     1     -42.228  55.456 -56.579  1.00  0.00    -0.349 N 
HETATM    2  C   UNL     1     -42.474  56.810 -56.559  1.00  0.00     0.270 C 
HETATM    3  O   UNL     1     -42.672  57.456 -55.536  1.00  0.00    -0.266 OA
HETATM    4  H   UNL     1     -42.049  55.048 -57.493  1.00  0.00     0.163 HD
ENDROOT
BRANCH   1   5
HETATM    5  C   UNL     1     -42.189  54.600 -55.395  1.00  0.00     0.114 C 
HETATM    6  C   UNL     1     -43.535  54.650 -54.664  1.00  0.00     0.035 C 
BRANCH   5   7
HETATM    7  C   UNL     1     -40.999  54.888 -54.431  1.00  0.00     0.173 C 
BRANCH   7   8
HETATM    8  O   UNL     1     -41.383  55.855 -53.443  1.00  0.00    -0.389 OA
HETATM    9  H   UNL     1     -41.349  55.397 -52.586  1.00  0.00     0.210 HD
ENDBRANCH   7   8
BRANCH   7  10
HETATM   10  C   UNL     1     -40.524  53.642 -53.705  1.00  0.00    -0.028 A 
HETATM   11  C   UNL     1     -40.465  53.625 -52.305  1.00  0.00     0.012 A 
HETATM   12  C   UNL     1     -40.022  52.488 -51.625  1.00  0.00     0.037 A 
HETATM   13  C   UNL     1     -39.640  51.343 -52.326  1.00  0.00     0.068 A 
HETATM   14  C   UNL     1     -39.685  51.352 -53.719  1.00  0.00     0.037 A 
HETATM   15  C   UNL     1     -40.120  52.493 -54.402  1.00  0.00     0.012 A 
BRANCH  13  16
HETATM   16  O   UNL     1     -39.240  50.296 -51.540  1.00  0.00    -0.356 OA
HETATM   17  C   UNL     1     -39.981  50.078 -50.346  1.00  0.00     0.210 C 
ENDBRANCH  13  16
ENDBRANCH   7  10
ENDBRANCH   5   7
ENDBRANCH   1   5
BRANCH   2  18
HETATM   18  C   UNL     1     -42.462  57.464 -57.908  1.00  0.00     0.126 A 
HETATM   19  N   UNL     1     -42.024  58.753 -57.950  1.00  0.00    -0.224 NA
HETATM   20  C   UNL     1     -42.006  59.350 -59.173  1.00  0.00     0.151 A 
HETATM   21  C   UNL     1     -42.424  58.704 -60.338  1.00  0.00     0.052 A 
HETATM   22  C   UNL     1     -42.871  57.388 -60.255  1.00  0.00     0.006 A 
HETATM   23  C   UNL     1     -42.887  56.749 -59.020  1.00  0.00     0.037 A 
BRANCH  20  24
HETATM   24  N   UNL     1     -41.525  60.692 -59.263  1.00  0.00    -0.227 N 
HETATM   25  N   UNL     1     -41.468  61.372 -60.442  1.00  0.00    -0.179 NA
HETATM   26  C   UNL     1     -40.959  62.562 -60.115  1.00  0.00     0.141 A 
HETATM   27  C   UNL     1     -40.682  62.674 -58.744  1.00  0.00     0.040 A 
HETATM   28  C   UNL     1     -41.056  61.462 -58.217  1.00  0.00     0.122 A 
ENDBRANCH  20  24
ENDBRANCH   2  18
TORSDOF 7
ENDMDL
MODEL 3
REMARK VINA RESULT:      -7.3      1.977      3.623
REMARK  7 active torsions:
REMARK  status: ('A' for Active; 'I' for Inactive)
REMARK    1  A    between atoms: C_2  and  N_3 
REMARK    2  A    between atoms: C_2  and  C_17 
REMARK       I    between atoms: N_3  and  C_4 
REMARK    3  A    between atoms: C_4  and  C_5 
REMARK    4  A    between atoms: C_7  and  N_8 
REMARK    5  A    between atoms: C_17  and  O_18 
REMARK    6  A    between atoms: C_17  and  C_19 
REMARK    7  A    between atoms: C_22  and  O_23 
ROOT
HETATM    1  N   UNL     1     -42.566  57.326 -55.397  1.00  0.00    -0.349 N 
HETATM    2  C   UNL     1     -42.223  58.533 -55.964  1.00  0.00     0.270 C 
HETATM    3  O   UNL     1     -41.756  59.477 -55.337  1.00  0.00    -0.266 OA
HETATM    4  H   UNL     1     -42.914  56.616 -56.035  1.00  0.00     0.163 HD
ENDROOT
BRANCH   1   5
HETATM    5  C   UNL     1     -42.443  57.011 -53.975  1.00  0.00     0.114 C 
HETATM    6  C   UNL     1     -40.975  57.089 -53.542  1.00  0.00     0.035 C 
BRANCH   5   7
HETATM    7  C   UNL     1     -43.097  55.660 -53.556  1.00  0.00     0.173 C 
BRANCH   7   8
HETATM    8  O   UNL     1     -44.143  55.309 -54.474  1.00  0.00    -0.389 OA
HETATM    9  H   UNL     1     -44.548  54.496 -54.128  1.00  0.00     0.210 HD
ENDBRANCH   7   8
BRANCH   7  10
HETATM   10  C   UNL     1     -42.099  54.515 -53.525  1.00  0.00    -0.028 A 
HETATM   11  C   UNL     1     -41.625  54.031 -52.299  1.00  0.00     0.012 A 
HETATM   12  C   UNL     1     -40.700  52.984 -52.258  1.00  0.00     0.037 A 
HETATM   13  C   UNL     1     -40.240  52.394 -53.435  1.00  0.00     0.068 A 
HETATM   14  C   UNL     1     -40.698  52.874 -54.661  1.00  0.00     0.037 A 
HETATM   15  C   UNL     1     -41.617  53.929 -54.705  1.00  0.00     0.012 A 
BRANCH  13  16
HETATM   16  O   UNL     1     -39.349  51.370 -53.254  1.00  0.00    -0.356 OA
HETATM   17  C   UNL     1     -39.626  50.157 -53.942  1.00  0.00     0.210 C 
ENDBRANCH  13  16
ENDBRANCH   7  10
ENDBRANCH   5   7
ENDBRANCH   1   5
BRANCH   2  18
HETATM   18  C   UNL     1     -42.446  58.609 -57.444  1.00  0.00     0.126 A 
HETATM   19  N   UNL     1     -43.289  57.678 -57.975  1.00  0.00    -0.224 NA
HETATM   20  C   UNL     1     -43.499  57.745 -59.318  1.00  0.00     0.151 A 
HETATM   21  C   UNL     1     -42.886  58.696 -60.136  1.00  0.00     0.052 A 
HETATM   22  C   UNL     1     -42.027  59.628 -59.558  1.00  0.00     0.006 A 
HETATM   23  C   UNL     1     -41.804  59.591 -58.186  1.00  0.00     0.037 A 
BRANCH  20  24
HETATM   24  N   UNL     1     -44.399  56.805 -59.909  1.00  0.00    -0.227 N 
HETATM   25  N   UNL     1     -43.971  55.762 -60.673  1.00  0.00    -0.179 NA
HETATM   26  C   UNL     1     -45.091  55.139 -61.042  1.00  0.00     0.141 A 
HETATM   27  C   UNL     1     -46.246  55.753 -60.533  1.00  0.00     0.040 A 
HETATM   28  C   UNL     1     -45.775  56.820 -59.807  1.00  0.00     0.122 A 
ENDBRANCH  20  24
ENDBRANCH   2  18
TORSDOF 7
ENDMDL
MODEL 4
REMARK VINA RESULT:      -7.3      3.109      7.663
REMARK  7 active torsions:
REMARK  status: ('A' for Active; 'I' for Inactive)
REMARK    1  A    between atoms: C_2  and  N_3 
REMARK    2  A    between atoms: C_2  and  C_17 
REMARK       I    between atoms: N_3  and  C_4 
REMARK    3  A    between atoms: C_4  and  C_5 
REMARK    4  A    between atoms: C_7  and  N_8 
REMARK    5  A    between atoms: C_17  and  O_18 
REMARK    6  A    between atoms: C_17  and  C_19 
REMARK    7  A    between atoms: C_22  and  O_23 
ROOT
HETATM    1  N   UNL     1     -42.494  55.584 -55.039  1.00  0.00    -0.349 N 
HETATM    2  C   UNL     1     -42.611  54.212 -55.010  1.00  0.00     0.270 C 
HETATM    3  O   UNL     1     -43.407  53.577 -55.692  1.00  0.00    -0.266 OA
HETATM    4  H   UNL     1     -41.771  55.982 -54.445  1.00  0.00     0.163 HD
ENDROOT
BRANCH   1   5
HETATM    5  C   UNL     1     -43.312  56.470 -55.864  1.00  0.00     0.114 C 
HETATM    6  C   UNL     1     -42.421  57.279 -56.813  1.00  0.00     0.035 C 
BRANCH   5   7
HETATM    7  C   UNL     1     -44.279  57.389 -55.057  1.00  0.00     0.173 C 
BRANCH   7   8
HETATM    8  O   UNL     1     -45.448  56.655 -54.663  1.00  0.00    -0.389 OA
HETATM    9  H   UNL     1     -45.821  57.126 -53.899  1.00  0.00     0.210 HD
ENDBRANCH   7   8
BRANCH   7  10
HETATM   10  C   UNL     1     -43.636  57.951 -53.801  1.00  0.00    -0.028 A 
HETATM   11  C   UNL     1     -42.796  59.070 -53.884  1.00  0.00     0.012 A 
HETATM   12  C   UNL     1     -42.191  59.591 -52.737  1.00  0.00     0.037 A 
HETATM   13  C   UNL     1     -42.421  59.015 -51.487  1.00  0.00     0.068 A 
HETATM   14  C   UNL     1     -43.247  57.896 -51.394  1.00  0.00     0.037 A 
HETATM   15  C   UNL     1     -43.846  57.367 -52.543  1.00  0.00     0.012 A 
BRANCH  13  16
HETATM   16  O   UNL     1     -41.781  59.631 -50.446  1.00  0.00    -0.356 OA
HETATM   17  C   UNL     1     -40.359  59.590 -50.458  1.00  0.00     0.210 C 
ENDBRANCH  13  16
ENDBRANCH   7  10
ENDBRANCH   5   7
ENDBRANCH   1   5
BRANCH   2  18
HETATM   18  C   UNL     1     -41.657  53.527 -54.078  1.00  0.00     0.126 A 
HETATM   19  N   UNL     1     -41.656  53.965 -52.788  1.00  0.00    -0.224 NA
HETATM   20  C   UNL     1     -40.795  53.343 -51.936  1.00  0.00     0.151 A 
HETATM   21  C   UNL     1     -39.937  52.319 -52.339  1.00  0.00     0.052 A 
HETATM   22  C   UNL     1     -39.963  51.901 -53.667  1.00  0.00     0.006 A 
HETATM   23  C   UNL     1     -40.841  52.510 -54.557  1.00  0.00     0.037 A 
BRANCH  20  24
HETATM   24  N   UNL     1     -40.785  53.754 -50.567  1.00  0.00    -0.227 N 
HETATM   25  N   UNL     1     -40.359  52.940 -49.562  1.00  0.00    -0.179 NA
HETATM   26  C   UNL     1     -40.515  53.669 -48.455  1.00  0.00     0.141 A 
HETATM   27  C   UNL     1     -41.035  54.945 -48.717  1.00  0.00     0.040 A 
HETATM   28  C   UNL     1     -41.199  54.977 -50.080  1.00  0.00     0.122 A 
ENDBRANCH  20  24
ENDBRANCH   2  18
TORSDOF 7
ENDMDL
MODEL 5
REMARK VINA RESULT:      -7.2      2.547      2.970
REMARK  7 active torsions:
REMARK  status: ('A' for Active; 'I' for Inactive)
REMARK    1  A    between atoms: C_2  and  N_3 
REMARK    2  A    between atoms: C_2  and  C_17 
REMARK       I    between atoms: N_3  and  C_4 
REMARK    3  A    between atoms: C_4  and  C_5 
REMARK    4  A    between atoms: C_7  and  N_8 
REMARK    5  A    between atoms: C_17  and  O_18 
REMARK    6  A    between atoms: C_17  and  C_19 
REMARK    7  A    between atoms: C_22  and  O_23 
ROOT
HETATM    1  N   UNL     1     -43.391  54.646 -56.396  1.00  0.00    -0.349 N 
HETATM    2  C   UNL     1     -43.129  55.772 -57.144  1.00  0.00     0.270 C 
HETATM    3  O   UNL     1     -42.364  56.664 -56.795  1.00  0.00    -0.266 OA
HETATM    4  H   UNL     1     -44.022  53.969 -56.815  1.00  0.00     0.163 HD
ENDROOT
BRANCH   1   5
HETATM    5  C   UNL     1     -42.815  54.369 -55.081  1.00  0.00     0.114 C 
HETATM    6  C   UNL     1     -43.405  55.320 -54.035  1.00  0.00     0.035 C 
BRANCH   5   7
HETATM    7  C   UNL     1     -41.257  54.370 -55.048  1.00  0.00     0.173 C 
BRANCH   7   8
HETATM    8  O   UNL     1     -40.768  55.687 -54.751  1.00  0.00    -0.389 OA
HETATM    9  H   UNL     1     -40.617  56.121 -55.608  1.00  0.00     0.210 HD
ENDBRANCH   7   8
BRANCH   7  10
HETATM   10  C   UNL     1     -40.696  53.418 -54.007  1.00  0.00    -0.028 A 
HETATM   11  C   UNL     1     -40.337  52.113 -54.370  1.00  0.00     0.012 A 
HETATM   12  C   UNL     1     -39.828  51.224 -53.420  1.00  0.00     0.037 A 
HETATM   13  C   UNL     1     -39.657  51.622 -52.093  1.00  0.00     0.068 A 
HETATM   14  C   UNL     1     -40.020  52.915 -51.718  1.00  0.00     0.037 A 
HETATM   15  C   UNL     1     -40.538  53.803 -52.667  1.00  0.00     0.012 A 
BRANCH  13  16
HETATM   16  O   UNL     1     -39.137  50.661 -51.269  1.00  0.00    -0.356 OA
HETATM   17  C   UNL     1     -39.760  49.384 -51.308  1.00  0.00     0.210 C 
ENDBRANCH  13  16
ENDBRANCH   7  10
ENDBRANCH   5   7
ENDBRANCH   1   5
BRANCH   2  18
HETATM   18  C   UNL     1     -43.846  55.824 -58.459  1.00  0.00     0.126 A 
HETATM   19  N   UNL     1     -44.401  57.023 -58.796  1.00  0.00    -0.224 NA
HETATM   20  C   UNL     1     -45.049  57.078 -59.991  1.00  0.00     0.151 A 
HETATM   21  C   UNL     1     -45.169  55.976 -60.841  1.00  0.00     0.052 A 
HETATM   22  C   UNL     1     -44.593  54.766 -60.460  1.00  0.00     0.006 A 
HETATM   23  C   UNL     1     -43.913  54.685 -59.249  1.00  0.00     0.037 A 
BRANCH  20  24
HETATM   24  N   UNL     1     -45.619  58.324 -60.395  1.00  0.00    -0.227 N 
HETATM   25  N   UNL     1     -44.859  59.416 -60.687  1.00  0.00    -0.179 NA
HETATM   26  C   UNL     1     -45.746  60.363 -61.000  1.00  0.00     0.141 A 
HETATM   27  C   UNL     1     -47.072  59.912 -60.919  1.00  0.00     0.040 A 
HETATM   28  C   UNL     1     -46.965  58.599 -60.530  1.00  0.00     0.122 A 
ENDBRANCH  20  24
ENDBRANCH   2  18
TORSDOF 7
ENDMDL
MODEL 6
REMARK VINA RESULT:      -7.2      2.409      3.537
REMARK  7 active torsions:
REMARK  status: ('A' for Active; 'I' for Inactive)
REMARK    1  A    between atoms: C_2  and  N_3 
REMARK    2  A    between atoms: C_2  and  C_17 
REMARK       I    between atoms: N_3  and  C_4 
REMARK    3  A    between atoms: C_4  and  C_5 
REMARK    4  A    between atoms: C_7  and  N_8 
REMARK    5  A    between atoms: C_17  and  O_18 
REMARK    6  A    between atoms: C_17  and  C_19 
REMARK    7  A    between atoms: C_22  and  O_23 
ROOT
HETATM    1  N   UNL     1     -42.608  55.500 -56.613  1.00  0.00    -0.349 N 
HETATM    2  C   UNL     1     -42.659  56.876 -56.653  1.00  0.00     0.270 C 
HETATM    3  O   UNL     1     -42.481  57.597 -55.678  1.00  0.00    -0.266 OA
HETATM    4  H   UNL     1     -42.744  55.023 -57.500  1.00  0.00     0.163 HD
ENDROOT
BRANCH   1   5
HETATM    5  C   UNL     1     -42.358  54.713 -55.408  1.00  0.00     0.114 C 
HETATM    6  C   UNL     1     -43.489  54.923 -54.395  1.00  0.00     0.035 C 
BRANCH   5   7
HETATM    7  C   UNL     1     -40.957  54.947 -54.765  1.00  0.00     0.173 C 
BRANCH   7   8
HETATM    8  O   UNL     1     -40.972  56.137 -53.964  1.00  0.00    -0.389 OA
HETATM    9  H   UNL     1     -41.854  56.531 -54.077  1.00  0.00     0.210 HD
ENDBRANCH   7   8
BRANCH   7  10
HETATM   10  C   UNL     1     -40.523  53.793 -53.879  1.00  0.00    -0.028 A 
HETATM   11  C   UNL     1     -40.491  53.951 -52.487  1.00  0.00     0.012 A 
HETATM   12  C   UNL     1     -40.085  52.899 -51.661  1.00  0.00     0.037 A 
HETATM   13  C   UNL     1     -39.716  51.669 -52.205  1.00  0.00     0.068 A 
HETATM   14  C   UNL     1     -39.735  51.503 -53.589  1.00  0.00     0.037 A 
HETATM   15  C   UNL     1     -40.132  52.558 -54.418  1.00  0.00     0.012 A 
BRANCH  13  16
HETATM   16  O   UNL     1     -39.354  50.720 -51.286  1.00  0.00    -0.356 OA
HETATM   17  C   UNL     1     -39.619  49.367 -51.631  1.00  0.00     0.210 C 
ENDBRANCH  13  16
ENDBRANCH   7  10
ENDBRANCH   5   7
ENDBRANCH   1   5
BRANCH   2  18
HETATM   18  C   UNL     1     -42.935  57.448 -58.011  1.00  0.00     0.126 A 
HETATM   19  N   UNL     1     -44.169  57.198 -58.531  1.00  0.00    -0.224 NA
HETATM   20  C   UNL     1     -44.427  57.719 -59.762  1.00  0.00     0.151 A 
HETATM   21  C   UNL     1     -43.489  58.461 -60.483  1.00  0.00     0.052 A 
HETATM   22  C   UNL     1     -42.236  58.691 -59.921  1.00  0.00     0.006 A 
HETATM   23  C   UNL     1     -41.950  58.181 -58.659  1.00  0.00     0.037 A 
BRANCH  20  24
HETATM   24  N   UNL     1     -45.720  57.504 -60.329  1.00  0.00    -0.227 N 
HETATM   25  N   UNL     1     -46.175  56.266 -60.669  1.00  0.00    -0.179 NA
HETATM   26  C   UNL     1     -47.393  56.484 -61.168  1.00  0.00     0.141 A 
HETATM   27  C   UNL     1     -47.745  57.842 -61.161  1.00  0.00     0.040 A 
HETATM   28  C   UNL     1     -46.656  58.477 -60.616  1.00  0.00     0.122 A 
ENDBRANCH  20  24
ENDBRANCH   2  18
TORSDOF 7
ENDMDL
MODEL 7
REMARK VINA RESULT:      -7.0      2.325      3.546
REMARK  7 active torsions:
REMARK  status: ('A' for Active; 'I' for Inactive)
REMARK    1  A    between atoms: C_2  and  N_3 
REMARK    2  A    between atoms: C_2  and  C_17 
REMARK       I    between atoms: N_3  and  C_4 
REMARK    3  A    between atoms: C_4  and  C_5 
REMARK    4  A    between atoms: C_7  and  N_8 
REMARK    5  A    between atoms: C_17  and  O_18 
REMARK    6  A    between atoms: C_17  and  C_19 
REMARK    7  A    between atoms: C_22  and  O_23 
ROOT
HETATM    1  N   UNL     1     -43.015  56.553 -53.320  1.00  0.00    -0.349 N 
HETATM    2  C   UNL     1     -43.271  55.814 -54.454  1.00  0.00     0.270 C 
HETATM    3  O   UNL     1     -43.583  54.630 -54.443  1.00  0.00    -0.266 OA
HETATM    4  H   UNL     1     -42.796  57.535 -53.468  1.00  0.00     0.163 HD
ENDROOT
BRANCH   1   5
HETATM    5  C   UNL     1     -43.060  56.027 -51.957  1.00  0.00     0.114 C 
HETATM    6  C   UNL     1     -44.073  56.815 -51.120  1.00  0.00     0.035 C 
BRANCH   5   7
HETATM    7  C   UNL     1     -41.671  55.944 -51.254  1.00  0.00     0.173 C 
BRANCH   7   8
HETATM    8  O   UNL     1     -41.792  56.309 -49.871  1.00  0.00    -0.389 OA
HETATM    9  H   UNL     1     -42.418  55.678 -49.477  1.00  0.00     0.210 HD
ENDBRANCH   7   8
BRANCH   7  10
HETATM   10  C   UNL     1     -41.069  54.551 -51.318  1.00  0.00    -0.028 A 
HETATM   11  C   UNL     1     -40.903  53.804 -50.144  1.00  0.00     0.012 A 
HETATM   12  C   UNL     1     -40.342  52.525 -50.188  1.00  0.00     0.037 A 
HETATM   13  C   UNL     1     -39.948  51.962 -51.402  1.00  0.00     0.068 A 
HETATM   14  C   UNL     1     -40.100  52.700 -52.576  1.00  0.00     0.037 A 
HETATM   15  C   UNL     1     -40.653  53.985 -52.532  1.00  0.00     0.012 A 
BRANCH  13  16
HETATM   16  O   UNL     1     -39.429  50.699 -51.308  1.00  0.00    -0.356 OA
HETATM   17  C   UNL     1     -39.723  49.809 -52.376  1.00  0.00     0.210 C 
ENDBRANCH  13  16
ENDBRANCH   7  10
ENDBRANCH   5   7
ENDBRANCH   1   5
BRANCH   2  18
HETATM   18  C   UNL     1     -43.158  56.584 -55.735  1.00  0.00     0.126 A 
HETATM   19  N   UNL     1     -43.802  56.056 -56.814  1.00  0.00    -0.224 NA
HETATM   20  C   UNL     1     -43.707  56.754 -57.979  1.00  0.00     0.151 A 
HETATM   21  C   UNL     1     -42.982  57.941 -58.096  1.00  0.00     0.052 A 
HETATM   22  C   UNL     1     -42.332  58.447 -56.972  1.00  0.00     0.006 A 
HETATM   23  C   UNL     1     -42.423  57.762 -55.765  1.00  0.00     0.037 A 
BRANCH  20  24
HETATM   24  N   UNL     1     -44.393  56.249 -59.126  1.00  0.00    -0.227 N 
HETATM   25  N   UNL     1     -43.885  55.253 -59.904  1.00  0.00    -0.179 NA
HETATM   26  C   UNL     1     -44.798  55.081 -60.862  1.00  0.00     0.141 A 
HETATM   27  C   UNL     1     -45.895  55.945 -60.726  1.00  0.00     0.040 A 
HETATM   28  C   UNL     1     -45.613  56.684 -59.603  1.00  0.00     0.122 A 
ENDBRANCH  20  24
ENDBRANCH   2  18
TORSDOF 7
ENDMDL
MODEL 8
REMARK VINA RESULT:      -7.0      2.498      3.131
REMARK  7 active torsions:
REMARK  status: ('A' for Active; 'I' for Inactive)
REMARK    1  A    between atoms: C_2  and  N_3 
REMARK    2  A    between atoms: C_2  and  C_17 
REMARK       I    between atoms: N_3  and  C_4 
REMARK    3  A    between atoms: C_4  and  C_5 
REMARK    4  A    between atoms: C_7  and  N_8 
REMARK    5  A    between atoms: C_17  and  O_18 
REMARK    6  A    between atoms: C_17  and  C_19 
REMARK    7  A    between atoms: C_22  and  O_23 
ROOT
HETATM    1  N   UNL     1     -42.626  56.709 -55.211  1.00  0.00    -0.349 N 
HETATM    2  C   UNL     1     -43.793  57.125 -55.814  1.00  0.00     0.270 C 
HETATM    3  O   UNL     1     -44.723  57.652 -55.215  1.00  0.00    -0.266 OA
HETATM    4  H   UNL     1     -41.921  56.315 -55.829  1.00  0.00     0.163 HD
ENDROOT
BRANCH   1   5
HETATM    5  C   UNL     1     -42.345  56.818 -53.781  1.00  0.00     0.114 C 
HETATM    6  C   UNL     1     -40.859  57.116 -53.556  1.00  0.00     0.035 C 
BRANCH   5   7
HETATM    7  C   UNL     1     -42.822  55.597 -52.937  1.00  0.00     0.173 C 
BRANCH   7   8
HETATM    8  O   UNL     1     -44.145  55.207 -53.333  1.00  0.00    -0.389 OA
HETATM    9  H   UNL     1     -44.563  54.822 -52.544  1.00  0.00     0.210 HD
ENDBRANCH   7   8
BRANCH   7  10
HETATM   10  C   UNL     1     -41.913  54.391 -53.094  1.00  0.00    -0.028 A 
HETATM   11  C   UNL     1     -41.038  54.032 -52.059  1.00  0.00     0.012 A 
HETATM   12  C   UNL     1     -40.191  52.930 -52.194  1.00  0.00     0.037 A 
HETATM   13  C   UNL     1     -40.207  52.158 -53.356  1.00  0.00     0.068 A 
HETATM   14  C   UNL     1     -41.066  52.511 -54.396  1.00  0.00     0.037 A 
HETATM   15  C   UNL     1     -41.909  53.620 -54.266  1.00  0.00     0.012 A 
BRANCH  13  16
HETATM   16  O   UNL     1     -39.339  51.099 -53.354  1.00  0.00    -0.356 OA
HETATM   17  C   UNL     1     -39.615  50.048 -54.270  1.00  0.00     0.210 C 
ENDBRANCH  13  16
ENDBRANCH   7  10
ENDBRANCH   5   7
ENDBRANCH   1   5
BRANCH   2  18
HETATM   18  C   UNL     1     -43.840  56.902 -57.295  1.00  0.00     0.126 A 
HETATM   19  N   UNL     1     -44.750  57.643 -57.988  1.00  0.00    -0.224 NA
HETATM   20  C   UNL     1     -44.794  57.449 -59.334  1.00  0.00     0.151 A 
HETATM   21  C   UNL     1     -43.972  56.534 -59.995  1.00  0.00     0.052 A 
HETATM   22  C   UNL     1     -43.058  55.791 -59.253  1.00  0.00     0.006 A 
HETATM   23  C   UNL     1     -42.982  55.979 -57.878  1.00  0.00     0.037 A 
BRANCH  20  24
HETATM   24  N   UNL     1     -45.715  58.228 -60.099  1.00  0.00    -0.227 N 
HETATM   25  N   UNL     1     -45.442  59.502 -60.497  1.00  0.00    -0.179 NA
HETATM   26  C   UNL     1     -46.535  59.883 -61.163  1.00  0.00     0.141 A 
HETATM   27  C   UNL     1     -47.517  58.882 -61.209  1.00  0.00     0.040 A 
HETATM   28  C   UNL     1     -46.967  57.829 -60.521  1.00  0.00     0.122 A 
ENDBRANCH  20  24
ENDBRANCH   2  18
TORSDOF 7
ENDMDL
MODEL 9
REMARK VINA RESULT:      -6.9      5.167      7.464
REMARK  7 active torsions:
REMARK  status: ('A' for Active; 'I' for Inactive)
REMARK    1  A    between atoms: C_2  and  N_3 
REMARK    2  A    between atoms: C_2  and  C_17 
REMARK       I    between atoms: N_3  and  C_4 
REMARK    3  A    between atoms: C_4  and  C_5 
REMARK    4  A    between atoms: C_7  and  N_8 
REMARK    5  A    between atoms: C_17  and  O_18 
REMARK    6  A    between atoms: C_17  and  C_19 
REMARK    7  A    between atoms: C_22  and  O_23 
ROOT
HETATM    1  N   UNL     1     -43.494  57.437 -50.942  1.00  0.00    -0.349 N 
HETATM    2  C   UNL     1     -44.327  58.143 -51.781  1.00  0.00     0.270 C 
HETATM    3  O   UNL     1     -44.806  57.687 -52.812  1.00  0.00    -0.266 OA
HETATM    4  H   UNL     1     -43.190  57.924 -50.102  1.00  0.00     0.163 HD
ENDROOT
BRANCH   1   5
HETATM    5  C   UNL     1     -43.051  56.064 -51.172  1.00  0.00     0.114 C 
HETATM    6  C   UNL     1     -43.967  55.082 -50.433  1.00  0.00     0.035 C 
BRANCH   5   7
HETATM    7  C   UNL     1     -41.548  55.809 -50.845  1.00  0.00     0.173 C 
BRANCH   7   8
HETATM    8  O   UNL     1     -41.366  55.666 -49.429  1.00  0.00    -0.389 OA
HETATM    9  H   UNL     1     -42.215  55.352 -49.075  1.00  0.00     0.210 HD
ENDBRANCH   7   8
BRANCH   7  10
HETATM   10  C   UNL     1     -41.013  54.554 -51.513  1.00  0.00    -0.028 A 
HETATM   11  C   UNL     1     -40.327  53.594 -50.756  1.00  0.00     0.012 A 
HETATM   12  C   UNL     1     -39.822  52.440 -51.361  1.00  0.00     0.037 A 
HETATM   13  C   UNL     1     -40.000  52.216 -52.726  1.00  0.00     0.068 A 
HETATM   14  C   UNL     1     -40.672  53.168 -53.491  1.00  0.00     0.037 A 
HETATM   15  C   UNL     1     -41.170  54.329 -52.889  1.00  0.00     0.012 A 
BRANCH  13  16
HETATM   16  O   UNL     1     -39.470  51.041 -53.188  1.00  0.00    -0.356 OA
HETATM   17  C   UNL     1     -40.120  50.444 -54.303  1.00  0.00     0.210 C 
ENDBRANCH  13  16
ENDBRANCH   7  10
ENDBRANCH   5   7
ENDBRANCH   1   5
BRANCH   2  18
HETATM   18  C   UNL     1     -44.632  59.538 -51.324  1.00  0.00     0.126 A 
HETATM   19  N   UNL     1     -45.160  59.660 -50.073  1.00  0.00    -0.224 NA
HETATM   20  C   UNL     1     -45.435  60.924 -49.650  1.00  0.00     0.151 A 
HETATM   21  C   UNL     1     -45.211  62.053 -50.441  1.00  0.00     0.052 A 
HETATM   22  C   UNL     1     -44.675  61.888 -51.716  1.00  0.00     0.006 A 
HETATM   23  C   UNL     1     -44.373  60.609 -52.168  1.00  0.00     0.037 A 
BRANCH  20  24
HETATM   24  N   UNL     1     -45.962  61.097 -48.334  1.00  0.00    -0.227 N 
HETATM   25  N   UNL     1     -45.966  60.096 -47.409  1.00  0.00    -0.179 NA
HETATM   26  C   UNL     1     -46.543  60.639 -46.335  1.00  0.00     0.141 A 
HETATM   27  C   UNL     1     -46.916  61.976 -46.539  1.00  0.00     0.040 A 
HETATM   28  C   UNL     1     -46.532  62.248 -47.829  1.00  0.00     0.122 A 
ENDBRANCH  20  24
ENDBRANCH   2  18
TORSDOF 7
ENDMDL
MODEL 10
REMARK VINA RESULT:      -6.9      3.175      7.973
REMARK  7 active torsions:
REMARK  status: ('A' for Active; 'I' for Inactive)
REMARK    1  A    between atoms: C_2  and  N_3 
REMARK    2  A    between atoms: C_2  and  C_17 
REMARK       I    between atoms: N_3  and  C_4 
REMARK    3  A    between atoms: C_4  and  C_5 
REMARK    4  A    between atoms: C_7  and  N_8 
REMARK    5  A    between atoms: C_17  and  O_18 
REMARK    6  A    between atoms: C_17  and  C_19 
REMARK    7  A    between atoms: C_22  and  O_23 
ROOT
HETATM    1  N   UNL     1     -42.749  56.989 -52.341  1.00  0.00    -0.349 N 
HETATM    2  C   UNL     1     -41.484  56.560 -52.674  1.00  0.00     0.270 C 
HETATM    3  O   UNL     1     -40.769  57.110 -53.504  1.00  0.00    -0.266 OA
HETATM    4  H   UNL     1     -43.222  56.460 -51.614  1.00  0.00     0.163 HD
ENDROOT
BRANCH   1   5
HETATM    5  C   UNL     1     -43.420  58.141 -52.940  1.00  0.00     0.114 C 
HETATM    6  C   UNL     1     -43.926  59.086 -51.845  1.00  0.00     0.035 C 
BRANCH   5   7
HETATM    7  C   UNL     1     -44.548  57.773 -53.952  1.00  0.00     0.173 C 
BRANCH   7   8
HETATM    8  O   UNL     1     -45.473  58.863 -54.081  1.00  0.00    -0.389 OA
HETATM    9  H   UNL     1     -44.966  59.673 -53.902  1.00  0.00     0.210 HD
ENDBRANCH   7   8
BRANCH   7  10
HETATM   10  C   UNL     1     -44.008  57.453 -55.334  1.00  0.00    -0.028 A 
HETATM   11  C   UNL     1     -43.500  56.176 -55.611  1.00  0.00     0.012 A 
HETATM   12  C   UNL     1     -42.992  55.872 -56.876  1.00  0.00     0.037 A 
HETATM   13  C   UNL     1     -42.991  56.829 -57.892  1.00  0.00     0.068 A 
HETATM   14  C   UNL     1     -43.484  58.105 -57.625  1.00  0.00     0.037 A 
HETATM   15  C   UNL     1     -43.985  58.414 -56.356  1.00  0.00     0.012 A 
BRANCH  13  16
HETATM   16  O   UNL     1     -42.479  56.397 -59.086  1.00  0.00    -0.356 OA
HETATM   17  C   UNL     1     -42.183  57.398 -60.051  1.00  0.00     0.210 C 
ENDBRANCH  13  16
ENDBRANCH   7  10
ENDBRANCH   5   7
ENDBRANCH   1   5
BRANCH   2  18
HETATM   18  C   UNL     1     -41.019  55.352 -51.918  1.00  0.00     0.126 A 
HETATM   19  N   UNL     1     -40.814  54.222 -52.653  1.00  0.00    -0.224 NA
HETATM   20  C   UNL     1     -40.387  53.124 -51.973  1.00  0.00     0.151 A 
HETATM   21  C   UNL     1     -40.177  53.121 -50.592  1.00  0.00     0.052 A 
HETATM   22  C   UNL     1     -40.402  54.293 -49.874  1.00  0.00     0.006 A 
HETATM   23  C   UNL     1     -40.826  55.434 -50.546  1.00  0.00     0.037 A 
BRANCH  20  24
HETATM   24  N   UNL     1     -40.132  51.928 -52.712  1.00  0.00    -0.227 N 
HETATM   25  N   UNL     1     -39.633  50.801 -52.132  1.00  0.00    -0.179 NA
HETATM   26  C   UNL     1     -39.526  49.930 -53.137  1.00  0.00     0.141 A 
HETATM   27  C   UNL     1     -39.946  50.465 -54.364  1.00  0.00     0.040 A 
HETATM   28  C   UNL     1     -40.333  51.748 -54.065  1.00  0.00     0.122 A 
ENDBRANCH  20  24
ENDBRANCH   2  18
TORSDOF 7
ENDMDL
