MODEL 1
REMARK VINA RESULT:      -7.8      0.000      0.000
REMARK  10 active torsions:
REMARK  status: ('A' for Active; 'I' for Inactive)
REMARK    1  A    between atoms: C_2  and  N_3 
REMARK    2  A    between atoms: N_3  and  C_5 
REMARK    3  A    between atoms: N_3  and  C_34 
REMARK    4  A    between atoms: C_5  and  C_6 
REMARK    5  A    between atoms: N_7  and  C_8 
REMARK    6  A    between atoms: C_12  and  N_13 
REMARK    7  A    between atoms: C_16  and  C_17 
REMARK       I    between atoms: C_17  and  N_18 
REMARK    8  A    between atoms: N_18  and  N_19 
REMARK    9  A    between atoms: C_20  and  C_21 
REMARK   10  A    between atoms: C_23  and  C_24 
ROOT
HETATM    1  C   UNL     1     -40.887  53.694 -52.838  1.00  0.00     0.096 A 
HETATM    2  N   UNL     1     -40.371  52.585 -53.503  1.00  0.00    -0.215 N 
HETATM    3  N   UNL     1     -40.272  52.877 -54.827  1.00  0.00     0.012 NA
HETATM    4  N   UNL     1     -40.603  54.143 -55.022  1.00  0.00    -0.152 NA
HETATM    5  C   UNL     1     -40.978  54.671 -53.822  1.00  0.00     0.170 A 
ENDROOT
BRANCH   5   6
HETATM    6  C   UNL     1     -41.392  56.056 -53.637  1.00  0.00     0.293 C 
HETATM    7  N   UNL     1     -42.748  56.220 -53.424  1.00  0.00    -0.242 N 
HETATM    8  H   UNL     1     -43.369  55.414 -53.406  1.00  0.00     0.192 HD
HETATM    9  O   UNL     1     -40.562  56.960 -53.709  1.00  0.00    -0.264 OA
BRANCH   7  10
HETATM   10  N   UNL     1     -43.240  57.478 -53.237  1.00  0.00    -0.181 NA
HETATM   11  C   UNL     1     -44.124  57.624 -52.301  1.00  0.00     0.175 C 
BRANCH  11  12
HETATM   12  C   UNL     1     -44.683  58.917 -52.034  1.00  0.00     0.095 A 
HETATM   13  O   UNL     1     -44.569  59.423 -50.772  1.00  0.00    -0.309 OA
HETATM   14  C   UNL     1     -45.176  60.650 -50.758  1.00  0.00     0.086 A 
HETATM   15  C   UNL     1     -45.670  60.928 -52.019  1.00  0.00     0.041 A 
HETATM   16  C   UNL     1     -45.357  59.815 -52.836  1.00  0.00     0.041 A 
BRANCH  14  17
HETATM   17  C   UNL     1     -45.177  61.367 -49.485  1.00  0.00    -0.002 A 
HETATM   18  C   UNL     1     -44.829  62.726 -49.411  1.00  0.00     0.015 A 
HETATM   19  C   UNL     1     -44.823  63.402 -48.186  1.00  0.00     0.020 A 
HETATM   20  C   UNL     1     -45.166  62.724 -47.021  1.00  0.00     0.011 A 
HETATM   21 BR   UNL     1     -45.156  63.634 -45.365  1.00  0.00    -0.051 Br
HETATM   22  C   UNL     1     -45.516  61.378 -47.068  1.00  0.00     0.020 A 
HETATM   23  C   UNL     1     -45.520  60.705 -48.296  1.00  0.00     0.015 A 
ENDBRANCH  14  17
ENDBRANCH  11  12
ENDBRANCH   7  10
ENDBRANCH   5   6
BRANCH   1  24
HETATM   24  C   UNL     1     -41.320  53.729 -51.420  1.00  0.00     0.296 C 
BRANCH  24  25
HETATM   25  N   UNL     1     -40.600  54.724 -50.524  1.00  0.00    -0.066 N 
HETATM   26  H   UNL     1     -39.937  55.233 -51.127  1.00  0.00     0.280 HD
BRANCH  25  27
HETATM   27  C   UNL     1     -39.783  54.003 -49.458  1.00  0.00     0.231 C 
HETATM   28  C   UNL     1     -40.450  54.093 -48.096  1.00  0.00     0.034 C 
ENDBRANCH  25  27
BRANCH  25  29
HETATM   29  C   UNL     1     -41.551  55.734 -49.896  1.00  0.00     0.231 C 
HETATM   30  C   UNL     1     -41.131  57.157 -50.227  1.00  0.00     0.034 C 
ENDBRANCH  25  29
ENDBRANCH  24  25
ENDBRANCH   1  24
BRANCH   2  31
HETATM   31  C   UNL     1     -39.941  51.351 -52.961  1.00  0.00     0.225 A 
HETATM   32  N   UNL     1     -39.443  51.307 -51.721  1.00  0.00    -0.081 NA
HETATM   33  O   UNL     1     -39.116  49.959 -51.545  1.00  0.00    -0.103 OA
HETATM   34  N   UNL     1     -39.394  49.223 -52.688  1.00  0.00    -0.083 NA
HETATM   35  C   UNL     1     -39.902  50.085 -53.567  1.00  0.00     0.201 A 
BRANCH  35  36
HETATM   36  N   UNL     1     -40.307  49.761 -54.804  1.00  0.00    -0.379 N 
HETATM   37  H   UNL     1     -40.874  48.932 -54.959  1.00  0.00     0.158 HD
HETATM   38  H   UNL     1     -39.951  50.197 -55.653  1.00  0.00     0.158 HD
ENDBRANCH  35  36
ENDBRANCH   2  31
TORSDOF 10
ENDMDL
MODEL 2
REMARK VINA RESULT:      -7.6      1.836      3.150
REMARK  10 active torsions:
REMARK  status: ('A' for Active; 'I' for Inactive)
REMARK    1  A    between atoms: C_2  and  N_3 
REMARK    2  A    between atoms: N_3  and  C_5 
REMARK    3  A    between atoms: N_3  and  C_34 
REMARK    4  A    between atoms: C_5  and  C_6 
REMARK    5  A    between atoms: N_7  and  C_8 
REMARK    6  A    between atoms: C_12  and  N_13 
REMARK    7  A    between atoms: C_16  and  C_17 
REMARK       I    between atoms: C_17  and  N_18 
REMARK    8  A    between atoms: N_18  and  N_19 
REMARK    9  A    between atoms: C_20  and  C_21 
REMARK   10  A    between atoms: C_23  and  C_24 
ROOT
HETATM    1  C   UNL     1     -40.972  53.395 -52.204  1.00  0.00     0.096 A 
HETATM    2  N   UNL     1     -40.025  52.410 -51.933  1.00  0.00    -0.215 N 
HETATM    3  N   UNL     1     -39.327  52.770 -50.823  1.00  0.00     0.012 NA
HETATM    4  N   UNL     1     -39.847  53.877 -50.320  1.00  0.00    -0.152 NA
HETATM    5  C   UNL     1     -40.859  54.280 -51.140  1.00  0.00     0.170 A 
ENDROOT
BRANCH   5   6
HETATM    6  C   UNL     1     -41.682  55.457 -50.897  1.00  0.00     0.293 C 
HETATM    7  N   UNL     1     -41.027  56.659 -51.090  1.00  0.00    -0.242 N 
HETATM    8  H   UNL     1     -40.051  56.674 -51.378  1.00  0.00     0.192 HD
HETATM    9  O   UNL     1     -42.845  55.327 -50.520  1.00  0.00    -0.264 OA
BRANCH   7  10
HETATM   10  N   UNL     1     -41.709  57.823 -50.891  1.00  0.00    -0.181 NA
HETATM   11  C   UNL     1     -41.746  58.654 -51.885  1.00  0.00     0.175 C 
BRANCH  11  12
HETATM   12  C   UNL     1     -42.451  59.896 -51.759  1.00  0.00     0.095 A 
HETATM   13  O   UNL     1     -42.871  60.277 -50.518  1.00  0.00    -0.309 OA
HETATM   14  C   UNL     1     -43.519  61.477 -50.648  1.00  0.00     0.086 A 
HETATM   15  C   UNL     1     -43.502  61.861 -51.976  1.00  0.00     0.041 A 
HETATM   16  C   UNL     1     -42.822  60.846 -52.688  1.00  0.00     0.041 A 
BRANCH  14  17
HETATM   17  C   UNL     1     -44.063  62.064 -49.426  1.00  0.00    -0.002 A 
HETATM   18  C   UNL     1     -44.043  63.451 -49.209  1.00  0.00     0.015 A 
HETATM   19  C   UNL     1     -44.558  64.004 -48.031  1.00  0.00     0.020 A 
HETATM   20  C   UNL     1     -45.100  63.172 -47.056  1.00  0.00     0.011 A 
HETATM   21 BR   UNL     1     -45.793  63.916 -45.464  1.00  0.00    -0.051 Br
HETATM   22  C   UNL     1     -45.133  61.794 -47.249  1.00  0.00     0.020 A 
HETATM   23  C   UNL     1     -44.616  61.245 -48.428  1.00  0.00     0.015 A 
ENDBRANCH  14  17
ENDBRANCH  11  12
ENDBRANCH   7  10
ENDBRANCH   5   6
BRANCH   1  24
HETATM   24  C   UNL     1     -41.809  53.477 -53.426  1.00  0.00     0.296 C 
BRANCH  24  25
HETATM   25  N   UNL     1     -42.095  54.876 -53.950  1.00  0.00    -0.066 N 
HETATM   26  H   UNL     1     -41.854  55.527 -53.188  1.00  0.00     0.280 HD
BRANCH  25  27
HETATM   27  C   UNL     1     -43.579  55.053 -54.245  1.00  0.00     0.231 C 
HETATM   28  C   UNL     1     -44.043  56.462 -53.918  1.00  0.00     0.034 C 
ENDBRANCH  25  27
BRANCH  25  29
HETATM   29  C   UNL     1     -41.249  55.224 -55.166  1.00  0.00     0.231 C 
HETATM   30  C   UNL     1     -40.139  54.205 -55.369  1.00  0.00     0.034 C 
ENDBRANCH  25  29
ENDBRANCH  24  25
ENDBRANCH   1  24
BRANCH   2  31
HETATM   31  C   UNL     1     -39.803  51.188 -52.610  1.00  0.00     0.225 A 
HETATM   32  N   UNL     1     -39.883  51.143 -53.944  1.00  0.00    -0.081 NA
HETATM   33  O   UNL     1     -39.631  49.800 -54.243  1.00  0.00    -0.103 OA
HETATM   34  N   UNL     1     -39.434  49.057 -53.088  1.00  0.00    -0.083 NA
HETATM   35  C   UNL     1     -39.543  49.916 -52.075  1.00  0.00     0.201 A 
BRANCH  35  36
HETATM   36  N   UNL     1     -39.411  49.588 -50.781  1.00  0.00    -0.379 N 
HETATM   37  H   UNL     1     -39.840  48.739 -50.420  1.00  0.00     0.158 HD
HETATM   38  H   UNL     1     -39.043  50.215 -50.068  1.00  0.00     0.158 HD
ENDBRANCH  35  36
ENDBRANCH   2  31
TORSDOF 10
ENDMDL
MODEL 3
REMARK VINA RESULT:      -7.6      5.676     11.420
REMARK  10 active torsions:
REMARK  status: ('A' for Active; 'I' for Inactive)
REMARK    1  A    between atoms: C_2  and  N_3 
REMARK    2  A    between atoms: N_3  and  C_5 
REMARK    3  A    between atoms: N_3  and  C_34 
REMARK    4  A    between atoms: C_5  and  C_6 
REMARK    5  A    between atoms: N_7  and  C_8 
REMARK    6  A    between atoms: C_12  and  N_13 
REMARK    7  A    between atoms: C_16  and  C_17 
REMARK       I    between atoms: C_17  and  N_18 
REMARK    8  A    between atoms: N_18  and  N_19 
REMARK    9  A    between atoms: C_20  and  C_21 
REMARK   10  A    between atoms: C_23  and  C_24 
ROOT
HETATM    1  C   UNL     1     -45.606  62.042 -47.902  1.00  0.00     0.096 A 
HETATM    2  N   UNL     1     -46.075  62.089 -46.592  1.00  0.00    -0.215 N 
HETATM    3  N   UNL     1     -46.499  60.848 -46.236  1.00  0.00     0.012 NA
HETATM    4  N   UNL     1     -46.231  59.997 -47.213  1.00  0.00    -0.152 NA
HETATM    5  C   UNL     1     -45.679  60.698 -48.243  1.00  0.00     0.170 A 
ENDROOT
BRANCH   5   6
HETATM    6  C   UNL     1     -45.232  60.091 -49.491  1.00  0.00     0.293 C 
HETATM    7  N   UNL     1     -43.954  60.454 -49.874  1.00  0.00    -0.242 N 
HETATM    8  H   UNL     1     -43.406  61.094 -49.302  1.00  0.00     0.192 HD
HETATM    9  O   UNL     1     -45.987  59.354 -50.121  1.00  0.00    -0.264 OA
BRANCH   7  10
HETATM   10  N   UNL     1     -43.438  59.940 -51.027  1.00  0.00    -0.181 NA
HETATM   11  C   UNL     1     -42.583  58.975 -50.902  1.00  0.00     0.175 C 
BRANCH  11  12
HETATM   12  C   UNL     1     -42.002  58.374 -52.068  1.00  0.00     0.095 A 
HETATM   13  O   UNL     1     -41.800  57.024 -52.066  1.00  0.00    -0.309 OA
HETATM   14  C   UNL     1     -41.236  56.686 -53.267  1.00  0.00     0.086 A 
HETATM   15  C   UNL     1     -41.087  57.825 -54.036  1.00  0.00     0.041 A 
HETATM   16  C   UNL     1     -41.575  58.907 -53.266  1.00  0.00     0.041 A 
BRANCH  14  17
HETATM   17  C   UNL     1     -40.923  55.273 -53.471  1.00  0.00    -0.002 A 
HETATM   18  C   UNL     1     -40.981  54.352 -52.413  1.00  0.00     0.015 A 
HETATM   19  C   UNL     1     -40.671  53.003 -52.615  1.00  0.00     0.020 A 
HETATM   20  C   UNL     1     -40.298  52.561 -53.880  1.00  0.00     0.011 A 
HETATM   21 BR   UNL     1     -39.876  50.740 -54.154  1.00  0.00    -0.051 Br
HETATM   22  C   UNL     1     -40.235  53.455 -54.945  1.00  0.00     0.020 A 
HETATM   23  C   UNL     1     -40.545  54.804 -54.739  1.00  0.00     0.015 A 
ENDBRANCH  14  17
ENDBRANCH  11  12
ENDBRANCH   7  10
ENDBRANCH   5   6
BRANCH   1  24
HETATM   24  C   UNL     1     -45.226  63.214 -48.728  1.00  0.00     0.296 C 
BRANCH  24  25
HETATM   25  N   UNL     1     -46.302  63.759 -49.654  1.00  0.00    -0.066 N 
HETATM   26  H   UNL     1     -46.283  64.785 -49.551  1.00  0.00     0.280 HD
BRANCH  25  27
HETATM   27  C   UNL     1     -47.684  63.284 -49.220  1.00  0.00     0.231 C 
HETATM   28  C   UNL     1     -48.569  64.452 -48.821  1.00  0.00     0.034 C 
ENDBRANCH  25  27
BRANCH  25  29
HETATM   29  C   UNL     1     -46.039  63.418 -51.114  1.00  0.00     0.231 C 
HETATM   30  C   UNL     1     -47.175  62.592 -51.695  1.00  0.00     0.034 C 
ENDBRANCH  25  29
ENDBRANCH  24  25
ENDBRANCH   1  24
BRANCH   2  31
HETATM   31  C   UNL     1     -46.088  63.185 -45.697  1.00  0.00     0.225 A 
HETATM   32  N   UNL     1     -44.935  63.720 -45.285  1.00  0.00    -0.081 NA
HETATM   33  O   UNL     1     -45.337  64.740 -44.417  1.00  0.00    -0.103 OA
HETATM   34  N   UNL     1     -46.718  64.782 -44.299  1.00  0.00    -0.083 NA
HETATM   35  C   UNL     1     -47.185  63.817 -45.090  1.00  0.00     0.201 A 
BRANCH  35  36
HETATM   36  N   UNL     1     -48.485  63.534 -45.260  1.00  0.00    -0.379 N 
HETATM   37  H   UNL     1     -48.889  62.702 -44.838  1.00  0.00     0.158 HD
HETATM   38  H   UNL     1     -49.089  64.007 -45.929  1.00  0.00     0.158 HD
ENDBRANCH  35  36
ENDBRANCH   2  31
TORSDOF 10
ENDMDL
MODEL 4
REMARK VINA RESULT:      -7.5      2.756      4.767
REMARK  10 active torsions:
REMARK  status: ('A' for Active; 'I' for Inactive)
REMARK    1  A    between atoms: C_2  and  N_3 
REMARK    2  A    between atoms: N_3  and  C_5 
REMARK    3  A    between atoms: N_3  and  C_34 
REMARK    4  A    between atoms: C_5  and  C_6 
REMARK    5  A    between atoms: N_7  and  C_8 
REMARK    6  A    between atoms: C_12  and  N_13 
REMARK    7  A    between atoms: C_16  and  C_17 
REMARK       I    between atoms: C_17  and  N_18 
REMARK    8  A    between atoms: N_18  and  N_19 
REMARK    9  A    between atoms: C_20  and  C_21 
REMARK   10  A    between atoms: C_23  and  C_24 
ROOT
HETATM    1  C   UNL     1     -43.562  56.717 -52.507  1.00  0.00     0.096 A 
HETATM    2  N   UNL     1     -43.206  56.528 -53.841  1.00  0.00    -0.215 N 
HETATM    3  N   UNL     1     -43.992  57.319 -54.618  1.00  0.00     0.012 NA
HETATM    4  N   UNL     1     -44.756  58.072 -53.844  1.00  0.00    -0.152 NA
HETATM    5  C   UNL     1     -44.511  57.730 -52.547  1.00  0.00     0.170 A 
ENDROOT
BRANCH   5   6
HETATM    6  C   UNL     1     -45.155  58.364 -51.404  1.00  0.00     0.293 C 
HETATM    7  N   UNL     1     -45.476  59.694 -51.598  1.00  0.00    -0.242 N 
HETATM    8  H   UNL     1     -45.262  60.153 -52.481  1.00  0.00     0.192 HD
HETATM    9  O   UNL     1     -45.338  57.726 -50.369  1.00  0.00    -0.264 OA
BRANCH   7  10
HETATM   10  N   UNL     1     -46.086  60.382 -50.590  1.00  0.00    -0.181 NA
HETATM   11  C   UNL     1     -45.351  61.220 -49.930  1.00  0.00     0.175 C 
BRANCH  11  12
HETATM   12  C   UNL     1     -45.921  61.990 -48.862  1.00  0.00     0.095 A 
HETATM   13  O   UNL     1     -45.229  62.079 -47.689  1.00  0.00    -0.309 OA
HETATM   14  C   UNL     1     -45.965  62.849 -46.829  1.00  0.00     0.086 A 
HETATM   15  C   UNL     1     -47.125  63.256 -47.461  1.00  0.00     0.041 A 
HETATM   16  C   UNL     1     -47.098  62.702 -48.763  1.00  0.00     0.041 A 
BRANCH  14  17
HETATM   17  C   UNL     1     -45.404  63.064 -45.497  1.00  0.00    -0.002 A 
HETATM   18  C   UNL     1     -44.621  62.083 -44.867  1.00  0.00     0.015 A 
HETATM   19  C   UNL     1     -44.096  62.294 -43.587  1.00  0.00     0.020 A 
HETATM   20  C   UNL     1     -44.349  63.490 -42.924  1.00  0.00     0.011 A 
HETATM   21 BR   UNL     1     -43.644  63.776 -41.194  1.00  0.00    -0.051 Br
HETATM   22  C   UNL     1     -45.120  64.478 -43.528  1.00  0.00     0.020 A 
HETATM   23  C   UNL     1     -45.645  64.264 -44.808  1.00  0.00     0.015 A 
ENDBRANCH  14  17
ENDBRANCH  11  12
ENDBRANCH   7  10
ENDBRANCH   5   6
BRANCH   1  24
HETATM   24  C   UNL     1     -43.076  55.912 -51.360  1.00  0.00     0.296 C 
BRANCH  24  25
HETATM   25  N   UNL     1     -42.199  56.641 -50.353  1.00  0.00    -0.066 N 
HETATM   26  H   UNL     1     -42.836  57.181 -49.749  1.00  0.00     0.280 HD
BRANCH  25  27
HETATM   27  C   UNL     1     -41.282  57.638 -51.052  1.00  0.00     0.231 C 
HETATM   28  C   UNL     1     -41.050  58.870 -50.195  1.00  0.00     0.034 C 
ENDBRANCH  25  27
BRANCH  25  29
HETATM   29  C   UNL     1     -41.403  55.684 -49.477  1.00  0.00     0.231 C 
HETATM   30  C   UNL     1     -40.559  54.744 -50.323  1.00  0.00     0.034 C 
ENDBRANCH  25  29
ENDBRANCH  24  25
ENDBRANCH   1  24
BRANCH   2  31
HETATM   31  C   UNL     1     -42.177  55.717 -54.374  1.00  0.00     0.225 A 
HETATM   32  N   UNL     1     -40.901  55.977 -54.070  1.00  0.00    -0.081 NA
HETATM   33  O   UNL     1     -40.189  55.004 -54.780  1.00  0.00    -0.103 OA
HETATM   34  N   UNL     1     -41.043  54.197 -55.517  1.00  0.00    -0.083 NA
HETATM   35  C   UNL     1     -42.274  54.640 -55.269  1.00  0.00     0.201 A 
BRANCH  35  36
HETATM   36  N   UNL     1     -43.392  54.115 -55.793  1.00  0.00    -0.379 N 
HETATM   37  H   UNL     1     -44.287  54.581 -55.666  1.00  0.00     0.158 HD
HETATM   38  H   UNL     1     -43.453  53.177 -56.185  1.00  0.00     0.158 HD
ENDBRANCH  35  36
ENDBRANCH   2  31
TORSDOF 10
ENDMDL
MODEL 5
REMARK VINA RESULT:      -7.3      7.432     11.201
REMARK  10 active torsions:
REMARK  status: ('A' for Active; 'I' for Inactive)
REMARK    1  A    between atoms: C_2  and  N_3 
REMARK    2  A    between atoms: N_3  and  C_5 
REMARK    3  A    between atoms: N_3  and  C_34 
REMARK    4  A    between atoms: C_5  and  C_6 
REMARK    5  A    between atoms: N_7  and  C_8 
REMARK    6  A    between atoms: C_12  and  N_13 
REMARK    7  A    between atoms: C_16  and  C_17 
REMARK       I    between atoms: C_17  and  N_18 
REMARK    8  A    between atoms: N_18  and  N_19 
REMARK    9  A    between atoms: C_20  and  C_21 
REMARK   10  A    between atoms: C_23  and  C_24 
ROOT
HETATM    1  C   UNL     1     -45.998  57.862 -60.350  1.00  0.00     0.096 A 
HETATM    2  N   UNL     1     -47.192  57.619 -61.024  1.00  0.00    -0.215 N 
HETATM    3  N   UNL     1     -47.374  56.276 -61.118  1.00  0.00     0.012 NA
HETATM    4  N   UNL     1     -46.413  55.656 -60.453  1.00  0.00    -0.152 NA
HETATM    5  C   UNL     1     -45.559  56.601 -59.966  1.00  0.00     0.170 A 
ENDROOT
BRANCH   5   6
HETATM    6  C   UNL     1     -44.385  56.297 -59.159  1.00  0.00     0.293 C 
HETATM    7  N   UNL     1     -44.490  56.679 -57.835  1.00  0.00    -0.242 N 
HETATM    8  H   UNL     1     -45.336  57.133 -57.495  1.00  0.00     0.192 HD
HETATM    9  O   UNL     1     -43.401  55.774 -59.678  1.00  0.00    -0.264 OA
BRANCH   7  10
HETATM   10  N   UNL     1     -43.446  56.438 -56.991  1.00  0.00    -0.181 NA
HETATM   11  C   UNL     1     -43.546  56.914 -55.790  1.00  0.00     0.175 C 
BRANCH  11  12
HETATM   12  C   UNL     1     -42.495  56.694 -54.840  1.00  0.00     0.095 A 
HETATM   13  O   UNL     1     -42.226  55.412 -54.460  1.00  0.00    -0.309 OA
HETATM   14  C   UNL     1     -41.201  55.453 -53.552  1.00  0.00     0.086 A 
HETATM   15  C   UNL     1     -40.814  56.766 -53.362  1.00  0.00     0.041 A 
HETATM   16  C   UNL     1     -41.646  57.562 -54.185  1.00  0.00     0.041 A 
BRANCH  14  17
HETATM   17  C   UNL     1     -40.759  54.173 -53.003  1.00  0.00    -0.002 A 
HETATM   18  C   UNL     1     -40.395  53.106 -53.839  1.00  0.00     0.015 A 
HETATM   19  C   UNL     1     -39.982  51.880 -53.305  1.00  0.00     0.020 A 
HETATM   20  C   UNL     1     -39.931  51.710 -51.925  1.00  0.00     0.011 A 
HETATM   21 BR   UNL     1     -39.377  50.055 -51.201  1.00  0.00    -0.051 Br
HETATM   22  C   UNL     1     -40.286  52.753 -51.075  1.00  0.00     0.020 A 
HETATM   23  C   UNL     1     -40.698  53.977 -51.614  1.00  0.00     0.015 A 
ENDBRANCH  14  17
ENDBRANCH  11  12
ENDBRANCH   7  10
ENDBRANCH   5   6
BRANCH   1  24
HETATM   24  C   UNL     1     -45.342  59.184 -60.198  1.00  0.00     0.296 C 
BRANCH  24  25
HETATM   25  N   UNL     1     -44.260  59.516 -61.214  1.00  0.00    -0.066 N 
HETATM   26  H   UNL     1     -44.143  58.675 -61.800  1.00  0.00     0.280 HD
BRANCH  25  27
HETATM   27  C   UNL     1     -42.927  59.777 -60.524  1.00  0.00     0.231 C 
HETATM   28  C   UNL     1     -41.934  58.661 -60.798  1.00  0.00     0.034 C 
ENDBRANCH  25  27
BRANCH  25  29
HETATM   29  C   UNL     1     -44.648  60.679 -62.116  1.00  0.00     0.231 C 
HETATM   30  C   UNL     1     -43.450  61.178 -62.908  1.00  0.00     0.034 C 
ENDBRANCH  25  29
ENDBRANCH  24  25
ENDBRANCH   1  24
BRANCH   2  31
HETATM   31  C   UNL     1     -48.138  58.553 -61.508  1.00  0.00     0.225 A 
HETATM   32  N   UNL     1     -48.253  59.748 -60.920  1.00  0.00    -0.081 NA
HETATM   33  O   UNL     1     -49.277  60.372 -61.641  1.00  0.00    -0.103 OA
HETATM   34  N   UNL     1     -49.778  59.534 -62.626  1.00  0.00    -0.083 NA
HETATM   35  C   UNL     1     -49.075  58.406 -62.543  1.00  0.00     0.201 A 
BRANCH  35  36
HETATM   36  N   UNL     1     -49.253  57.338 -63.335  1.00  0.00    -0.379 N 
HETATM   37  H   UNL     1     -48.486  56.691 -63.506  1.00  0.00     0.158 HD
HETATM   38  H   UNL     1     -50.067  57.197 -63.930  1.00  0.00     0.158 HD
ENDBRANCH  35  36
ENDBRANCH   2  31
TORSDOF 10
ENDMDL
MODEL 6
REMARK VINA RESULT:      -7.2      5.871      7.672
REMARK  10 active torsions:
REMARK  status: ('A' for Active; 'I' for Inactive)
REMARK    1  A    between atoms: C_2  and  N_3 
REMARK    2  A    between atoms: N_3  and  C_5 
REMARK    3  A    between atoms: N_3  and  C_34 
REMARK    4  A    between atoms: C_5  and  C_6 
REMARK    5  A    between atoms: N_7  and  C_8 
REMARK    6  A    between atoms: C_12  and  N_13 
REMARK    7  A    between atoms: C_16  and  C_17 
REMARK       I    between atoms: C_17  and  N_18 
REMARK    8  A    between atoms: N_18  and  N_19 
REMARK    9  A    between atoms: C_20  and  C_21 
REMARK   10  A    between atoms: C_23  and  C_24 
ROOT
HETATM    1  C   UNL     1     -42.214  55.505 -51.865  1.00  0.00     0.096 A 
HETATM    2  N   UNL     1     -41.401  54.541 -51.274  1.00  0.00    -0.215 N 
HETATM    3  N   UNL     1     -40.789  53.827 -52.255  1.00  0.00     0.012 NA
HETATM    4  N   UNL     1     -41.092  54.350 -53.431  1.00  0.00    -0.152 NA
HETATM    5  C   UNL     1     -41.957  55.383 -53.224  1.00  0.00     0.170 A 
ENDROOT
BRANCH   5   6
HETATM    6  C   UNL     1     -42.498  56.216 -54.290  1.00  0.00     0.293 C 
HETATM    7  N   UNL     1     -41.722  57.318 -54.599  1.00  0.00    -0.242 N 
HETATM    8  H   UNL     1     -40.854  57.495 -54.097  1.00  0.00     0.192 HD
HETATM    9  O   UNL     1     -43.575  55.929 -54.809  1.00  0.00    -0.264 OA
BRANCH   7  10
HETATM   10  N   UNL     1     -42.137  58.164 -55.585  1.00  0.00    -0.181 NA
HETATM   11  C   UNL     1     -41.863  59.420 -55.428  1.00  0.00     0.175 C 
BRANCH  11  12
HETATM   12  C   UNL     1     -42.255  60.372 -56.426  1.00  0.00     0.095 A 
HETATM   13  O   UNL     1     -41.346  60.715 -57.385  1.00  0.00    -0.309 OA
HETATM   14  C   UNL     1     -41.939  61.632 -58.212  1.00  0.00     0.086 A 
HETATM   15  C   UNL     1     -43.232  61.865 -57.780  1.00  0.00     0.041 A 
HETATM   16  C   UNL     1     -43.432  61.061 -56.634  1.00  0.00     0.041 A 
BRANCH  14  17
HETATM   17  C   UNL     1     -41.126  62.145 -59.312  1.00  0.00    -0.002 A 
HETATM   18  C   UNL     1     -39.951  62.877 -59.073  1.00  0.00     0.015 A 
HETATM   19  C   UNL     1     -39.184  63.373 -60.133  1.00  0.00     0.020 A 
HETATM   20  C   UNL     1     -39.586  63.142 -61.445  1.00  0.00     0.011 A 
HETATM   21 BR   UNL     1     -38.553  63.814 -62.877  1.00  0.00    -0.051 Br
HETATM   22  C   UNL     1     -40.745  62.419 -61.707  1.00  0.00     0.020 A 
HETATM   23  C   UNL     1     -41.510  61.925 -60.644  1.00  0.00     0.015 A 
ENDBRANCH  14  17
ENDBRANCH  11  12
ENDBRANCH   7  10
ENDBRANCH   5   6
BRANCH   1  24
HETATM   24  C   UNL     1     -43.191  56.367 -51.155  1.00  0.00     0.296 C 
BRANCH  24  25
HETATM   25  N   UNL     1     -42.744  57.791 -50.868  1.00  0.00    -0.066 N 
HETATM   26  H   UNL     1     -42.999  57.985 -49.888  1.00  0.00     0.280 HD
BRANCH  25  27
HETATM   27  C   UNL     1     -43.501  58.786 -51.740  1.00  0.00     0.231 C 
HETATM   28  C   UNL     1     -44.584  59.500 -50.950  1.00  0.00     0.034 C 
ENDBRANCH  25  27
BRANCH  25  29
HETATM   29  C   UNL     1     -41.239  57.968 -51.016  1.00  0.00     0.231 C 
HETATM   30  C   UNL     1     -40.761  59.209 -50.279  1.00  0.00     0.034 C 
ENDBRANCH  25  29
ENDBRANCH  24  25
ENDBRANCH   1  24
BRANCH   2  31
HETATM   31  C   UNL     1     -41.153  54.317 -49.899  1.00  0.00     0.225 A 
HETATM   32  N   UNL     1     -41.308  55.316 -49.025  1.00  0.00    -0.081 NA
HETATM   33  O   UNL     1     -40.961  54.737 -47.799  1.00  0.00    -0.103 OA
HETATM   34  N   UNL     1     -40.577  53.414 -47.961  1.00  0.00    -0.083 NA
HETATM   35  C   UNL     1     -40.693  53.153 -49.263  1.00  0.00     0.201 A 
BRANCH  35  36
HETATM   36  N   UNL     1     -40.418  51.969 -49.830  1.00  0.00    -0.379 N 
HETATM   37  H   UNL     1     -39.812  51.918 -50.645  1.00  0.00     0.158 HD
HETATM   38  H   UNL     1     -40.906  51.103 -49.608  1.00  0.00     0.158 HD
ENDBRANCH  35  36
ENDBRANCH   2  31
TORSDOF 10
ENDMDL
MODEL 7
REMARK VINA RESULT:      -7.2      5.452      6.886
REMARK  10 active torsions:
REMARK  status: ('A' for Active; 'I' for Inactive)
REMARK    1  A    between atoms: C_2  and  N_3 
REMARK    2  A    between atoms: N_3  and  C_5 
REMARK    3  A    between atoms: N_3  and  C_34 
REMARK    4  A    between atoms: C_5  and  C_6 
REMARK    5  A    between atoms: N_7  and  C_8 
REMARK    6  A    between atoms: C_12  and  N_13 
REMARK    7  A    between atoms: C_16  and  C_17 
REMARK       I    between atoms: C_17  and  N_18 
REMARK    8  A    between atoms: N_18  and  N_19 
REMARK    9  A    between atoms: C_20  and  C_21 
REMARK   10  A    between atoms: C_23  and  C_24 
ROOT
HETATM    1  C   UNL     1     -40.940  53.711 -52.801  1.00  0.00     0.096 A 
HETATM    2  N   UNL     1     -40.336  52.461 -52.906  1.00  0.00    -0.215 N 
HETATM    3  N   UNL     1     -39.850  52.316 -54.168  1.00  0.00     0.012 NA
HETATM    4  N   UNL     1     -40.025  53.444 -54.836  1.00  0.00    -0.152 NA
HETATM    5  C   UNL     1     -40.684  54.319 -54.024  1.00  0.00     0.170 A 
ENDROOT
BRANCH   5   6
HETATM    6  C   UNL     1     -41.035  55.679 -54.410  1.00  0.00     0.293 C 
HETATM    7  N   UNL     1     -42.082  55.762 -55.309  1.00  0.00    -0.242 N 
HETATM    8  H   UNL     1     -42.540  54.918 -55.648  1.00  0.00     0.192 HD
HETATM    9  O   UNL     1     -40.395  56.630 -53.965  1.00  0.00    -0.264 OA
BRANCH   7  10
HETATM   10  N   UNL     1     -42.493  56.991 -55.735  1.00  0.00    -0.181 NA
HETATM   11  C   UNL     1     -42.084  57.370 -56.904  1.00  0.00     0.175 C 
BRANCH  11  12
HETATM   12  C   UNL     1     -42.481  58.644 -57.427  1.00  0.00     0.095 A 
HETATM   13  O   UNL     1     -41.579  59.347 -58.171  1.00  0.00    -0.309 OA
HETATM   14  C   UNL     1     -42.175  60.520 -58.550  1.00  0.00     0.086 A 
HETATM   15  C   UNL     1     -43.464  60.557 -58.051  1.00  0.00     0.041 A 
HETATM   16  C   UNL     1     -43.658  59.357 -57.328  1.00  0.00     0.041 A 
BRANCH  14  17
HETATM   17  C   UNL     1     -41.369  61.436 -59.354  1.00  0.00    -0.002 A 
HETATM   18  C   UNL     1     -41.558  61.552 -60.741  1.00  0.00     0.015 A 
HETATM   19  C   UNL     1     -40.775  62.424 -61.504  1.00  0.00     0.020 A 
HETATM   20  C   UNL     1     -39.792  63.191 -60.886  1.00  0.00     0.011 A 
HETATM   21 BR   UNL     1     -38.731  64.368 -61.916  1.00  0.00    -0.051 Br
HETATM   22  C   UNL     1     -39.587  63.096 -59.513  1.00  0.00     0.020 A 
HETATM   23  C   UNL     1     -40.372  62.221 -58.753  1.00  0.00     0.015 A 
ENDBRANCH  14  17
ENDBRANCH  11  12
ENDBRANCH   7  10
ENDBRANCH   5   6
BRANCH   1  24
HETATM   24  C   UNL     1     -41.750  54.188 -51.653  1.00  0.00     0.296 C 
BRANCH  24  25
HETATM   25  N   UNL     1     -41.001  54.963 -50.580  1.00  0.00    -0.066 N 
HETATM   26  H   UNL     1     -40.011  54.686 -50.658  1.00  0.00     0.280 HD
BRANCH  25  27
HETATM   27  C   UNL     1     -41.476  54.562 -49.189  1.00  0.00     0.231 C 
HETATM   28  C   UNL     1     -40.307  54.199 -48.289  1.00  0.00     0.034 C 
ENDBRANCH  25  27
BRANCH  25  29
HETATM   29  C   UNL     1     -41.096  56.469 -50.779  1.00  0.00     0.231 C 
HETATM   30  C   UNL     1     -42.528  56.893 -51.064  1.00  0.00     0.034 C 
ENDBRANCH  25  29
ENDBRANCH  24  25
ENDBRANCH   1  24
BRANCH   2  31
HETATM   31  C   UNL     1     -40.162  51.477 -51.905  1.00  0.00     0.225 A 
HETATM   32  N   UNL     1     -40.300  51.808 -50.617  1.00  0.00    -0.081 NA
HETATM   33  O   UNL     1     -40.041  50.611 -49.940  1.00  0.00    -0.103 OA
HETATM   34  N   UNL     1     -39.724  49.593 -50.827  1.00  0.00    -0.083 NA
HETATM   35  C   UNL     1     -39.796  50.129 -52.045  1.00  0.00     0.201 A 
BRANCH  35  36
HETATM   36  N   UNL     1     -39.563  49.462 -53.185  1.00  0.00    -0.379 N 
HETATM   37  H   UNL     1     -39.810  49.874 -54.081  1.00  0.00     0.158 HD
HETATM   38  H   UNL     1     -39.299  48.479 -53.228  1.00  0.00     0.158 HD
ENDBRANCH  35  36
ENDBRANCH   2  31
TORSDOF 10
ENDMDL
MODEL 8
REMARK VINA RESULT:      -7.2      5.582      7.795
REMARK  10 active torsions:
REMARK  status: ('A' for Active; 'I' for Inactive)
REMARK    1  A    between atoms: C_2  and  N_3 
REMARK    2  A    between atoms: N_3  and  C_5 
REMARK    3  A    between atoms: N_3  and  C_34 
REMARK    4  A    between atoms: C_5  and  C_6 
REMARK    5  A    between atoms: N_7  and  C_8 
REMARK    6  A    between atoms: C_12  and  N_13 
REMARK    7  A    between atoms: C_16  and  C_17 
REMARK       I    between atoms: C_17  and  N_18 
REMARK    8  A    between atoms: N_18  and  N_19 
REMARK    9  A    between atoms: C_20  and  C_21 
REMARK   10  A    between atoms: C_23  and  C_24 
ROOT
HETATM    1  C   UNL     1     -41.996  55.813 -51.746  1.00  0.00     0.096 A 
HETATM    2  N   UNL     1     -42.154  54.735 -50.879  1.00  0.00    -0.215 N 
HETATM    3  N   UNL     1     -43.111  53.910 -51.379  1.00  0.00     0.012 NA
HETATM    4  N   UNL     1     -43.497  54.354 -52.564  1.00  0.00    -0.152 NA
HETATM    5  C   UNL     1     -42.827  55.514 -52.818  1.00  0.00     0.170 A 
ENDROOT
BRANCH   5   6
HETATM    6  C   UNL     1     -42.977  56.287 -54.044  1.00  0.00     0.293 C 
HETATM    7  N   UNL     1     -42.003  56.041 -54.994  1.00  0.00    -0.242 N 
HETATM    8  H   UNL     1     -41.261  55.368 -54.809  1.00  0.00     0.192 HD
HETATM    9  O   UNL     1     -43.894  57.099 -54.152  1.00  0.00    -0.264 OA
BRANCH   7  10
HETATM   10  N   UNL     1     -42.051  56.710 -56.181  1.00  0.00    -0.181 NA
HETATM   11  C   UNL     1     -42.834  56.224 -57.092  1.00  0.00     0.175 C 
BRANCH  11  12
HETATM   12  C   UNL     1     -42.949  56.876 -58.364  1.00  0.00     0.095 A 
HETATM   13  O   UNL     1     -42.384  58.110 -58.511  1.00  0.00    -0.309 OA
HETATM   14  C   UNL     1     -42.627  58.529 -59.792  1.00  0.00     0.086 A 
HETATM   15  C   UNL     1     -43.341  57.553 -60.462  1.00  0.00     0.041 A 
HETATM   16  C   UNL     1     -43.551  56.496 -59.545  1.00  0.00     0.041 A 
BRANCH  14  17
HETATM   17  C   UNL     1     -42.112  59.846 -60.160  1.00  0.00    -0.002 A 
HETATM   18  C   UNL     1     -42.017  60.244 -61.503  1.00  0.00     0.015 A 
HETATM   19  C   UNL     1     -41.514  61.504 -61.846  1.00  0.00     0.020 A 
HETATM   20  C   UNL     1     -41.099  62.379 -60.847  1.00  0.00     0.011 A 
HETATM   21 BR   UNL     1     -40.416  64.079 -61.309  1.00  0.00    -0.051 Br
HETATM   22  C   UNL     1     -41.184  62.007 -59.509  1.00  0.00     0.020 A 
HETATM   23  C   UNL     1     -41.688  60.746 -59.169  1.00  0.00     0.015 A 
ENDBRANCH  14  17
ENDBRANCH  11  12
ENDBRANCH   7  10
ENDBRANCH   5   6
BRANCH   1  24
HETATM   24  C   UNL     1     -41.187  57.027 -51.479  1.00  0.00     0.296 C 
BRANCH  24  25
HETATM   25  N   UNL     1     -41.835  58.085 -50.599  1.00  0.00    -0.066 N 
HETATM   26  H   UNL     1     -42.331  57.577 -49.851  1.00  0.00     0.280 HD
BRANCH  25  27
HETATM   27  C   UNL     1     -42.877  58.877 -51.378  1.00  0.00     0.231 C 
HETATM   28  C   UNL     1     -43.206  60.189 -50.686  1.00  0.00     0.034 C 
ENDBRANCH  25  27
BRANCH  25  29
HETATM   29  C   UNL     1     -40.812  59.010 -49.955  1.00  0.00     0.231 C 
HETATM   30  C   UNL     1     -39.619  59.226 -50.872  1.00  0.00     0.034 C 
ENDBRANCH  25  29
ENDBRANCH  24  25
ENDBRANCH   1  24
BRANCH   2  31
HETATM   31  C   UNL     1     -41.438  54.443 -49.694  1.00  0.00     0.225 A 
HETATM   32  N   UNL     1     -41.446  55.315 -48.681  1.00  0.00    -0.081 NA
HETATM   33  O   UNL     1     -40.634  54.707 -47.718  1.00  0.00    -0.103 OA
HETATM   34  N   UNL     1     -40.130  53.499 -48.177  1.00  0.00    -0.083 NA
HETATM   35  C   UNL     1     -40.625  53.335 -49.402  1.00  0.00     0.201 A 
BRANCH  35  36
HETATM   36  N   UNL     1     -40.377  52.278 -50.189  1.00  0.00    -0.379 N 
HETATM   37  H   UNL     1     -41.103  51.910 -50.800  1.00  0.00     0.158 HD
HETATM   38  H   UNL     1     -39.550  51.689 -50.110  1.00  0.00     0.158 HD
ENDBRANCH  35  36
ENDBRANCH   2  31
TORSDOF 10
ENDMDL
MODEL 9
REMARK VINA RESULT:      -7.1     17.008     20.600
REMARK  10 active torsions:
REMARK  status: ('A' for Active; 'I' for Inactive)
REMARK    1  A    between atoms: C_2  and  N_3 
REMARK    2  A    between atoms: N_3  and  C_5 
REMARK    3  A    between atoms: N_3  and  C_34 
REMARK    4  A    between atoms: C_5  and  C_6 
REMARK    5  A    between atoms: N_7  and  C_8 
REMARK    6  A    between atoms: C_12  and  N_13 
REMARK    7  A    between atoms: C_16  and  C_17 
REMARK       I    between atoms: C_17  and  N_18 
REMARK    8  A    between atoms: N_18  and  N_19 
REMARK    9  A    between atoms: C_20  and  C_21 
REMARK   10  A    between atoms: C_23  and  C_24 
ROOT
HETATM    1  C   UNL     1     -33.478  40.117 -54.085  1.00  0.00     0.096 A 
HETATM    2  N   UNL     1     -33.290  40.544 -55.397  1.00  0.00    -0.215 N 
HETATM    3  N   UNL     1     -31.975  40.414 -55.713  1.00  0.00     0.012 NA
HETATM    4  N   UNL     1     -31.338  39.834 -54.709  1.00  0.00    -0.152 NA
HETATM    5  C   UNL     1     -32.234  39.635 -53.700  1.00  0.00     0.170 A 
ENDROOT
BRANCH   5   6
HETATM    6  C   UNL     1     -31.901  38.997 -52.433  1.00  0.00     0.293 C 
HETATM    7  N   UNL     1     -31.841  39.865 -51.359  1.00  0.00    -0.242 N 
HETATM    8  H   UNL     1     -32.021  40.859 -51.487  1.00  0.00     0.192 HD
HETATM    9  O   UNL     1     -31.671  37.790 -52.393  1.00  0.00    -0.264 OA
BRANCH   7  10
HETATM   10  N   UNL     1     -31.540  39.370 -50.124  1.00  0.00    -0.181 NA
HETATM   11  C   UNL     1     -32.522  39.257 -49.287  1.00  0.00     0.175 C 
BRANCH  11  12
HETATM   12  C   UNL     1     -32.290  38.735 -47.971  1.00  0.00     0.095 A 
HETATM   13  O   UNL     1     -31.287  39.284 -47.226  1.00  0.00    -0.309 OA
HETATM   14  C   UNL     1     -31.251  38.625 -46.026  1.00  0.00     0.086 A 
HETATM   15  C   UNL     1     -32.240  37.660 -46.008  1.00  0.00     0.041 A 
HETATM   16  C   UNL     1     -32.902  37.727 -47.256  1.00  0.00     0.041 A 
BRANCH  14  17
HETATM   17  C   UNL     1     -30.231  39.055 -45.073  1.00  0.00    -0.002 A 
HETATM   18  C   UNL     1     -30.180  40.377 -44.602  1.00  0.00     0.015 A 
HETATM   19  C   UNL     1     -29.193  40.781 -43.696  1.00  0.00     0.020 A 
HETATM   20  C   UNL     1     -28.245  39.865 -43.252  1.00  0.00     0.011 A 
HETATM   21 BR   UNL     1     -26.910  40.410 -42.031  1.00  0.00    -0.051 Br
HETATM   22  C   UNL     1     -28.275  38.549 -43.703  1.00  0.00     0.020 A 
HETATM   23  C   UNL     1     -29.264  38.149 -44.609  1.00  0.00     0.015 A 
ENDBRANCH  14  17
ENDBRANCH  11  12
ENDBRANCH   7  10
ENDBRANCH   5   6
BRANCH   1  24
HETATM   24  C   UNL     1     -34.725  40.266 -53.296  1.00  0.00     0.296 C 
BRANCH  24  25
HETATM   25  N   UNL     1     -35.070  41.678 -52.847  1.00  0.00    -0.066 N 
HETATM   26  H   UNL     1     -34.419  42.308 -53.340  1.00  0.00     0.280 HD
BRANCH  25  27
HETATM   27  C   UNL     1     -34.822  41.849 -51.353  1.00  0.00     0.231 C 
HETATM   28  C   UNL     1     -35.500  40.751 -50.551  1.00  0.00     0.034 C 
ENDBRANCH  25  27
BRANCH  25  29
HETATM   29  C   UNL     1     -36.493  42.073 -53.215  1.00  0.00     0.231 C 
HETATM   30  C   UNL     1     -37.206  40.938 -53.932  1.00  0.00     0.034 C 
ENDBRANCH  25  29
ENDBRANCH  24  25
ENDBRANCH   1  24
BRANCH   2  31
HETATM   31  C   UNL     1     -34.257  40.994 -56.326  1.00  0.00     0.225 A 
HETATM   32  N   UNL     1     -34.699  42.254 -56.269  1.00  0.00    -0.081 NA
HETATM   33  O   UNL     1     -35.637  42.321 -57.305  1.00  0.00    -0.103 OA
HETATM   34  N   UNL     1     -35.763  41.098 -57.946  1.00  0.00    -0.083 NA
HETATM   35  C   UNL     1     -34.911  40.274 -57.339  1.00  0.00     0.201 A 
BRANCH  35  36
HETATM   36  N   UNL     1     -34.728  38.987 -57.672  1.00  0.00    -0.379 N 
HETATM   37  H   UNL     1     -34.931  38.666 -58.616  1.00  0.00     0.158 HD
HETATM   38  H   UNL     1     -34.551  38.243 -56.999  1.00  0.00     0.158 HD
ENDBRANCH  35  36
ENDBRANCH   2  31
TORSDOF 10
ENDMDL
MODEL 10
REMARK VINA RESULT:      -7.0      5.102      7.095
REMARK  10 active torsions:
REMARK  status: ('A' for Active; 'I' for Inactive)
REMARK    1  A    between atoms: C_2  and  N_3 
REMARK    2  A    between atoms: N_3  and  C_5 
REMARK    3  A    between atoms: N_3  and  C_34 
REMARK    4  A    between atoms: C_5  and  C_6 
REMARK    5  A    between atoms: N_7  and  C_8 
REMARK    6  A    between atoms: C_12  and  N_13 
REMARK    7  A    between atoms: C_16  and  C_17 
REMARK       I    between atoms: C_17  and  N_18 
REMARK    8  A    between atoms: N_18  and  N_19 
REMARK    9  A    between atoms: C_20  and  C_21 
REMARK   10  A    between atoms: C_23  and  C_24 
ROOT
HETATM    1  C   UNL     1     -42.129  54.210 -53.035  1.00  0.00     0.096 A 
HETATM    2  N   UNL     1     -41.070  53.658 -52.319  1.00  0.00    -0.215 N 
HETATM    3  N   UNL     1     -40.275  52.967 -53.179  1.00  0.00     0.012 NA
HETATM    4  N   UNL     1     -40.718  53.135 -54.414  1.00  0.00    -0.152 NA
HETATM    5  C   UNL     1     -41.847  53.896 -54.358  1.00  0.00     0.170 A 
ENDROOT
BRANCH   5   6
HETATM    6  C   UNL     1     -42.608  54.308 -55.531  1.00  0.00     0.293 C 
HETATM    7  N   UNL     1     -42.106  55.428 -56.168  1.00  0.00    -0.242 N 
HETATM    8  H   UNL     1     -41.273  55.894 -55.814  1.00  0.00     0.192 HD
HETATM    9  O   UNL     1     -43.621  53.692 -55.855  1.00  0.00    -0.264 OA
BRANCH   7  10
HETATM   10  N   UNL     1     -42.742  55.897 -57.280  1.00  0.00    -0.181 NA
HETATM   11  C   UNL     1     -43.482  56.950 -57.127  1.00  0.00     0.175 C 
BRANCH  11  12
HETATM   12  C   UNL     1     -44.175  57.511 -58.250  1.00  0.00     0.095 A 
HETATM   13  O   UNL     1     -45.346  58.173 -58.021  1.00  0.00    -0.309 OA
HETATM   14  C   UNL     1     -45.821  58.608 -59.230  1.00  0.00     0.086 A 
HETATM   15  C   UNL     1     -44.944  58.227 -60.228  1.00  0.00     0.041 A 
HETATM   16  C   UNL     1     -43.891  57.520 -59.600  1.00  0.00     0.041 A 
BRANCH  14  17
HETATM   17  C   UNL     1     -47.086  59.340 -59.212  1.00  0.00    -0.002 A 
HETATM   18  C   UNL     1     -47.691  59.725 -58.005  1.00  0.00     0.015 A 
HETATM   19  C   UNL     1     -48.908  60.417 -57.997  1.00  0.00     0.020 A 
HETATM   20  C   UNL     1     -49.532  60.730 -59.201  1.00  0.00     0.011 A 
HETATM   21 BR   UNL     1     -51.176  61.661 -59.193  1.00  0.00    -0.051 Br
HETATM   22  C   UNL     1     -48.952  60.360 -60.410  1.00  0.00     0.020 A 
HETATM   23  C   UNL     1     -47.735  59.668 -60.413  1.00  0.00     0.015 A 
ENDBRANCH  14  17
ENDBRANCH  11  12
ENDBRANCH   7  10
ENDBRANCH   5   6
BRANCH   1  24
HETATM   24  C   UNL     1     -43.315  54.880 -52.448  1.00  0.00     0.296 C 
BRANCH  24  25
HETATM   25  N   UNL     1     -43.112  56.312 -51.979  1.00  0.00    -0.066 N 
HETATM   26  H   UNL     1     -42.224  56.324 -51.455  1.00  0.00     0.280 HD
BRANCH  25  27
HETATM   27  C   UNL     1     -44.214  56.730 -51.013  1.00  0.00     0.231 C 
HETATM   28  C   UNL     1     -44.946  57.964 -51.510  1.00  0.00     0.034 C 
ENDBRANCH  25  27
BRANCH  25  29
HETATM   29  C   UNL     1     -43.000  57.292 -53.139  1.00  0.00     0.231 C 
HETATM   30  C   UNL     1     -41.571  57.786 -53.299  1.00  0.00     0.034 C 
ENDBRANCH  25  29
ENDBRANCH  24  25
ENDBRANCH   1  24
BRANCH   2  31
HETATM   31  C   UNL     1     -40.767  53.794 -50.944  1.00  0.00     0.225 A 
HETATM   32  N   UNL     1     -40.738  55.009 -50.387  1.00  0.00    -0.081 NA
HETATM   33  O   UNL     1     -40.393  54.753 -49.056  1.00  0.00    -0.103 OA
HETATM   34  N   UNL     1     -40.191  53.397 -48.843  1.00  0.00    -0.083 NA
HETATM   35  C   UNL     1     -40.420  52.802 -50.012  1.00  0.00     0.201 A 
BRANCH  35  36
HETATM   36  N   UNL     1     -40.335  51.481 -50.224  1.00  0.00    -0.379 N 
HETATM   37  H   UNL     1     -41.028  51.006 -50.797  1.00  0.00     0.158 HD
HETATM   38  H   UNL     1     -39.708  50.860 -49.714  1.00  0.00     0.158 HD
ENDBRANCH  35  36
ENDBRANCH   2  31
TORSDOF 10
ENDMDL
