MODEL 1
REMARK VINA RESULT:      -7.1      0.000      0.000
REMARK  7 active torsions:
REMARK  status: ('A' for Active; 'I' for Inactive)
REMARK    1  A    between atoms: C_2  and  O_3 
REMARK    2  A    between atoms: O_3  and  C_4 
REMARK       I    between atoms: C_4  and  N_5 
REMARK    3  A    between atoms: N_5  and  C_6 
REMARK    4  A    between atoms: C_7  and  N_8 
REMARK    5  A    between atoms: C_11  and  N_12 
REMARK    6  A    between atoms: N_12  and  C_13 
REMARK    7  A    between atoms: C_13  and  C_14 
ROOT
HETATM    1  C   UNL     1     -42.372  57.430 -51.521  1.00  0.00     0.080 A 
HETATM    2  C   UNL     1     -42.942  56.275 -52.114  1.00  0.00     0.127 A 
HETATM    3  N   UNL     1     -42.491  55.080 -51.713  1.00  0.00    -0.332 N 
HETATM    4  H   UNL     1     -42.917  54.242 -52.091  1.00  0.00     0.168 HD
HETATM    5  C   UNL     1     -41.526  54.880 -50.813  1.00  0.00     0.081 A 
HETATM    6  C   UNL     1     -40.933  55.979 -50.210  1.00  0.00     0.044 A 
HETATM    7  C   UNL     1     -41.374  57.256 -50.553  1.00  0.00     0.037 A 
ENDROOT
BRANCH   5   8
HETATM    8  N   UNL     1     -41.191  53.557 -50.582  1.00  0.00    -0.275 NA
HETATM    9  H   UNL     1     -41.799  52.952 -51.142  1.00  0.00     0.129 HD
BRANCH   8  10
HETATM   10  C   UNL     1     -39.811  53.203 -50.952  1.00  0.00     0.132 C 
BRANCH  10  11
HETATM   11  C   UNL     1     -39.859  52.155 -52.035  1.00  0.00    -0.045 A 
HETATM   12  C   UNL     1     -39.550  50.813 -51.752  1.00  0.00     0.011 A 
HETATM   13  C   UNL     1     -39.579  49.852 -52.765  1.00  0.00     0.043 A 
HETATM   14  C   UNL     1     -39.917  50.229 -54.059  1.00  0.00     0.116 A 
HETATM   15  F   UNL     1     -39.944  49.307 -55.029  1.00  0.00    -0.206 F 
HETATM   16  C   UNL     1     -40.225  51.549 -54.361  1.00  0.00     0.043 A 
HETATM   17  C   UNL     1     -40.193  52.513 -53.352  1.00  0.00     0.011 A 
ENDBRANCH  10  11
ENDBRANCH   8  10
ENDBRANCH   5   8
BRANCH   2  18
HETATM   18  N   UNL     1     -44.048  56.273 -52.940  1.00  0.00    -0.384 N 
HETATM   19  H   UNL     1     -44.473  55.342 -53.052  1.00  0.00     0.157 HD
HETATM   20  H   UNL     1     -44.759  56.988 -52.871  1.00  0.00     0.157 HD
ENDBRANCH   2  18
BRANCH   1  21
HETATM   21  N   UNL     1     -42.704  58.770 -51.814  1.00  0.00    -0.299 N 
HETATM   22  C   UNL     1     -41.949  59.720 -52.441  1.00  0.00     0.365 C 
HETATM   23  O   UNL     1     -40.809  59.580 -52.857  1.00  0.00    -0.238 OA
HETATM   24  H   UNL     1     -43.550  59.164 -51.416  1.00  0.00     0.171 HD
BRANCH  22  25
HETATM   25  O   UNL     1     -42.657  60.874 -52.472  1.00  0.00    -0.304 OA
BRANCH  25  26
HETATM   26  C   UNL     1     -43.505  61.132 -51.340  1.00  0.00     0.176 C 
HETATM   27  C   UNL     1     -42.914  62.245 -50.494  1.00  0.00     0.034 C 
ENDBRANCH  25  26
ENDBRANCH  22  25
ENDBRANCH   1  21
TORSDOF 7
ENDMDL
MODEL 2
REMARK VINA RESULT:      -7.1      1.913      2.402
REMARK  7 active torsions:
REMARK  status: ('A' for Active; 'I' for Inactive)
REMARK    1  A    between atoms: C_2  and  O_3 
REMARK    2  A    between atoms: O_3  and  C_4 
REMARK       I    between atoms: C_4  and  N_5 
REMARK    3  A    between atoms: N_5  and  C_6 
REMARK    4  A    between atoms: C_7  and  N_8 
REMARK    5  A    between atoms: C_11  and  N_12 
REMARK    6  A    between atoms: N_12  and  C_13 
REMARK    7  A    between atoms: C_13  and  C_14 
ROOT
HETATM    1  C   UNL     1     -43.069  56.820 -51.548  1.00  0.00     0.080 A 
HETATM    2  C   UNL     1     -41.976  56.802 -50.646  1.00  0.00     0.127 A 
HETATM    3  N   UNL     1     -41.421  55.617 -50.363  1.00  0.00    -0.332 N 
HETATM    4  H   UNL     1     -40.610  55.587 -49.756  1.00  0.00     0.168 HD
HETATM    5  C   UNL     1     -41.826  54.439 -50.842  1.00  0.00     0.081 A 
HETATM    6  C   UNL     1     -42.896  54.405 -51.723  1.00  0.00     0.044 A 
HETATM    7  C   UNL     1     -43.505  55.604 -52.091  1.00  0.00     0.037 A 
ENDROOT
BRANCH   5   8
HETATM    8  N   UNL     1     -41.129  53.335 -50.379  1.00  0.00    -0.275 NA
HETATM    9  H   UNL     1     -41.642  52.484 -50.627  1.00  0.00     0.129 HD
BRANCH   8  10
HETATM   10  C   UNL     1     -39.781  53.181 -50.948  1.00  0.00     0.132 C 
BRANCH  10  11
HETATM   11  C   UNL     1     -39.839  52.144 -52.041  1.00  0.00    -0.045 A 
HETATM   12  C   UNL     1     -39.551  50.794 -51.767  1.00  0.00     0.011 A 
HETATM   13  C   UNL     1     -39.588  49.843 -52.788  1.00  0.00     0.043 A 
HETATM   14  C   UNL     1     -39.913  50.236 -54.081  1.00  0.00     0.116 A 
HETATM   15  F   UNL     1     -39.948  49.322 -55.059  1.00  0.00    -0.206 F 
HETATM   16  C   UNL     1     -40.200  51.563 -54.374  1.00  0.00     0.043 A 
HETATM   17  C   UNL     1     -40.160  52.518 -53.357  1.00  0.00     0.011 A 
ENDBRANCH  10  11
ENDBRANCH   8  10
ENDBRANCH   5   8
BRANCH   2  18
HETATM   18  N   UNL     1     -41.321  57.920 -50.173  1.00  0.00    -0.384 N 
HETATM   19  H   UNL     1     -40.671  58.334 -50.856  1.00  0.00     0.157 HD
HETATM   20  H   UNL     1     -41.811  58.641 -49.660  1.00  0.00     0.157 HD
ENDBRANCH   2  18
BRANCH   1  21
HETATM   21  N   UNL     1     -43.790  57.961 -51.965  1.00  0.00    -0.299 N 
HETATM   22  C   UNL     1     -44.954  58.467 -51.460  1.00  0.00     0.365 C 
HETATM   23  O   UNL     1     -45.610  57.997 -50.541  1.00  0.00    -0.238 OA
HETATM   24  H   UNL     1     -43.519  58.426 -52.824  1.00  0.00     0.171 HD
BRANCH  22  25
HETATM   25  O   UNL     1     -45.299  59.552 -52.192  1.00  0.00    -0.304 OA
BRANCH  25  26
HETATM   26  C   UNL     1     -46.457  60.280 -51.746  1.00  0.00     0.176 C 
HETATM   27  C   UNL     1     -46.749  61.421 -52.703  1.00  0.00     0.034 C 
ENDBRANCH  25  26
ENDBRANCH  22  25
ENDBRANCH   1  21
TORSDOF 7
ENDMDL
MODEL 3
REMARK VINA RESULT:      -7.1      4.957      5.697
REMARK  7 active torsions:
REMARK  status: ('A' for Active; 'I' for Inactive)
REMARK    1  A    between atoms: C_2  and  O_3 
REMARK    2  A    between atoms: O_3  and  C_4 
REMARK       I    between atoms: C_4  and  N_5 
REMARK    3  A    between atoms: N_5  and  C_6 
REMARK    4  A    between atoms: C_7  and  N_8 
REMARK    5  A    between atoms: C_11  and  N_12 
REMARK    6  A    between atoms: N_12  and  C_13 
REMARK    7  A    between atoms: C_13  and  C_14 
ROOT
HETATM    1  C   UNL     1     -42.886  56.862 -57.572  1.00  0.00     0.080 A 
HETATM    2  C   UNL     1     -43.312  55.510 -57.590  1.00  0.00     0.127 A 
HETATM    3  N   UNL     1     -43.128  54.782 -56.481  1.00  0.00    -0.332 N 
HETATM    4  H   UNL     1     -43.466  53.827 -56.459  1.00  0.00     0.168 HD
HETATM    5  C   UNL     1     -42.551  55.216 -55.359  1.00  0.00     0.081 A 
HETATM    6  C   UNL     1     -42.112  56.530 -55.295  1.00  0.00     0.044 A 
HETATM    7  C   UNL     1     -42.299  57.358 -56.400  1.00  0.00     0.037 A 
ENDROOT
BRANCH   5   8
HETATM    8  N   UNL     1     -42.427  54.276 -54.350  1.00  0.00    -0.275 NA
HETATM    9  H   UNL     1     -42.443  53.337 -54.760  1.00  0.00     0.129 HD
BRANCH   8  10
HETATM   10  C   UNL     1     -41.175  54.366 -53.582  1.00  0.00     0.132 C 
BRANCH  10  11
HETATM   11  C   UNL     1     -40.627  52.973 -53.395  1.00  0.00    -0.045 A 
HETATM   12  C   UNL     1     -40.691  52.030 -54.437  1.00  0.00     0.011 A 
HETATM   13  C   UNL     1     -40.198  50.737 -54.249  1.00  0.00     0.043 A 
HETATM   14  C   UNL     1     -39.642  50.384 -53.026  1.00  0.00     0.116 A 
HETATM   15  F   UNL     1     -39.170  49.144 -52.848  1.00  0.00    -0.206 F 
HETATM   16  C   UNL     1     -39.569  51.300 -51.984  1.00  0.00     0.043 A 
HETATM   17  C   UNL     1     -40.064  52.592 -52.165  1.00  0.00     0.011 A 
ENDBRANCH  10  11
ENDBRANCH   8  10
ENDBRANCH   5   8
BRANCH   2  18
HETATM   18  N   UNL     1     -44.063  54.929 -58.592  1.00  0.00    -0.384 N 
HETATM   19  H   UNL     1     -44.621  55.607 -59.130  1.00  0.00     0.157 HD
HETATM   20  H   UNL     1     -43.674  54.221 -59.200  1.00  0.00     0.157 HD
ENDBRANCH   2  18
BRANCH   1  21
HETATM   21  N   UNL     1     -42.985  57.784 -58.637  1.00  0.00    -0.299 N 
HETATM   22  C   UNL     1     -42.588  57.634 -59.935  1.00  0.00     0.365 C 
HETATM   23  O   UNL     1     -42.043  56.652 -60.417  1.00  0.00    -0.238 OA
HETATM   24  H   UNL     1     -43.262  58.738 -58.435  1.00  0.00     0.171 HD
BRANCH  22  25
HETATM   25  O   UNL     1     -42.845  58.788 -60.595  1.00  0.00    -0.304 OA
BRANCH  25  26
HETATM   26  C   UNL     1     -42.141  59.955 -60.135  1.00  0.00     0.176 C 
HETATM   27  C   UNL     1     -41.688  60.785 -61.322  1.00  0.00     0.034 C 
ENDBRANCH  25  26
ENDBRANCH  22  25
ENDBRANCH   1  21
TORSDOF 7
ENDMDL
MODEL 4
REMARK VINA RESULT:      -7.0      2.465      2.954
REMARK  7 active torsions:
REMARK  status: ('A' for Active; 'I' for Inactive)
REMARK    1  A    between atoms: C_2  and  O_3 
REMARK    2  A    between atoms: O_3  and  C_4 
REMARK       I    between atoms: C_4  and  N_5 
REMARK    3  A    between atoms: N_5  and  C_6 
REMARK    4  A    between atoms: C_7  and  N_8 
REMARK    5  A    between atoms: C_11  and  N_12 
REMARK    6  A    between atoms: N_12  and  C_13 
REMARK    7  A    between atoms: C_13  and  C_14 
ROOT
HETATM    1  C   UNL     1     -43.362  57.297 -52.946  1.00  0.00     0.080 A 
HETATM    2  C   UNL     1     -43.608  56.290 -53.913  1.00  0.00     0.127 A 
HETATM    3  N   UNL     1     -42.566  55.565 -54.338  1.00  0.00    -0.332 N 
HETATM    4  H   UNL     1     -42.728  54.811 -54.995  1.00  0.00     0.168 HD
HETATM    5  C   UNL     1     -41.301  55.724 -53.943  1.00  0.00     0.081 A 
HETATM    6  C   UNL     1     -41.010  56.701 -53.003  1.00  0.00     0.044 A 
HETATM    7  C   UNL     1     -42.049  57.474 -52.490  1.00  0.00     0.037 A 
ENDROOT
BRANCH   5   8
HETATM    8  N   UNL     1     -40.378  54.887 -54.548  1.00  0.00    -0.275 NA
HETATM    9  H   UNL     1     -39.602  54.718 -53.901  1.00  0.00     0.129 HD
BRANCH   8  10
HETATM   10  C   UNL     1     -40.903  53.562 -54.913  1.00  0.00     0.132 C 
BRANCH  10  11
HETATM   11  C   UNL     1     -40.403  52.556 -53.906  1.00  0.00    -0.045 A 
HETATM   12  C   UNL     1     -40.142  51.227 -54.287  1.00  0.00     0.011 A 
HETATM   13  C   UNL     1     -39.698  50.297 -53.345  1.00  0.00     0.043 A 
HETATM   14  C   UNL     1     -39.513  50.691 -52.025  1.00  0.00     0.116 A 
HETATM   15  F   UNL     1     -39.087  49.799 -51.123  1.00  0.00    -0.206 F 
HETATM   16  C   UNL     1     -39.765  51.998 -51.628  1.00  0.00     0.043 A 
HETATM   17  C   UNL     1     -40.214  52.930 -52.565  1.00  0.00     0.011 A 
ENDBRANCH  10  11
ENDBRANCH   8  10
ENDBRANCH   5   8
BRANCH   2  18
HETATM   18  N   UNL     1     -44.858  55.875 -54.324  1.00  0.00    -0.384 N 
HETATM   19  H   UNL     1     -45.538  55.799 -53.554  1.00  0.00     0.157 HD
HETATM   20  H   UNL     1     -45.295  56.256 -55.152  1.00  0.00     0.157 HD
ENDBRANCH   2  18
BRANCH   1  21
HETATM   21  N   UNL     1     -44.321  58.167 -52.383  1.00  0.00    -0.299 N 
HETATM   22  C   UNL     1     -45.100  57.978 -51.276  1.00  0.00     0.365 C 
HETATM   23  O   UNL     1     -45.118  56.986 -50.564  1.00  0.00    -0.238 OA
HETATM   24  H   UNL     1     -44.596  58.994 -52.900  1.00  0.00     0.171 HD
BRANCH  22  25
HETATM   25  O   UNL     1     -45.900  59.061 -51.130  1.00  0.00    -0.304 OA
BRANCH  25  26
HETATM   26  C   UNL     1     -45.512  60.010 -50.122  1.00  0.00     0.176 C 
HETATM   27  C   UNL     1     -45.094  61.315 -50.776  1.00  0.00     0.034 C 
ENDBRANCH  25  26
ENDBRANCH  22  25
ENDBRANCH   1  21
TORSDOF 7
ENDMDL
MODEL 5
REMARK VINA RESULT:      -6.8      1.216      1.984
REMARK  7 active torsions:
REMARK  status: ('A' for Active; 'I' for Inactive)
REMARK    1  A    between atoms: C_2  and  O_3 
REMARK    2  A    between atoms: O_3  and  C_4 
REMARK       I    between atoms: C_4  and  N_5 
REMARK    3  A    between atoms: N_5  and  C_6 
REMARK    4  A    between atoms: C_7  and  N_8 
REMARK    5  A    between atoms: C_11  and  N_12 
REMARK    6  A    between atoms: N_12  and  C_13 
REMARK    7  A    between atoms: C_13  and  C_14 
ROOT
HETATM    1  C   UNL     1     -42.344  57.739 -52.061  1.00  0.00     0.080 A 
HETATM    2  C   UNL     1     -41.266  57.401 -51.204  1.00  0.00     0.127 A 
HETATM    3  N   UNL     1     -41.107  56.112 -50.882  1.00  0.00    -0.332 N 
HETATM    4  H   UNL     1     -40.316  55.843 -50.308  1.00  0.00     0.168 HD
HETATM    5  C   UNL     1     -41.896  55.112 -51.280  1.00  0.00     0.081 A 
HETATM    6  C   UNL     1     -42.967  55.394 -52.114  1.00  0.00     0.044 A 
HETATM    7  C   UNL     1     -43.178  56.711 -52.519  1.00  0.00     0.037 A 
ENDROOT
BRANCH   5   8
HETATM    8  N   UNL     1     -41.566  53.860 -50.788  1.00  0.00    -0.275 NA
HETATM    9  H   UNL     1     -42.099  53.147 -51.296  1.00  0.00     0.129 HD
BRANCH   8  10
HETATM   10  C   UNL     1     -40.148  53.497 -50.942  1.00  0.00     0.132 C 
BRANCH  10  11
HETATM   11  C   UNL     1     -40.036  52.451 -52.022  1.00  0.00    -0.045 A 
HETATM   12  C   UNL     1     -40.377  52.752 -53.353  1.00  0.00     0.011 A 
HETATM   13  C   UNL     1     -40.289  51.772 -54.344  1.00  0.00     0.043 A 
HETATM   14  C   UNL     1     -39.859  50.493 -54.009  1.00  0.00     0.116 A 
HETATM   15  F   UNL     1     -39.775  49.555 -54.959  1.00  0.00    -0.206 F 
HETATM   16  C   UNL     1     -39.517  50.174 -52.701  1.00  0.00     0.043 A 
HETATM   17  C   UNL     1     -39.609  51.150 -51.707  1.00  0.00     0.011 A 
ENDBRANCH  10  11
ENDBRANCH   8  10
ENDBRANCH   5   8
BRANCH   2  18
HETATM   18  N   UNL     1     -40.261  58.264 -50.818  1.00  0.00    -0.384 N 
HETATM   19  H   UNL     1     -40.400  59.229 -51.149  1.00  0.00     0.157 HD
HETATM   20  H   UNL     1     -39.891  58.256 -49.877  1.00  0.00     0.157 HD
ENDBRANCH   2  18
BRANCH   1  21
HETATM   21  N   UNL     1     -42.682  59.036 -52.507  1.00  0.00    -0.299 N 
HETATM   22  C   UNL     1     -41.962  59.878 -53.306  1.00  0.00     0.365 C 
HETATM   23  O   UNL     1     -40.857  59.660 -53.778  1.00  0.00    -0.238 OA
HETATM   24  H   UNL     1     -43.492  59.496 -52.108  1.00  0.00     0.171 HD
BRANCH  22  25
HETATM   25  O   UNL     1     -42.657  61.032 -53.443  1.00  0.00    -0.304 OA
BRANCH  25  26
HETATM   26  C   UNL     1     -44.082  60.942 -53.274  1.00  0.00     0.176 C 
HETATM   27  C   UNL     1     -44.597  62.178 -52.560  1.00  0.00     0.034 C 
ENDBRANCH  25  26
ENDBRANCH  22  25
ENDBRANCH   1  21
TORSDOF 7
ENDMDL
MODEL 6
REMARK VINA RESULT:      -6.8      1.885      2.474
REMARK  7 active torsions:
REMARK  status: ('A' for Active; 'I' for Inactive)
REMARK    1  A    between atoms: C_2  and  O_3 
REMARK    2  A    between atoms: O_3  and  C_4 
REMARK       I    between atoms: C_4  and  N_5 
REMARK    3  A    between atoms: N_5  and  C_6 
REMARK    4  A    between atoms: C_7  and  N_8 
REMARK    5  A    between atoms: C_11  and  N_12 
REMARK    6  A    between atoms: N_12  and  C_13 
REMARK    7  A    between atoms: C_13  and  C_14 
ROOT
HETATM    1  C   UNL     1     -42.270  57.235 -52.504  1.00  0.00     0.080 A 
HETATM    2  C   UNL     1     -43.099  56.107 -52.279  1.00  0.00     0.127 A 
HETATM    3  N   UNL     1     -42.836  54.992 -52.972  1.00  0.00    -0.332 N 
HETATM    4  H   UNL     1     -43.388  54.161 -52.793  1.00  0.00     0.168 HD
HETATM    5  C   UNL     1     -41.868  54.857 -53.882  1.00  0.00     0.081 A 
HETATM    6  C   UNL     1     -41.036  55.935 -54.141  1.00  0.00     0.044 A 
HETATM    7  C   UNL     1     -41.228  57.120 -53.433  1.00  0.00     0.037 A 
ENDROOT
BRANCH   5   8
HETATM    8  N   UNL     1     -41.807  53.623 -54.508  1.00  0.00    -0.275 NA
HETATM    9  H   UNL     1     -42.220  53.697 -55.442  1.00  0.00     0.129 HD
BRANCH   8  10
HETATM   10  C   UNL     1     -40.443  53.105 -54.704  1.00  0.00     0.132 C 
BRANCH  10  11
HETATM   11  C   UNL     1     -40.143  52.117 -53.605  1.00  0.00    -0.045 A 
HETATM   12  C   UNL     1     -40.063  52.536 -52.265  1.00  0.00     0.011 A 
HETATM   13  C   UNL     1     -39.766  51.618 -51.255  1.00  0.00     0.043 A 
HETATM   14  C   UNL     1     -39.550  50.284 -51.581  1.00  0.00     0.116 A 
HETATM   15  F   UNL     1     -39.266  49.406 -50.612  1.00  0.00    -0.206 F 
HETATM   16  C   UNL     1     -39.625  49.849 -52.898  1.00  0.00     0.043 A 
HETATM   17  C   UNL     1     -39.916  50.765 -53.911  1.00  0.00     0.011 A 
ENDBRANCH  10  11
ENDBRANCH   8  10
ENDBRANCH   5   8
BRANCH   2  18
HETATM   18  N   UNL     1     -44.042  56.004 -51.277  1.00  0.00    -0.384 N 
HETATM   19  H   UNL     1     -44.928  56.478 -51.499  1.00  0.00     0.157 HD
HETATM   20  H   UNL     1     -44.212  55.128 -50.801  1.00  0.00     0.157 HD
ENDBRANCH   2  18
BRANCH   1  21
HETATM   21  N   UNL     1     -42.390  58.497 -51.881  1.00  0.00    -0.299 N 
HETATM   22  C   UNL     1     -41.651  59.016 -50.856  1.00  0.00     0.365 C 
HETATM   23  O   UNL     1     -40.739  58.458 -50.265  1.00  0.00    -0.238 OA
HETATM   24  H   UNL     1     -43.191  59.077 -52.100  1.00  0.00     0.171 HD
BRANCH  22  25
HETATM   25  O   UNL     1     -42.141  60.243 -50.559  1.00  0.00    -0.304 OA
BRANCH  25  26
HETATM   26  C   UNL     1     -43.506  60.493 -50.935  1.00  0.00     0.176 C 
HETATM   27  C   UNL     1     -44.168  61.395 -49.909  1.00  0.00     0.034 C 
ENDBRANCH  25  26
ENDBRANCH  22  25
ENDBRANCH   1  21
TORSDOF 7
ENDMDL
MODEL 7
REMARK VINA RESULT:      -6.8      5.916      8.220
REMARK  7 active torsions:
REMARK  status: ('A' for Active; 'I' for Inactive)
REMARK    1  A    between atoms: C_2  and  O_3 
REMARK    2  A    between atoms: O_3  and  C_4 
REMARK       I    between atoms: C_4  and  N_5 
REMARK    3  A    between atoms: N_5  and  C_6 
REMARK    4  A    between atoms: C_7  and  N_8 
REMARK    5  A    between atoms: C_11  and  N_12 
REMARK    6  A    between atoms: N_12  and  C_13 
REMARK    7  A    between atoms: C_13  and  C_14 
ROOT
HETATM    1  C   UNL     1     -41.816  54.096 -53.875  1.00  0.00     0.080 A 
HETATM    2  C   UNL     1     -41.155  54.485 -55.068  1.00  0.00     0.127 A 
HETATM    3  N   UNL     1     -41.816  55.284 -55.914  1.00  0.00    -0.332 N 
HETATM    4  H   UNL     1     -41.345  55.610 -56.751  1.00  0.00     0.168 HD
HETATM    5  C   UNL     1     -43.061  55.732 -55.743  1.00  0.00     0.081 A 
HETATM    6  C   UNL     1     -43.751  55.373 -54.594  1.00  0.00     0.044 A 
HETATM    7  C   UNL     1     -43.115  54.569 -53.650  1.00  0.00     0.037 A 
ENDROOT
BRANCH   5   8
HETATM    8  N   UNL     1     -43.561  56.514 -56.771  1.00  0.00    -0.275 NA
HETATM    9  H   UNL     1     -43.281  57.488 -56.620  1.00  0.00     0.129 HD
BRANCH   8  10
HETATM   10  C   UNL     1     -43.069  56.150 -58.109  1.00  0.00     0.132 C 
BRANCH  10  11
HETATM   11  C   UNL     1     -44.241  56.122 -59.058  1.00  0.00    -0.045 A 
HETATM   12  C   UNL     1     -44.248  55.258 -60.167  1.00  0.00     0.011 A 
HETATM   13  C   UNL     1     -45.329  55.252 -61.052  1.00  0.00     0.043 A 
HETATM   14  C   UNL     1     -46.402  56.107 -60.830  1.00  0.00     0.116 A 
HETATM   15  F   UNL     1     -47.437  56.100 -61.679  1.00  0.00    -0.206 F 
HETATM   16  C   UNL     1     -46.416  56.969 -59.741  1.00  0.00     0.043 A 
HETATM   17  C   UNL     1     -45.335  56.981 -58.858  1.00  0.00     0.011 A 
ENDBRANCH  10  11
ENDBRANCH   8  10
ENDBRANCH   5   8
BRANCH   2  18
HETATM   18  N   UNL     1     -39.824  54.254 -55.347  1.00  0.00    -0.384 N 
HETATM   19  H   UNL     1     -39.462  54.828 -56.122  1.00  0.00     0.157 HD
HETATM   20  H   UNL     1     -39.136  54.171 -54.610  1.00  0.00     0.157 HD
ENDBRANCH   2  18
BRANCH   1  21
HETATM   21  N   UNL     1     -41.294  53.257 -52.866  1.00  0.00    -0.299 N 
HETATM   22  C   UNL     1     -40.826  53.598 -51.629  1.00  0.00     0.365 C 
HETATM   23  O   UNL     1     -40.758  54.727 -51.166  1.00  0.00    -0.238 OA
HETATM   24  H   UNL     1     -41.103  52.286 -53.087  1.00  0.00     0.171 HD
BRANCH  22  25
HETATM   25  O   UNL     1     -40.391  52.473 -51.014  1.00  0.00    -0.304 OA
BRANCH  25  26
HETATM   26  C   UNL     1     -39.601  51.576 -51.812  1.00  0.00     0.176 C 
HETATM   27  C   UNL     1     -39.561  50.205 -51.162  1.00  0.00     0.034 C 
ENDBRANCH  25  26
ENDBRANCH  22  25
ENDBRANCH   1  21
TORSDOF 7
ENDMDL
MODEL 8
REMARK VINA RESULT:      -6.7      2.110      2.699
REMARK  7 active torsions:
REMARK  status: ('A' for Active; 'I' for Inactive)
REMARK    1  A    between atoms: C_2  and  O_3 
REMARK    2  A    between atoms: O_3  and  C_4 
REMARK       I    between atoms: C_4  and  N_5 
REMARK    3  A    between atoms: N_5  and  C_6 
REMARK    4  A    between atoms: C_7  and  N_8 
REMARK    5  A    between atoms: C_11  and  N_12 
REMARK    6  A    between atoms: N_12  and  C_13 
REMARK    7  A    between atoms: C_13  and  C_14 
ROOT
HETATM    1  C   UNL     1     -44.161  57.727 -52.476  1.00  0.00     0.080 A 
HETATM    2  C   UNL     1     -44.491  56.945 -53.611  1.00  0.00     0.127 A 
HETATM    3  N   UNL     1     -43.850  55.781 -53.774  1.00  0.00    -0.332 N 
HETATM    4  H   UNL     1     -44.104  55.186 -54.555  1.00  0.00     0.168 HD
HETATM    5  C   UNL     1     -42.902  55.300 -52.967  1.00  0.00     0.081 A 
HETATM    6  C   UNL     1     -42.541  56.032 -51.846  1.00  0.00     0.044 A 
HETATM    7  C   UNL     1     -43.189  57.240 -51.592  1.00  0.00     0.037 A 
ENDROOT
BRANCH   5   8
HETATM    8  N   UNL     1     -42.345  54.092 -53.354  1.00  0.00    -0.275 NA
HETATM    9  H   UNL     1     -42.653  53.869 -54.305  1.00  0.00     0.129 HD
BRANCH   8  10
HETATM   10  C   UNL     1     -40.874  54.081 -53.386  1.00  0.00     0.132 C 
BRANCH  10  11
HETATM   11  C   UNL     1     -40.403  52.659 -53.213  1.00  0.00    -0.045 A 
HETATM   12  C   UNL     1     -40.470  51.745 -54.280  1.00  0.00     0.011 A 
HETATM   13  C   UNL     1     -40.049  50.425 -54.106  1.00  0.00     0.043 A 
HETATM   14  C   UNL     1     -39.561  50.017 -52.871  1.00  0.00     0.116 A 
HETATM   15  F   UNL     1     -39.158  48.751 -52.706  1.00  0.00    -0.206 F 
HETATM   16  C   UNL     1     -39.486  50.903 -51.804  1.00  0.00     0.043 A 
HETATM   17  C   UNL     1     -39.911  52.222 -51.972  1.00  0.00     0.011 A 
ENDBRANCH  10  11
ENDBRANCH   8  10
ENDBRANCH   5   8
BRANCH   2  18
HETATM   18  N   UNL     1     -45.543  57.196 -54.468  1.00  0.00    -0.384 N 
HETATM   19  H   UNL     1     -45.298  57.086 -55.462  1.00  0.00     0.157 HD
HETATM   20  H   UNL     1     -46.470  56.836 -54.285  1.00  0.00     0.157 HD
ENDBRANCH   2  18
BRANCH   1  21
HETATM   21  N   UNL     1     -44.716  58.979 -52.134  1.00  0.00    -0.299 N 
HETATM   22  C   UNL     1     -45.683  59.262 -51.211  1.00  0.00     0.365 C 
HETATM   23  O   UNL     1     -46.271  58.454 -50.508  1.00  0.00    -0.238 OA
HETATM   24  H   UNL     1     -44.495  59.786 -52.706  1.00  0.00     0.171 HD
BRANCH  22  25
HETATM   25  O   UNL     1     -45.929  60.593 -51.247  1.00  0.00    -0.304 OA
BRANCH  25  26
HETATM   26  C   UNL     1     -44.836  61.453 -50.883  1.00  0.00     0.176 C 
HETATM   27  C   UNL     1     -44.561  61.336 -49.394  1.00  0.00     0.034 C 
ENDBRANCH  25  26
ENDBRANCH  22  25
ENDBRANCH   1  21
TORSDOF 7
ENDMDL
MODEL 9
REMARK VINA RESULT:      -6.7      3.395      4.101
REMARK  7 active torsions:
REMARK  status: ('A' for Active; 'I' for Inactive)
REMARK    1  A    between atoms: C_2  and  O_3 
REMARK    2  A    between atoms: O_3  and  C_4 
REMARK       I    between atoms: C_4  and  N_5 
REMARK    3  A    between atoms: N_5  and  C_6 
REMARK    4  A    between atoms: C_7  and  N_8 
REMARK    5  A    between atoms: C_11  and  N_12 
REMARK    6  A    between atoms: N_12  and  C_13 
REMARK    7  A    between atoms: C_13  and  C_14 
ROOT
HETATM    1  C   UNL     1     -44.070  56.308 -54.561  1.00  0.00     0.080 A 
HETATM    2  C   UNL     1     -43.507  55.021 -54.746  1.00  0.00     0.127 A 
HETATM    3  N   UNL     1     -42.901  54.448 -53.699  1.00  0.00    -0.332 N 
HETATM    4  H   UNL     1     -42.532  53.510 -53.798  1.00  0.00     0.168 HD
HETATM    5  C   UNL     1     -42.760  54.999 -52.491  1.00  0.00     0.081 A 
HETATM    6  C   UNL     1     -43.289  56.260 -52.263  1.00  0.00     0.044 A 
HETATM    7  C   UNL     1     -43.963  56.906 -53.298  1.00  0.00     0.037 A 
ENDROOT
BRANCH   5   8
HETATM    8  N   UNL     1     -42.060  54.240 -51.568  1.00  0.00    -0.275 NA
HETATM    9  H   UNL     1     -42.402  53.275 -51.596  1.00  0.00     0.129 HD
BRANCH   8  10
HETATM   10  C   UNL     1     -40.610  54.168 -51.811  1.00  0.00     0.132 C 
BRANCH  10  11
HETATM   11  C   UNL     1     -40.246  52.735 -52.110  1.00  0.00    -0.045 A 
HETATM   12  C   UNL     1     -39.960  51.834 -51.069  1.00  0.00     0.011 A 
HETATM   13  C   UNL     1     -39.605  50.514 -51.355  1.00  0.00     0.043 A 
HETATM   14  C   UNL     1     -39.536  50.093 -52.677  1.00  0.00     0.116 A 
HETATM   15  F   UNL     1     -39.196  48.827 -52.949  1.00  0.00    -0.206 F 
HETATM   16  C   UNL     1     -39.814  50.966 -53.721  1.00  0.00     0.043 A 
HETATM   17  C   UNL     1     -40.165  52.287 -53.439  1.00  0.00     0.011 A 
ENDBRANCH  10  11
ENDBRANCH   8  10
ENDBRANCH   5   8
BRANCH   2  18
HETATM   18  N   UNL     1     -43.684  54.232 -55.865  1.00  0.00    -0.384 N 
HETATM   19  H   UNL     1     -42.952  54.362 -56.578  1.00  0.00     0.157 HD
HETATM   20  H   UNL     1     -43.943  53.258 -55.788  1.00  0.00     0.157 HD
ENDBRANCH   2  18
BRANCH   1  21
HETATM   21  N   UNL     1     -44.739  57.077 -55.539  1.00  0.00    -0.299 N 
HETATM   22  C   UNL     1     -44.214  57.725 -56.621  1.00  0.00     0.365 C 
HETATM   23  O   UNL     1     -43.034  57.773 -56.935  1.00  0.00    -0.238 OA
HETATM   24  H   UNL     1     -45.714  57.313 -55.395  1.00  0.00     0.171 HD
BRANCH  22  25
HETATM   25  O   UNL     1     -45.221  58.365 -57.263  1.00  0.00    -0.304 OA
BRANCH  25  26
HETATM   26  C   UNL     1     -45.226  58.267 -58.697  1.00  0.00     0.176 C 
HETATM   27  C   UNL     1     -46.084  57.093 -59.131  1.00  0.00     0.034 C 
ENDBRANCH  25  26
ENDBRANCH  22  25
ENDBRANCH   1  21
TORSDOF 7
ENDMDL
MODEL 10
REMARK VINA RESULT:      -6.7     15.666     17.353
REMARK  7 active torsions:
REMARK  status: ('A' for Active; 'I' for Inactive)
REMARK    1  A    between atoms: C_2  and  O_3 
REMARK    2  A    between atoms: O_3  and  C_4 
REMARK       I    between atoms: C_4  and  N_5 
REMARK    3  A    between atoms: N_5  and  C_6 
REMARK    4  A    between atoms: C_7  and  N_8 
REMARK    5  A    between atoms: C_11  and  N_12 
REMARK    6  A    between atoms: N_12  and  C_13 
REMARK    7  A    between atoms: C_13  and  C_14 
ROOT
HETATM    1  C   UNL     1     -33.643  41.047 -51.792  1.00  0.00     0.080 A 
HETATM    2  C   UNL     1     -33.529  40.886 -53.196  1.00  0.00     0.127 A 
HETATM    3  N   UNL     1     -34.566  41.264 -53.953  1.00  0.00    -0.332 N 
HETATM    4  H   UNL     1     -34.487  41.199 -54.961  1.00  0.00     0.168 HD
HETATM    5  C   UNL     1     -35.717  41.762 -53.496  1.00  0.00     0.081 A 
HETATM    6  C   UNL     1     -35.878  41.932 -52.129  1.00  0.00     0.044 A 
HETATM    7  C   UNL     1     -34.828  41.591 -51.279  1.00  0.00     0.037 A 
ENDROOT
BRANCH   5   8
HETATM    8  N   UNL     1     -36.669  42.046 -54.461  1.00  0.00    -0.275 NA
HETATM    9  H   UNL     1     -36.213  42.490 -55.264  1.00  0.00     0.129 HD
BRANCH   8  10
HETATM   10  C   UNL     1     -37.372  40.867 -54.991  1.00  0.00     0.132 C 
BRANCH  10  11
HETATM   11  C   UNL     1     -37.405  40.965 -56.495  1.00  0.00    -0.045 A 
HETATM   12  C   UNL     1     -36.728  42.001 -57.163  1.00  0.00     0.011 A 
HETATM   13  C   UNL     1     -36.779  42.096 -58.555  1.00  0.00     0.043 A 
HETATM   14  C   UNL     1     -37.502  41.157 -59.281  1.00  0.00     0.116 A 
HETATM   15  F   UNL     1     -37.550  41.249 -60.616  1.00  0.00    -0.206 F 
HETATM   16  C   UNL     1     -38.178  40.125 -58.642  1.00  0.00     0.043 A 
HETATM   17  C   UNL     1     -38.134  40.030 -57.250  1.00  0.00     0.011 A 
ENDBRANCH  10  11
ENDBRANCH   8  10
ENDBRANCH   5   8
BRANCH   2  18
HETATM   18  N   UNL     1     -32.372  40.537 -53.861  1.00  0.00    -0.384 N 
HETATM   19  H   UNL     1     -31.554  41.097 -53.580  1.00  0.00     0.157 HD
HETATM   20  H   UNL     1     -32.114  39.570 -54.001  1.00  0.00     0.157 HD
ENDBRANCH   2  18
BRANCH   1  21
HETATM   21  N   UNL     1     -32.669  40.702 -50.829  1.00  0.00    -0.299 N 
HETATM   22  C   UNL     1     -31.961  39.540 -50.709  1.00  0.00     0.365 C 
HETATM   23  O   UNL     1     -32.060  38.555 -51.425  1.00  0.00    -0.238 OA
HETATM   24  H   UNL     1     -32.534  41.310 -50.029  1.00  0.00     0.171 HD
BRANCH  22  25
HETATM   25  O   UNL     1     -31.165  39.638 -49.618  1.00  0.00    -0.304 OA
BRANCH  25  26
HETATM   26  C   UNL     1     -31.816  39.522 -48.342  1.00  0.00     0.176 C 
HETATM   27  C   UNL     1     -30.810  39.741 -47.227  1.00  0.00     0.034 C 
ENDBRANCH  25  26
ENDBRANCH  22  25
ENDBRANCH   1  21
TORSDOF 7
ENDMDL
