MODEL 1
REMARK VINA RESULT:      -8.4      0.000      0.000
REMARK  8 active torsions:
REMARK  status: ('A' for Active; 'I' for Inactive)
REMARK    1  A    between atoms: C_3  and  C_4 
REMARK       I    between atoms: C_4  and  N_5 
REMARK    2  A    between atoms: N_5  and  C_6 
REMARK    3  A    between atoms: C_14  and  N_15 
REMARK       I    between atoms: N_15  and  C_16 
REMARK    4  A    between atoms: C_16  and  C_17 
REMARK       I    between atoms: C_17  and  N_18 
REMARK    5  A    between atoms: N_18  and  N_19 
REMARK    6  A    between atoms: C_20  and  C_21 
REMARK    7  A    between atoms: C_22  and  O_23 
REMARK    8  A    between atoms: C_25  and  O_26 
ROOT
HETATM    1  N   UNL     1     -43.266  58.265 -51.277  1.00  0.00    -0.318 N 
HETATM    2  C   UNL     1     -44.307  57.415 -50.977  1.00  0.00     0.315 C 
HETATM    3  O   UNL     1     -45.495  57.682 -50.834  1.00  0.00    -0.262 OA
HETATM    4  H   UNL     1     -42.354  57.813 -51.424  1.00  0.00     0.169 HD
ENDROOT
BRANCH   1   5
HETATM    5  C   UNL     1     -43.296  59.675 -51.386  1.00  0.00     0.051 A 
HETATM    6  C   UNL     1     -43.515  60.277 -52.645  1.00  0.00     0.059 A 
HETATM    7  C   UNL     1     -43.474  61.677 -52.781  1.00  0.00     0.019 A 
HETATM    8  C   UNL     1     -43.259  62.484 -51.666  1.00  0.00     0.001 A 
HETATM    9  C   UNL     1     -43.081  61.899 -50.416  1.00  0.00     0.002 A 
HETATM   10  C   UNL     1     -43.095  60.507 -50.278  1.00  0.00     0.030 A 
BRANCH   6  11
HETATM   11  C   UNL     1     -43.819  59.439 -53.843  1.00  0.00     0.258 C 
HETATM   12  N   UNL     1     -42.737  59.195 -54.672  1.00  0.00    -0.323 N 
HETATM   13  H   UNL     1     -41.867  59.659 -54.440  1.00  0.00     0.169 HD
HETATM   14  O   UNL     1     -44.979  59.094 -54.028  1.00  0.00    -0.267 OA
BRANCH  12  15
HETATM   15  C   UNL     1     -42.728  58.455 -55.872  1.00  0.00     0.035 A 
HETATM   16  C   UNL     1     -42.663  59.028 -57.145  1.00  0.00     0.031 A 
HETATM   17  C   UNL     1     -42.654  58.219 -58.287  1.00  0.00     0.026 A 
HETATM   18  C   UNL     1     -42.715  56.835 -58.162  1.00  0.00     0.034 A 
HETATM   19 CL   UNL     1     -42.703  55.843 -59.565  1.00  0.00    -0.084 Cl
HETATM   20  C   UNL     1     -42.785  56.250 -56.900  1.00  0.00     0.026 A 
HETATM   21  C   UNL     1     -42.793  57.059 -55.761  1.00  0.00     0.031 A 
ENDBRANCH  12  15
ENDBRANCH   6  11
ENDBRANCH   1   5
BRANCH   2  22
HETATM   22  C   UNL     1     -43.881  55.940 -50.882  1.00  0.00     0.329 C 
HETATM   23  N   UNL     1     -42.701  55.705 -51.565  1.00  0.00    -0.239 N 
HETATM   24  H   UNL     1     -42.268  56.492 -52.047  1.00  0.00     0.192 HD
HETATM   25  O   UNL     1     -44.549  55.142 -50.242  1.00  0.00    -0.261 OA
BRANCH  23  26
HETATM   26  N   UNL     1     -42.165  54.457 -51.629  1.00  0.00    -0.183 NA
HETATM   27  C   UNL     1     -41.395  54.242 -52.649  1.00  0.00     0.153 C 
BRANCH  27  28
HETATM   28  C   UNL     1     -40.769  52.924 -52.868  1.00  0.00     0.016 A 
HETATM   29  C   UNL     1     -40.111  52.231 -51.844  1.00  0.00     0.080 A 
HETATM   30  C   UNL     1     -39.556  50.976 -52.086  1.00  0.00     0.074 A 
HETATM   31  C   UNL     1     -39.652  50.425 -53.361  1.00  0.00     0.068 A 
HETATM   32  C   UNL     1     -40.295  51.105 -54.390  1.00  0.00     0.037 A 
HETATM   33  C   UNL     1     -40.860  52.359 -54.145  1.00  0.00     0.018 A 
BRANCH  29  34
HETATM   34  O   UNL     1     -39.979  52.717 -50.572  1.00  0.00    -0.360 OA
HETATM   35  H   UNL     1     -39.263  52.215 -50.121  1.00  0.00     0.217 HD
ENDBRANCH  29  34
BRANCH  31  36
HETATM   36  O   UNL     1     -39.123  49.201 -53.646  1.00  0.00    -0.361 OA
HETATM   37  H   UNL     1     -38.155  49.258 -53.573  1.00  0.00     0.217 HD
ENDBRANCH  31  36
ENDBRANCH  27  28
ENDBRANCH  23  26
ENDBRANCH   2  22
TORSDOF 8
ENDMDL
MODEL 2
REMARK VINA RESULT:      -8.4      2.537      7.691
REMARK  8 active torsions:
REMARK  status: ('A' for Active; 'I' for Inactive)
REMARK    1  A    between atoms: C_3  and  C_4 
REMARK       I    between atoms: C_4  and  N_5 
REMARK    2  A    between atoms: N_5  and  C_6 
REMARK    3  A    between atoms: C_14  and  N_15 
REMARK       I    between atoms: N_15  and  C_16 
REMARK    4  A    between atoms: C_16  and  C_17 
REMARK       I    between atoms: C_17  and  N_18 
REMARK    5  A    between atoms: N_18  and  N_19 
REMARK    6  A    between atoms: C_20  and  C_21 
REMARK    7  A    between atoms: C_22  and  O_23 
REMARK    8  A    between atoms: C_25  and  O_26 
ROOT
HETATM    1  N   UNL     1     -40.418  53.330 -51.469  1.00  0.00    -0.318 N 
HETATM    2  C   UNL     1     -40.577  53.395 -50.103  1.00  0.00     0.315 C 
HETATM    3  O   UNL     1     -40.411  52.512 -49.270  1.00  0.00    -0.262 OA
HETATM    4  H   UNL     1     -40.542  54.218 -51.972  1.00  0.00     0.169 HD
ENDROOT
BRANCH   1   5
HETATM    5  C   UNL     1     -40.129  52.193 -52.259  1.00  0.00     0.051 A 
HETATM    6  C   UNL     1     -40.306  52.248 -53.659  1.00  0.00     0.059 A 
HETATM    7  C   UNL     1     -40.091  51.103 -54.449  1.00  0.00     0.019 A 
HETATM    8  C   UNL     1     -39.661  49.916 -53.861  1.00  0.00     0.001 A 
HETATM    9  C   UNL     1     -39.448  49.866 -52.486  1.00  0.00     0.002 A 
HETATM   10  C   UNL     1     -39.684  50.992 -51.692  1.00  0.00     0.030 A 
BRANCH   6  11
HETATM   11  C   UNL     1     -40.696  53.527 -54.324  1.00  0.00     0.258 C 
HETATM   12  N   UNL     1     -42.056  53.785 -54.333  1.00  0.00    -0.323 N 
HETATM   13  H   UNL     1     -42.663  53.065 -53.962  1.00  0.00     0.169 HD
HETATM   14  O   UNL     1     -39.817  54.198 -54.849  1.00  0.00    -0.267 OA
BRANCH  12  15
HETATM   15  C   UNL     1     -42.712  54.899 -54.898  1.00  0.00     0.035 A 
HETATM   16  C   UNL     1     -42.542  55.320 -56.219  1.00  0.00     0.031 A 
HETATM   17  C   UNL     1     -43.236  56.436 -56.703  1.00  0.00     0.026 A 
HETATM   18  C   UNL     1     -44.098  57.137 -55.866  1.00  0.00     0.034 A 
HETATM   19 CL   UNL     1     -44.951  58.506 -56.461  1.00  0.00    -0.084 Cl
HETATM   20  C   UNL     1     -44.274  56.732 -54.545  1.00  0.00     0.026 A 
HETATM   21  C   UNL     1     -43.582  55.617 -54.064  1.00  0.00     0.031 A 
ENDBRANCH  12  15
ENDBRANCH   6  11
ENDBRANCH   1   5
BRANCH   2  22
HETATM   22  C   UNL     1     -40.953  54.801 -49.600  1.00  0.00     0.329 C 
HETATM   23  N   UNL     1     -41.144  55.683 -50.649  1.00  0.00    -0.239 N 
HETATM   24  H   UNL     1     -41.009  55.330 -51.596  1.00  0.00     0.192 HD
HETATM   25  O   UNL     1     -41.068  55.020 -48.404  1.00  0.00    -0.261 OA
BRANCH  23  26
HETATM   26  N   UNL     1     -41.455  56.986 -50.420  1.00  0.00    -0.183 NA
HETATM   27  C   UNL     1     -42.270  57.515 -51.277  1.00  0.00     0.153 C 
BRANCH  27  28
HETATM   28  C   UNL     1     -42.673  58.931 -51.175  1.00  0.00     0.016 A 
HETATM   29  C   UNL     1     -41.850  59.901 -50.588  1.00  0.00     0.080 A 
HETATM   30  C   UNL     1     -42.257  61.232 -50.535  1.00  0.00     0.074 A 
HETATM   31  C   UNL     1     -43.495  61.586 -51.062  1.00  0.00     0.068 A 
HETATM   32  C   UNL     1     -44.327  60.632 -51.641  1.00  0.00     0.037 A 
HETATM   33  C   UNL     1     -43.916  59.299 -51.703  1.00  0.00     0.018 A 
BRANCH  29  34
HETATM   34  O   UNL     1     -40.623  59.619 -50.050  1.00  0.00    -0.360 OA
HETATM   35  H   UNL     1     -40.662  59.798 -49.082  1.00  0.00     0.217 HD
ENDBRANCH  29  34
BRANCH  31  36
HETATM   36  O   UNL     1     -43.937  62.875 -51.033  1.00  0.00    -0.361 OA
HETATM   37  H   UNL     1     -43.169  63.464 -50.937  1.00  0.00     0.217 HD
ENDBRANCH  31  36
ENDBRANCH  27  28
ENDBRANCH  23  26
ENDBRANCH   2  22
TORSDOF 8
ENDMDL
MODEL 3
REMARK VINA RESULT:      -8.2      3.311      5.682
REMARK  8 active torsions:
REMARK  status: ('A' for Active; 'I' for Inactive)
REMARK    1  A    between atoms: C_3  and  C_4 
REMARK       I    between atoms: C_4  and  N_5 
REMARK    2  A    between atoms: N_5  and  C_6 
REMARK    3  A    between atoms: C_14  and  N_15 
REMARK       I    between atoms: N_15  and  C_16 
REMARK    4  A    between atoms: C_16  and  C_17 
REMARK       I    between atoms: C_17  and  N_18 
REMARK    5  A    between atoms: N_18  and  N_19 
REMARK    6  A    between atoms: C_20  and  C_21 
REMARK    7  A    between atoms: C_22  and  O_23 
REMARK    8  A    between atoms: C_25  and  O_26 
ROOT
HETATM    1  N   UNL     1     -42.080  56.934 -57.434  1.00  0.00    -0.318 N 
HETATM    2  C   UNL     1     -42.822  55.775 -57.407  1.00  0.00     0.315 C 
HETATM    3  O   UNL     1     -43.576  55.329 -58.264  1.00  0.00    -0.262 OA
HETATM    4  H   UNL     1     -41.454  57.078 -56.631  1.00  0.00     0.169 HD
ENDROOT
BRANCH   1   5
HETATM    5  C   UNL     1     -42.091  57.953 -58.415  1.00  0.00     0.051 A 
HETATM    6  C   UNL     1     -42.446  59.271 -58.054  1.00  0.00     0.059 A 
HETATM    7  C   UNL     1     -42.532  60.279 -59.032  1.00  0.00     0.019 A 
HETATM    8  C   UNL     1     -42.226  59.994 -60.361  1.00  0.00     0.001 A 
HETATM    9  C   UNL     1     -41.838  58.706 -60.718  1.00  0.00     0.002 A 
HETATM   10  C   UNL     1     -41.775  57.694 -59.755  1.00  0.00     0.030 A 
BRANCH   6  11
HETATM   11  C   UNL     1     -42.709  59.621 -56.626  1.00  0.00     0.258 C 
HETATM   12  N   UNL     1     -44.048  59.670 -56.277  1.00  0.00    -0.323 N 
HETATM   13  H   UNL     1     -44.722  59.541 -57.022  1.00  0.00     0.169 HD
HETATM   14  O   UNL     1     -41.752  59.890 -55.911  1.00  0.00    -0.267 OA
BRANCH  12  15
HETATM   15  C   UNL     1     -44.592  59.986 -55.015  1.00  0.00     0.035 A 
HETATM   16  C   UNL     1     -44.440  59.192 -53.876  1.00  0.00     0.031 A 
HETATM   17  C   UNL     1     -45.010  59.581 -52.658  1.00  0.00     0.026 A 
HETATM   18  C   UNL     1     -45.738  60.764 -52.576  1.00  0.00     0.034 A 
HETATM   19 CL   UNL     1     -46.437  61.241 -51.080  1.00  0.00    -0.084 Cl
HETATM   20  C   UNL     1     -45.903  61.563 -53.704  1.00  0.00     0.026 A 
HETATM   21  C   UNL     1     -45.332  61.174 -54.918  1.00  0.00     0.031 A 
ENDBRANCH  12  15
ENDBRANCH   6  11
ENDBRANCH   1   5
BRANCH   2  22
HETATM   22  C   UNL     1     -42.589  54.933 -56.140  1.00  0.00     0.329 C 
HETATM   23  N   UNL     1     -41.255  54.924 -55.772  1.00  0.00    -0.239 N 
HETATM   24  H   UNL     1     -40.599  55.439 -56.357  1.00  0.00     0.192 HD
HETATM   25  O   UNL     1     -43.527  54.388 -55.578  1.00  0.00    -0.261 OA
BRANCH  23  26
HETATM   26  N   UNL     1     -40.832  54.214 -54.692  1.00  0.00    -0.183 NA
HETATM   27  C   UNL     1     -40.664  52.946 -54.902  1.00  0.00     0.153 C 
BRANCH  27  28
HETATM   28  C   UNL     1     -40.239  52.043 -53.815  1.00  0.00     0.016 A 
HETATM   29  C   UNL     1     -40.070  52.488 -52.497  1.00  0.00     0.080 A 
HETATM   30  C   UNL     1     -39.692  51.596 -51.496  1.00  0.00     0.074 A 
HETATM   31  C   UNL     1     -39.474  50.260 -51.821  1.00  0.00     0.068 A 
HETATM   32  C   UNL     1     -39.629  49.806 -53.127  1.00  0.00     0.037 A 
HETATM   33  C   UNL     1     -40.017  50.697 -54.130  1.00  0.00     0.018 A 
BRANCH  29  34
HETATM   34  O   UNL     1     -40.266  53.786 -52.112  1.00  0.00    -0.360 OA
HETATM   35  H   UNL     1     -40.728  53.784 -51.243  1.00  0.00     0.217 HD
ENDBRANCH  29  34
BRANCH  31  36
HETATM   36  O   UNL     1     -39.102  49.351 -50.876  1.00  0.00    -0.361 OA
HETATM   37  H   UNL     1     -39.474  48.485 -51.116  1.00  0.00     0.217 HD
ENDBRANCH  31  36
ENDBRANCH  27  28
ENDBRANCH  23  26
ENDBRANCH   2  22
TORSDOF 8
ENDMDL
MODEL 4
REMARK VINA RESULT:      -8.2      3.999      8.011
REMARK  8 active torsions:
REMARK  status: ('A' for Active; 'I' for Inactive)
REMARK    1  A    between atoms: C_3  and  C_4 
REMARK       I    between atoms: C_4  and  N_5 
REMARK    2  A    between atoms: N_5  and  C_6 
REMARK    3  A    between atoms: C_14  and  N_15 
REMARK       I    between atoms: N_15  and  C_16 
REMARK    4  A    between atoms: C_16  and  C_17 
REMARK       I    between atoms: C_17  and  N_18 
REMARK    5  A    between atoms: N_18  and  N_19 
REMARK    6  A    between atoms: C_20  and  C_21 
REMARK    7  A    between atoms: C_22  and  O_23 
REMARK    8  A    between atoms: C_25  and  O_26 
ROOT
HETATM    1  N   UNL     1     -42.647  57.175 -54.086  1.00  0.00    -0.318 N 
HETATM    2  C   UNL     1     -41.941  56.538 -55.082  1.00  0.00     0.315 C 
HETATM    3  O   UNL     1     -40.755  56.233 -55.103  1.00  0.00    -0.262 OA
HETATM    4  H   UNL     1     -43.658  57.268 -54.250  1.00  0.00     0.169 HD
ENDROOT
BRANCH   1   5
HETATM    5  C   UNL     1     -42.150  57.730 -52.884  1.00  0.00     0.051 A 
HETATM    6  C   UNL     1     -41.774  56.880 -51.820  1.00  0.00     0.059 A 
HETATM    7  C   UNL     1     -41.347  57.421 -50.594  1.00  0.00     0.019 A 
HETATM    8  C   UNL     1     -41.250  58.801 -50.431  1.00  0.00     0.001 A 
HETATM    9  C   UNL     1     -41.582  59.644 -51.488  1.00  0.00     0.002 A 
HETATM   10  C   UNL     1     -42.032  59.114 -52.701  1.00  0.00     0.030 A 
BRANCH   6  11
HETATM   11  C   UNL     1     -41.799  55.397 -51.991  1.00  0.00     0.258 C 
HETATM   12  N   UNL     1     -40.593  54.836 -52.373  1.00  0.00    -0.323 N 
HETATM   13  H   UNL     1     -39.832  55.474 -52.572  1.00  0.00     0.169 HD
HETATM   14  O   UNL     1     -42.867  54.816 -51.847  1.00  0.00    -0.267 OA
BRANCH  12  15
HETATM   15  C   UNL     1     -40.323  53.474 -52.623  1.00  0.00     0.035 A 
HETATM   16  C   UNL     1     -40.486  52.858 -53.866  1.00  0.00     0.031 A 
HETATM   17  C   UNL     1     -40.190  51.500 -54.029  1.00  0.00     0.026 A 
HETATM   18  C   UNL     1     -39.734  50.751 -52.948  1.00  0.00     0.034 A 
HETATM   19 CL   UNL     1     -39.371  49.083 -53.150  1.00  0.00    -0.084 Cl
HETATM   20  C   UNL     1     -39.571  51.350 -51.702  1.00  0.00     0.026 A 
HETATM   21  C   UNL     1     -39.866  52.706 -51.541  1.00  0.00     0.031 A 
ENDBRANCH  12  15
ENDBRANCH   6  11
ENDBRANCH   1   5
BRANCH   2  22
HETATM   22  C   UNL     1     -42.816  56.122 -56.277  1.00  0.00     0.329 C 
HETATM   23  N   UNL     1     -43.026  57.177 -57.147  1.00  0.00    -0.239 N 
HETATM   24  H   UNL     1     -42.611  58.077 -56.910  1.00  0.00     0.192 HD
HETATM   25  O   UNL     1     -43.219  54.973 -56.379  1.00  0.00    -0.261 OA
BRANCH  23  26
HETATM   26  N   UNL     1     -43.799  57.027 -58.256  1.00  0.00    -0.183 NA
HETATM   27  C   UNL     1     -44.954  57.610 -58.202  1.00  0.00     0.153 C 
BRANCH  27  28
HETATM   28  C   UNL     1     -45.914  57.508 -59.318  1.00  0.00     0.016 A 
HETATM   29  C   UNL     1     -46.185  56.293 -59.961  1.00  0.00     0.080 A 
HETATM   30  C   UNL     1     -47.118  56.235 -60.994  1.00  0.00     0.074 A 
HETATM   31  C   UNL     1     -47.770  57.400 -61.388  1.00  0.00     0.068 A 
HETATM   32  C   UNL     1     -47.504  58.616 -60.765  1.00  0.00     0.037 A 
HETATM   33  C   UNL     1     -46.576  58.673 -59.723  1.00  0.00     0.018 A 
BRANCH  29  34
HETATM   34  O   UNL     1     -45.578  55.113 -59.624  1.00  0.00    -0.360 OA
HETATM   35  H   UNL     1     -45.644  54.501 -60.392  1.00  0.00     0.217 HD
ENDBRANCH  29  34
BRANCH  31  36
HETATM   36  O   UNL     1     -48.689  57.393 -62.394  1.00  0.00    -0.361 OA
HETATM   37  H   UNL     1     -49.089  58.277 -62.455  1.00  0.00     0.217 HD
ENDBRANCH  31  36
ENDBRANCH  27  28
ENDBRANCH  23  26
ENDBRANCH   2  22
TORSDOF 8
ENDMDL
MODEL 5
REMARK VINA RESULT:      -8.1      3.199      8.481
REMARK  8 active torsions:
REMARK  status: ('A' for Active; 'I' for Inactive)
REMARK    1  A    between atoms: C_3  and  C_4 
REMARK       I    between atoms: C_4  and  N_5 
REMARK    2  A    between atoms: N_5  and  C_6 
REMARK    3  A    between atoms: C_14  and  N_15 
REMARK       I    between atoms: N_15  and  C_16 
REMARK    4  A    between atoms: C_16  and  C_17 
REMARK       I    between atoms: C_17  and  N_18 
REMARK    5  A    between atoms: N_18  and  N_19 
REMARK    6  A    between atoms: C_20  and  C_21 
REMARK    7  A    between atoms: C_22  and  O_23 
REMARK    8  A    between atoms: C_25  and  O_26 
ROOT
HETATM    1  N   UNL     1     -43.105  58.202 -54.916  1.00  0.00    -0.318 N 
HETATM    2  C   UNL     1     -42.222  59.188 -54.538  1.00  0.00     0.315 C 
HETATM    3  O   UNL     1     -41.437  59.820 -55.235  1.00  0.00    -0.262 OA
HETATM    4  H   UNL     1     -43.726  57.855 -54.174  1.00  0.00     0.169 HD
ENDROOT
BRANCH   1   5
HETATM    5  C   UNL     1     -43.245  57.598 -56.188  1.00  0.00     0.051 A 
HETATM    6  C   UNL     1     -43.019  56.212 -56.336  1.00  0.00     0.059 A 
HETATM    7  C   UNL     1     -43.083  55.612 -57.607  1.00  0.00     0.019 A 
HETATM    8  C   UNL     1     -43.412  56.374 -58.727  1.00  0.00     0.001 A 
HETATM    9  C   UNL     1     -43.673  57.733 -58.582  1.00  0.00     0.002 A 
HETATM   10  C   UNL     1     -43.586  58.340 -57.326  1.00  0.00     0.030 A 
BRANCH   6  11
HETATM   11  C   UNL     1     -42.737  55.359 -55.143  1.00  0.00     0.258 C 
HETATM   12  N   UNL     1     -41.517  54.705 -55.173  1.00  0.00    -0.323 N 
HETATM   13  H   UNL     1     -40.965  54.799 -56.017  1.00  0.00     0.169 HD
HETATM   14  O   UNL     1     -43.604  55.257 -54.286  1.00  0.00    -0.267 OA
BRANCH  12  15
HETATM   15  C   UNL     1     -40.992  53.828 -54.201  1.00  0.00     0.035 A 
HETATM   16  C   UNL     1     -40.907  54.129 -52.839  1.00  0.00     0.031 A 
HETATM   17  C   UNL     1     -40.376  53.198 -51.939  1.00  0.00     0.026 A 
HETATM   18  C   UNL     1     -39.923  51.965 -52.397  1.00  0.00     0.034 A 
HETATM   19 CL   UNL     1     -39.271  50.823 -51.290  1.00  0.00    -0.084 Cl
HETATM   20  C   UNL     1     -39.997  51.653 -53.752  1.00  0.00     0.026 A 
HETATM   21  C   UNL     1     -40.528  52.583 -54.650  1.00  0.00     0.031 A 
ENDBRANCH  12  15
ENDBRANCH   6  11
ENDBRANCH   1   5
BRANCH   2  22
HETATM   22  C   UNL     1     -42.318  59.550 -53.046  1.00  0.00     0.329 C 
HETATM   23  N   UNL     1     -43.609  59.406 -52.568  1.00  0.00    -0.239 N 
HETATM   24  H   UNL     1     -44.326  59.104 -53.225  1.00  0.00     0.192 HD
HETATM   25  O   UNL     1     -41.322  59.895 -52.427  1.00  0.00    -0.261 OA
BRANCH  23  26
HETATM   26  N   UNL     1     -43.915  59.704 -51.277  1.00  0.00    -0.183 NA
HETATM   27  C   UNL     1     -44.385  60.896 -51.086  1.00  0.00     0.153 C 
BRANCH  27  28
HETATM   28  C   UNL     1     -44.731  61.372 -49.733  1.00  0.00     0.016 A 
HETATM   29  C   UNL     1     -45.413  60.568 -48.810  1.00  0.00     0.080 A 
HETATM   30  C   UNL     1     -45.698  61.047 -47.533  1.00  0.00     0.074 A 
HETATM   31  C   UNL     1     -45.307  62.337 -47.188  1.00  0.00     0.068 A 
HETATM   32  C   UNL     1     -44.636  63.150 -48.096  1.00  0.00     0.037 A 
HETATM   33  C   UNL     1     -44.342  62.668 -49.373  1.00  0.00     0.018 A 
BRANCH  29  34
HETATM   34  O   UNL     1     -45.827  59.293 -49.086  1.00  0.00    -0.360 OA
HETATM   35  H   UNL     1     -45.479  59.040 -49.972  1.00  0.00     0.217 HD
ENDBRANCH  29  34
BRANCH  31  36
HETATM   36  O   UNL     1     -45.564  62.850 -45.951  1.00  0.00    -0.361 OA
HETATM   37  H   UNL     1     -44.999  63.629 -45.815  1.00  0.00     0.217 HD
ENDBRANCH  31  36
ENDBRANCH  27  28
ENDBRANCH  23  26
ENDBRANCH   2  22
TORSDOF 8
ENDMDL
MODEL 6
REMARK VINA RESULT:      -8.0      3.696      8.632
REMARK  8 active torsions:
REMARK  status: ('A' for Active; 'I' for Inactive)
REMARK    1  A    between atoms: C_3  and  C_4 
REMARK       I    between atoms: C_4  and  N_5 
REMARK    2  A    between atoms: N_5  and  C_6 
REMARK    3  A    between atoms: C_14  and  N_15 
REMARK       I    between atoms: N_15  and  C_16 
REMARK    4  A    between atoms: C_16  and  C_17 
REMARK       I    between atoms: C_17  and  N_18 
REMARK    5  A    between atoms: N_18  and  N_19 
REMARK    6  A    between atoms: C_20  and  C_21 
REMARK    7  A    between atoms: C_22  and  O_23 
REMARK    8  A    between atoms: C_25  and  O_26 
ROOT
HETATM    1  N   UNL     1     -41.561  54.821 -55.197  1.00  0.00    -0.318 N 
HETATM    2  C   UNL     1     -42.725  54.662 -55.916  1.00  0.00     0.315 C 
HETATM    3  O   UNL     1     -43.599  53.815 -55.779  1.00  0.00    -0.262 OA
HETATM    4  H   UNL     1     -41.002  55.650 -55.437  1.00  0.00     0.169 HD
ENDROOT
BRANCH   1   5
HETATM    5  C   UNL     1     -41.037  53.976 -54.192  1.00  0.00     0.051 A 
HETATM    6  C   UNL     1     -41.142  54.350 -52.834  1.00  0.00     0.059 A 
HETATM    7  C   UNL     1     -40.561  53.555 -51.829  1.00  0.00     0.019 A 
HETATM    8  C   UNL     1     -39.912  52.369 -52.161  1.00  0.00     0.001 A 
HETATM    9  C   UNL     1     -39.837  51.974 -53.493  1.00  0.00     0.002 A 
HETATM   10  C   UNL     1     -40.391  52.772 -54.500  1.00  0.00     0.030 A 
BRANCH   6  11
HETATM   11  C   UNL     1     -41.895  55.580 -52.444  1.00  0.00     0.258 C 
HETATM   12  N   UNL     1     -41.105  56.686 -52.182  1.00  0.00    -0.323 N 
HETATM   13  H   UNL     1     -40.102  56.550 -52.204  1.00  0.00     0.169 HD
HETATM   14  O   UNL     1     -43.111  55.501 -52.329  1.00  0.00    -0.267 OA
BRANCH  12  15
HETATM   15  C   UNL     1     -41.534  57.968 -51.781  1.00  0.00     0.035 A 
HETATM   16  C   UNL     1     -42.520  58.706 -52.441  1.00  0.00     0.031 A 
HETATM   17  C   UNL     1     -42.890  59.973 -51.973  1.00  0.00     0.026 A 
HETATM   18  C   UNL     1     -42.273  60.507 -50.847  1.00  0.00     0.034 A 
HETATM   19 CL   UNL     1     -42.729  62.062 -50.273  1.00  0.00    -0.084 Cl
HETATM   20  C   UNL     1     -41.286  59.786 -50.181  1.00  0.00     0.026 A 
HETATM   21  C   UNL     1     -40.918  58.522 -50.649  1.00  0.00     0.031 A 
ENDBRANCH  12  15
ENDBRANCH   6  11
ENDBRANCH   1   5
BRANCH   2  22
HETATM   22  C   UNL     1     -42.937  55.756 -56.978  1.00  0.00     0.329 C 
HETATM   23  N   UNL     1     -42.588  57.006 -56.499  1.00  0.00    -0.239 N 
HETATM   24  H   UNL     1     -42.257  57.070 -55.537  1.00  0.00     0.192 HD
HETATM   25  O   UNL     1     -43.348  55.466 -58.092  1.00  0.00    -0.261 OA
BRANCH  23  26
HETATM   26  N   UNL     1     -42.728  58.116 -57.272  1.00  0.00    -0.183 NA
HETATM   27  C   UNL     1     -41.779  58.308 -58.134  1.00  0.00     0.153 C 
BRANCH  27  28
HETATM   28  C   UNL     1     -41.779  59.488 -59.019  1.00  0.00     0.016 A 
HETATM   29  C   UNL     1     -41.478  60.773 -58.550  1.00  0.00     0.080 A 
HETATM   30  C   UNL     1     -41.463  61.857 -59.425  1.00  0.00     0.074 A 
HETATM   31  C   UNL     1     -41.761  61.650 -60.769  1.00  0.00     0.068 A 
HETATM   32  C   UNL     1     -42.070  60.380 -61.248  1.00  0.00     0.037 A 
HETATM   33  C   UNL     1     -42.075  59.292 -60.373  1.00  0.00     0.018 A 
BRANCH  29  34
HETATM   34  O   UNL     1     -41.180  61.045 -57.242  1.00  0.00    -0.360 OA
HETATM   35  H   UNL     1     -40.200  61.085 -57.151  1.00  0.00     0.217 HD
ENDBRANCH  29  34
BRANCH  31  36
HETATM   36  O   UNL     1     -41.761  62.679 -61.663  1.00  0.00    -0.361 OA
HETATM   37  H   UNL     1     -41.423  62.351 -62.513  1.00  0.00     0.217 HD
ENDBRANCH  31  36
ENDBRANCH  27  28
ENDBRANCH  23  26
ENDBRANCH   2  22
TORSDOF 8
ENDMDL
MODEL 7
REMARK VINA RESULT:      -7.9      4.862      7.395
REMARK  8 active torsions:
REMARK  status: ('A' for Active; 'I' for Inactive)
REMARK    1  A    between atoms: C_3  and  C_4 
REMARK       I    between atoms: C_4  and  N_5 
REMARK    2  A    between atoms: N_5  and  C_6 
REMARK    3  A    between atoms: C_14  and  N_15 
REMARK       I    between atoms: N_15  and  C_16 
REMARK    4  A    between atoms: C_16  and  C_17 
REMARK       I    between atoms: C_17  and  N_18 
REMARK    5  A    between atoms: N_18  and  N_19 
REMARK    6  A    between atoms: C_20  and  C_21 
REMARK    7  A    between atoms: C_22  and  O_23 
REMARK    8  A    between atoms: C_25  and  O_26 
ROOT
HETATM    1  N   UNL     1     -45.393  60.644 -51.373  1.00  0.00    -0.318 N 
HETATM    2  C   UNL     1     -45.435  59.346 -50.917  1.00  0.00     0.315 C 
HETATM    3  O   UNL     1     -46.401  58.707 -50.515  1.00  0.00    -0.262 OA
HETATM    4  H   UNL     1     -44.482  60.957 -51.732  1.00  0.00     0.169 HD
ENDROOT
BRANCH   1   5
HETATM    5  C   UNL     1     -46.438  61.597 -51.387  1.00  0.00     0.051 A 
HETATM    6  C   UNL     1     -46.617  62.459 -50.283  1.00  0.00     0.059 A 
HETATM    7  C   UNL     1     -47.696  63.361 -50.252  1.00  0.00     0.019 A 
HETATM    8  C   UNL     1     -48.574  63.442 -51.330  1.00  0.00     0.001 A 
HETATM    9  C   UNL     1     -48.381  62.623 -52.439  1.00  0.00     0.002 A 
HETATM   10  C   UNL     1     -47.326  61.706 -52.465  1.00  0.00     0.030 A 
BRANCH   6  11
HETATM   11  C   UNL     1     -45.649  62.443 -49.146  1.00  0.00     0.258 C 
HETATM   12  N   UNL     1     -46.229  62.367 -47.891  1.00  0.00    -0.323 N 
HETATM   13  H   UNL     1     -47.240  62.403 -47.849  1.00  0.00     0.169 HD
HETATM   14  O   UNL     1     -44.457  62.559 -49.399  1.00  0.00    -0.267 OA
BRANCH  12  15
HETATM   15  C   UNL     1     -45.570  62.351 -46.644  1.00  0.00     0.035 A 
HETATM   16  C   UNL     1     -45.016  61.207 -46.065  1.00  0.00     0.031 A 
HETATM   17  C   UNL     1     -44.374  61.279 -44.823  1.00  0.00     0.026 A 
HETATM   18  C   UNL     1     -44.289  62.495 -44.153  1.00  0.00     0.034 A 
HETATM   19 CL   UNL     1     -43.500  62.582 -42.628  1.00  0.00    -0.084 Cl
HETATM   20  C   UNL     1     -44.840  63.643 -44.714  1.00  0.00     0.026 A 
HETATM   21  C   UNL     1     -45.480  63.570 -45.955  1.00  0.00     0.031 A 
ENDBRANCH  12  15
ENDBRANCH   6  11
ENDBRANCH   1   5
BRANCH   2  22
HETATM   22  C   UNL     1     -44.078  58.626 -51.003  1.00  0.00     0.329 C 
HETATM   23  N   UNL     1     -44.203  57.270 -50.759  1.00  0.00    -0.239 N 
HETATM   24  H   UNL     1     -45.133  56.911 -50.545  1.00  0.00     0.192 HD
HETATM   25  O   UNL     1     -43.063  59.249 -51.279  1.00  0.00    -0.261 OA
BRANCH  23  26
HETATM   26  N   UNL     1     -43.114  56.455 -50.758  1.00  0.00    -0.183 NA
HETATM   27  C   UNL     1     -43.214  55.407 -51.514  1.00  0.00     0.153 C 
BRANCH  27  28
HETATM   28  C   UNL     1     -42.124  54.416 -51.590  1.00  0.00     0.016 A 
HETATM   29  C   UNL     1     -41.481  53.924 -50.447  1.00  0.00     0.080 A 
HETATM   30  C   UNL     1     -40.474  52.967 -50.561  1.00  0.00     0.074 A 
HETATM   31  C   UNL     1     -40.106  52.514 -51.825  1.00  0.00     0.068 A 
HETATM   32  C   UNL     1     -40.731  53.000 -52.970  1.00  0.00     0.037 A 
HETATM   33  C   UNL     1     -41.747  53.951 -52.856  1.00  0.00     0.018 A 
BRANCH  29  34
HETATM   34  O   UNL     1     -41.792  54.329 -49.177  1.00  0.00    -0.360 OA
HETATM   35  H   UNL     1     -41.688  55.307 -49.131  1.00  0.00     0.217 HD
ENDBRANCH  29  34
BRANCH  31  36
HETATM   36  O   UNL     1     -39.126  51.581 -51.987  1.00  0.00    -0.361 OA
HETATM   37  H   UNL     1     -38.337  52.020 -52.346  1.00  0.00     0.217 HD
ENDBRANCH  31  36
ENDBRANCH  27  28
ENDBRANCH  23  26
ENDBRANCH   2  22
TORSDOF 8
ENDMDL
MODEL 8
REMARK VINA RESULT:      -7.8      1.299      1.834
REMARK  8 active torsions:
REMARK  status: ('A' for Active; 'I' for Inactive)
REMARK    1  A    between atoms: C_3  and  C_4 
REMARK       I    between atoms: C_4  and  N_5 
REMARK    2  A    between atoms: N_5  and  C_6 
REMARK    3  A    between atoms: C_14  and  N_15 
REMARK       I    between atoms: N_15  and  C_16 
REMARK    4  A    between atoms: C_16  and  C_17 
REMARK       I    between atoms: C_17  and  N_18 
REMARK    5  A    between atoms: N_18  and  N_19 
REMARK    6  A    between atoms: C_20  and  C_21 
REMARK    7  A    between atoms: C_22  and  O_23 
REMARK    8  A    between atoms: C_25  and  O_26 
ROOT
HETATM    1  N   UNL     1     -43.461  58.930 -51.493  1.00  0.00    -0.318 N 
HETATM    2  C   UNL     1     -44.449  58.094 -51.025  1.00  0.00     0.315 C 
HETATM    3  O   UNL     1     -45.542  58.388 -50.556  1.00  0.00    -0.262 OA
HETATM    4  H   UNL     1     -42.647  58.463 -51.913  1.00  0.00     0.169 HD
ENDROOT
BRANCH   1   5
HETATM    5  C   UNL     1     -43.421  60.343 -51.445  1.00  0.00     0.051 A 
HETATM    6  C   UNL     1     -43.448  61.087 -52.645  1.00  0.00     0.059 A 
HETATM    7  C   UNL     1     -43.336  62.489 -52.616  1.00  0.00     0.019 A 
HETATM    8  C   UNL     1     -43.238  63.160 -51.399  1.00  0.00     0.001 A 
HETATM    9  C   UNL     1     -43.250  62.436 -50.211  1.00  0.00     0.002 A 
HETATM   10  C   UNL     1     -43.335  61.041 -50.234  1.00  0.00     0.030 A 
BRANCH   6  11
HETATM   11  C   UNL     1     -43.624  60.399 -53.959  1.00  0.00     0.258 C 
HETATM   12  N   UNL     1     -42.458  60.228 -54.685  1.00  0.00    -0.323 N 
HETATM   13  H   UNL     1     -41.615  60.641 -54.306  1.00  0.00     0.169 HD
HETATM   14  O   UNL     1     -44.759  60.105 -54.311  1.00  0.00    -0.267 OA
BRANCH  12  15
HETATM   15  C   UNL     1     -42.321  59.630 -55.956  1.00  0.00     0.035 A 
HETATM   16  C   UNL     1     -42.482  58.264 -56.200  1.00  0.00     0.031 A 
HETATM   17  C   UNL     1     -42.333  57.753 -57.495  1.00  0.00     0.026 A 
HETATM   18  C   UNL     1     -42.017  58.605 -58.548  1.00  0.00     0.034 A 
HETATM   19 CL   UNL     1     -41.835  57.975 -60.138  1.00  0.00    -0.084 Cl
HETATM   20  C   UNL     1     -41.849  59.967 -58.320  1.00  0.00     0.026 A 
HETATM   21  C   UNL     1     -41.999  60.477 -57.027  1.00  0.00     0.031 A 
ENDBRANCH  12  15
ENDBRANCH   6  11
ENDBRANCH   1   5
BRANCH   2  22
HETATM   22  C   UNL     1     -44.113  56.602 -51.194  1.00  0.00     0.329 C 
HETATM   23  N   UNL     1     -43.251  56.390 -52.255  1.00  0.00    -0.239 N 
HETATM   24  H   UNL     1     -42.955  57.203 -52.794  1.00  0.00     0.192 HD
HETATM   25  O   UNL     1     -44.579  55.771 -50.428  1.00  0.00    -0.261 OA
BRANCH  23  26
HETATM   26  N   UNL     1     -42.851  55.135 -52.593  1.00  0.00    -0.183 NA
HETATM   27  C   UNL     1     -41.595  54.887 -52.395  1.00  0.00     0.153 C 
BRANCH  27  28
HETATM   28  C   UNL     1     -41.010  53.579 -52.745  1.00  0.00     0.016 A 
HETATM   29  C   UNL     1     -41.247  52.961 -53.980  1.00  0.00     0.080 A 
HETATM   30  C   UNL     1     -40.654  51.737 -54.281  1.00  0.00     0.074 A 
HETATM   31  C   UNL     1     -39.833  51.128 -53.336  1.00  0.00     0.068 A 
HETATM   32  C   UNL     1     -39.594  51.726 -52.102  1.00  0.00     0.037 A 
HETATM   33  C   UNL     1     -40.180  52.958 -51.803  1.00  0.00     0.018 A 
BRANCH  29  34
HETATM   34  O   UNL     1     -42.046  53.504 -54.950  1.00  0.00    -0.360 OA
HETATM   35  H   UNL     1     -41.493  53.673 -55.747  1.00  0.00     0.217 HD
ENDBRANCH  29  34
BRANCH  31  36
HETATM   36  O   UNL     1     -39.232  49.931 -53.585  1.00  0.00    -0.361 OA
HETATM   37  H   UNL     1     -39.120  49.459 -52.741  1.00  0.00     0.217 HD
ENDBRANCH  31  36
ENDBRANCH  27  28
ENDBRANCH  23  26
ENDBRANCH   2  22
TORSDOF 8
ENDMDL
MODEL 9
REMARK VINA RESULT:      -7.8      3.542      6.760
REMARK  8 active torsions:
REMARK  status: ('A' for Active; 'I' for Inactive)
REMARK    1  A    between atoms: C_3  and  C_4 
REMARK       I    between atoms: C_4  and  N_5 
REMARK    2  A    between atoms: N_5  and  C_6 
REMARK    3  A    between atoms: C_14  and  N_15 
REMARK       I    between atoms: N_15  and  C_16 
REMARK    4  A    between atoms: C_16  and  C_17 
REMARK       I    between atoms: C_17  and  N_18 
REMARK    5  A    between atoms: N_18  and  N_19 
REMARK    6  A    between atoms: C_20  and  C_21 
REMARK    7  A    between atoms: C_22  and  O_23 
REMARK    8  A    between atoms: C_25  and  O_26 
ROOT
HETATM    1  N   UNL     1     -43.224  60.712 -53.557  1.00  0.00    -0.318 N 
HETATM    2  C   UNL     1     -42.109  60.184 -54.167  1.00  0.00     0.315 C 
HETATM    3  O   UNL     1     -41.002  59.970 -53.685  1.00  0.00    -0.262 OA
HETATM    4  H   UNL     1     -44.074  60.737 -54.134  1.00  0.00     0.169 HD
ENDROOT
BRANCH   1   5
HETATM    5  C   UNL     1     -43.334  61.242 -52.250  1.00  0.00     0.051 A 
HETATM    6  C   UNL     1     -43.428  60.368 -51.144  1.00  0.00     0.059 A 
HETATM    7  C   UNL     1     -43.610  60.879 -49.846  1.00  0.00     0.019 A 
HETATM    8  C   UNL     1     -43.658  62.255 -49.635  1.00  0.00     0.001 A 
HETATM    9  C   UNL     1     -43.528  63.123 -50.715  1.00  0.00     0.002 A 
HETATM   10  C   UNL     1     -43.372  62.621 -52.011  1.00  0.00     0.030 A 
BRANCH   6  11
HETATM   11  C   UNL     1     -43.307  58.892 -51.334  1.00  0.00     0.258 C 
HETATM   12  N   UNL     1     -42.029  58.387 -51.167  1.00  0.00    -0.323 N 
HETATM   13  H   UNL     1     -41.287  59.058 -51.008  1.00  0.00     0.169 HD
HETATM   14  O   UNL     1     -44.305  58.268 -51.673  1.00  0.00    -0.267 OA
BRANCH  12  15
HETATM   15  C   UNL     1     -41.614  57.046 -51.298  1.00  0.00     0.035 A 
HETATM   16  C   UNL     1     -41.525  56.369 -52.517  1.00  0.00     0.031 A 
HETATM   17  C   UNL     1     -41.099  55.036 -52.559  1.00  0.00     0.026 A 
HETATM   18  C   UNL     1     -40.765  54.374 -51.381  1.00  0.00     0.034 A 
HETATM   19 CL   UNL     1     -40.242  52.737 -51.434  1.00  0.00    -0.084 Cl
HETATM   20  C   UNL     1     -40.854  55.033 -50.159  1.00  0.00     0.026 A 
HETATM   21  C   UNL     1     -41.278  56.364 -50.119  1.00  0.00     0.031 A 
ENDBRANCH  12  15
ENDBRANCH   6  11
ENDBRANCH   1   5
BRANCH   2  22
HETATM   22  C   UNL     1     -42.355  59.764 -55.626  1.00  0.00     0.329 C 
HETATM   23  N   UNL     1     -43.600  59.181 -55.786  1.00  0.00    -0.239 N 
HETATM   24  H   UNL     1     -44.187  59.083 -54.959  1.00  0.00     0.192 HD
HETATM   25  O   UNL     1     -41.509  59.976 -56.483  1.00  0.00    -0.261 OA
BRANCH  23  26
HETATM   26  N   UNL     1     -44.003  58.713 -56.998  1.00  0.00    -0.183 NA
HETATM   27  C   UNL     1     -43.889  57.432 -57.157  1.00  0.00     0.153 C 
BRANCH  27  28
HETATM   28  C   UNL     1     -44.257  56.786 -58.431  1.00  0.00     0.016 A 
HETATM   29  C   UNL     1     -45.316  57.246 -59.223  1.00  0.00     0.080 A 
HETATM   30  C   UNL     1     -45.614  56.623 -60.433  1.00  0.00     0.074 A 
HETATM   31  C   UNL     1     -44.855  55.530 -60.840  1.00  0.00     0.068 A 
HETATM   32  C   UNL     1     -43.804  55.056 -60.060  1.00  0.00     0.037 A 
HETATM   33  C   UNL     1     -43.499  55.686 -58.852  1.00  0.00     0.018 A 
BRANCH  29  34
HETATM   34  O   UNL     1     -46.103  58.312 -58.880  1.00  0.00    -0.360 OA
HETATM   35  H   UNL     1     -47.044  58.025 -58.914  1.00  0.00     0.217 HD
ENDBRANCH  29  34
BRANCH  31  36
HETATM   36  O   UNL     1     -45.109  54.887 -62.015  1.00  0.00    -0.361 OA
HETATM   37  H   UNL     1     -46.006  55.121 -62.308  1.00  0.00     0.217 HD
ENDBRANCH  31  36
ENDBRANCH  27  28
ENDBRANCH  23  26
ENDBRANCH   2  22
TORSDOF 8
ENDMDL
MODEL 10
REMARK VINA RESULT:      -7.8      3.774      9.037
REMARK  8 active torsions:
REMARK  status: ('A' for Active; 'I' for Inactive)
REMARK    1  A    between atoms: C_3  and  C_4 
REMARK       I    between atoms: C_4  and  N_5 
REMARK    2  A    between atoms: N_5  and  C_6 
REMARK    3  A    between atoms: C_14  and  N_15 
REMARK       I    between atoms: N_15  and  C_16 
REMARK    4  A    between atoms: C_16  and  C_17 
REMARK       I    between atoms: C_17  and  N_18 
REMARK    5  A    between atoms: N_18  and  N_19 
REMARK    6  A    between atoms: C_20  and  C_21 
REMARK    7  A    between atoms: C_22  and  O_23 
REMARK    8  A    between atoms: C_25  and  O_26 
ROOT
HETATM    1  N   UNL     1     -44.469  57.475 -53.779  1.00  0.00    -0.318 N 
HETATM    2  C   UNL     1     -43.774  58.169 -52.814  1.00  0.00     0.315 C 
HETATM    3  O   UNL     1     -42.601  58.522 -52.821  1.00  0.00    -0.262 OA
HETATM    4  H   UNL     1     -45.472  57.348 -53.597  1.00  0.00     0.169 HD
ENDROOT
BRANCH   1   5
HETATM    5  C   UNL     1     -43.967  56.904 -54.972  1.00  0.00     0.051 A 
HETATM    6  C   UNL     1     -43.162  55.745 -54.910  1.00  0.00     0.059 A 
HETATM    7  C   UNL     1     -42.597  55.208 -56.082  1.00  0.00     0.019 A 
HETATM    8  C   UNL     1     -42.860  55.791 -57.319  1.00  0.00     0.001 A 
HETATM    9  C   UNL     1     -43.683  56.911 -57.391  1.00  0.00     0.002 A 
HETATM   10  C   UNL     1     -44.228  57.465 -56.228  1.00  0.00     0.030 A 
BRANCH   6  11
HETATM   11  C   UNL     1     -42.923  55.057 -53.607  1.00  0.00     0.258 C 
HETATM   12  N   UNL     1     -41.803  55.492 -52.918  1.00  0.00    -0.323 N 
HETATM   13  H   UNL     1     -41.213  56.171 -53.382  1.00  0.00     0.169 HD
HETATM   14  O   UNL     1     -43.676  54.147 -53.286  1.00  0.00    -0.267 OA
BRANCH  12  15
HETATM   15  C   UNL     1     -41.324  55.019 -51.679  1.00  0.00     0.035 A 
HETATM   16  C   UNL     1     -40.540  53.873 -51.528  1.00  0.00     0.031 A 
HETATM   17  C   UNL     1     -40.101  53.475 -50.260  1.00  0.00     0.026 A 
HETATM   18  C   UNL     1     -40.449  54.219 -49.137  1.00  0.00     0.034 A 
HETATM   19 CL   UNL     1     -39.908  53.729 -47.580  1.00  0.00    -0.084 Cl
HETATM   20  C   UNL     1     -41.233  55.361 -49.270  1.00  0.00     0.026 A 
HETATM   21  C   UNL     1     -41.670  55.758 -50.538  1.00  0.00     0.031 A 
ENDBRANCH  12  15
ENDBRANCH   6  11
ENDBRANCH   1   5
BRANCH   2  22
HETATM   22  C   UNL     1     -44.648  58.586 -51.618  1.00  0.00     0.329 C 
HETATM   23  N   UNL     1     -44.509  59.932 -51.330  1.00  0.00    -0.239 N 
HETATM   24  H   UNL     1     -43.865  60.475 -51.903  1.00  0.00     0.192 HD
HETATM   25  O   UNL     1     -45.364  57.769 -51.059  1.00  0.00    -0.261 OA
BRANCH  23  26
HETATM   26  N   UNL     1     -45.176  60.498 -50.289  1.00  0.00    -0.183 NA
HETATM   27  C   UNL     1     -44.431  61.138 -49.443  1.00  0.00     0.153 C 
BRANCH  27  28
HETATM   28  C   UNL     1     -45.010  61.775 -48.246  1.00  0.00     0.016 A 
HETATM   29  C   UNL     1     -45.796  61.066 -47.328  1.00  0.00     0.080 A 
HETATM   30  C   UNL     1     -46.302  61.700 -46.195  1.00  0.00     0.074 A 
HETATM   31  C   UNL     1     -46.027  63.050 -45.991  1.00  0.00     0.068 A 
HETATM   32  C   UNL     1     -45.255  63.769 -46.898  1.00  0.00     0.037 A 
HETATM   33  C   UNL     1     -44.739  63.132 -48.029  1.00  0.00     0.018 A 
BRANCH  29  34
HETATM   34  O   UNL     1     -46.105  59.741 -47.471  1.00  0.00    -0.360 OA
HETATM   35  H   UNL     1     -45.268  59.242 -47.613  1.00  0.00     0.217 HD
ENDBRANCH  29  34
BRANCH  31  36
HETATM   36  O   UNL     1     -46.502  63.713 -44.899  1.00  0.00    -0.361 OA
HETATM   37  H   UNL     1     -45.803  64.304 -44.568  1.00  0.00     0.217 HD
ENDBRANCH  31  36
ENDBRANCH  27  28
ENDBRANCH  23  26
ENDBRANCH   2  22
TORSDOF 8
ENDMDL
