MODEL 1
REMARK VINA RESULT:      -7.7      0.000      0.000
REMARK  10 active torsions:
REMARK  status: ('A' for Active; 'I' for Inactive)
REMARK    1  A    between atoms: C_2  and  C_3 
REMARK    2  A    between atoms: C_3  and  C_4 
REMARK    3  A    between atoms: N_7  and  C_9 
REMARK    4  A    between atoms: C_9  and  C_10 
REMARK    5  A    between atoms: C_11  and  O_12 
REMARK    6  A    between atoms: C_13  and  O_14 
REMARK    7  A    between atoms: O_14  and  C_15 
REMARK    8  A    between atoms: N_25  and  C_26 
REMARK    9  A    between atoms: C_26  and  C_27 
REMARK   10  A    between atoms: C_27  and  C_28 
ROOT
HETATM    1  C   UNL     1     -42.809  58.724 -53.679  1.00  0.00     0.026 C 
HETATM    2  C   UNL     1     -44.097  59.548 -53.861  1.00  0.00     0.035 C 
HETATM    3  C   UNL     1     -44.578  59.656 -55.303  1.00  0.00     0.235 C 
HETATM    4  N   UNL     1     -43.484  60.103 -56.240  1.00  0.00    -0.067 N 
HETATM    5  H   UNL     1     -43.258  61.084 -56.033  1.00  0.00     0.280 HD
HETATM    6  C   UNL     1     -42.197  59.330 -56.091  1.00  0.00     0.235 C 
HETATM    7  C   UNL     1     -41.753  59.300 -54.640  1.00  0.00     0.035 C 
ENDROOT
BRANCH   1   8
HETATM    8  C   UNL     1     -43.000  57.172 -53.736  1.00  0.00     0.119 C 
HETATM    9  N   UNL     1     -43.284  56.671 -55.070  1.00  0.00    -0.324 N 
HETATM   10  C   UNL     1     -42.419  55.659 -55.434  1.00  0.00     0.326 C 
HETATM   11  H   UNL     1     -44.216  56.574 -55.455  1.00  0.00     0.165 HD
HETATM   12  O   UNL     1     -42.611  54.947 -56.403  1.00  0.00    -0.247 OA
HETATM   13  N   UNL     1     -41.392  55.617 -54.549  1.00  0.00    -0.268 N 
HETATM   14  C   UNL     1     -41.658  56.436 -53.485  1.00  0.00     0.256 C 
HETATM   15  O   UNL     1     -40.963  56.582 -52.491  1.00  0.00    -0.270 OA
BRANCH   8  16
HETATM   16  C   UNL     1     -44.078  56.604 -52.783  1.00  0.00     0.037 C 
HETATM   17  C   UNL     1     -43.927  56.970 -51.314  1.00  0.00     0.008 C 
ENDBRANCH   8  16
BRANCH  13  18
HETATM   18  C   UNL     1     -40.304  54.651 -54.593  1.00  0.00     0.142 C 
BRANCH  18  19
HETATM   19  C   UNL     1     -40.791  53.198 -54.630  1.00  0.00     0.068 C 
BRANCH  19  20
HETATM   20  C   UNL     1     -40.336  52.430 -53.429  1.00  0.00     0.010 A 
HETATM   21  S   UNL     1     -40.342  53.157 -51.873  1.00  0.00    -0.085 SA
HETATM   22  C   UNL     1     -39.726  51.706 -51.208  1.00  0.00     0.166 A 
HETATM   23  N   UNL     1     -39.521  50.726 -52.058  1.00  0.00    -0.258 NA
HETATM   24  C   UNL     1     -39.863  51.130 -53.337  1.00  0.00     0.044 A 
HETATM   25  C   UNL     1     -39.695  50.154 -54.448  1.00  0.00     0.071 C 
ENDBRANCH  19  20
ENDBRANCH  18  19
ENDBRANCH  13  18
ENDBRANCH   1   8
BRANCH   4  26
HETATM   26  C   UNL     1     -44.018  60.088 -57.678  1.00  0.00     0.276 C 
BRANCH  26  27
HETATM   27  C   UNL     1     -43.499  58.996 -58.570  1.00  0.00     0.004 A 
HETATM   28  C   UNL     1     -44.043  57.708 -58.498  1.00  0.00     0.107 A 
HETATM   29  C   UNL     1     -43.562  56.673 -59.297  1.00  0.00     0.102 A 
HETATM   30  C   UNL     1     -42.502  56.899 -60.166  1.00  0.00     0.039 A 
HETATM   31  C   UNL     1     -41.948  58.178 -60.254  1.00  0.00     0.003 A 
HETATM   32  C   UNL     1     -42.440  59.222 -59.462  1.00  0.00     0.012 A 
BRANCH  28  33
HETATM   33  O   UNL     1     -45.036  57.460 -57.589  1.00  0.00    -0.357 OA
HETATM   34  H   UNL     1     -45.633  58.237 -57.605  1.00  0.00     0.218 HD
ENDBRANCH  28  33
BRANCH  29  35
HETATM   35  O   UNL     1     -44.065  55.410 -59.151  1.00  0.00    -0.349 OA
BRANCH  35  36
HETATM   36  C   UNL     1     -44.629  54.927 -60.380  1.00  0.00     0.171 C 
HETATM   37  C   UNL     1     -45.995  55.559 -60.557  1.00  0.00     0.034 C 
ENDBRANCH  35  36
ENDBRANCH  29  35
ENDBRANCH  26  27
ENDBRANCH   4  26
TORSDOF 10
ENDMDL
MODEL 2
REMARK VINA RESULT:      -7.7      4.243      7.279
REMARK  10 active torsions:
REMARK  status: ('A' for Active; 'I' for Inactive)
REMARK    1  A    between atoms: C_2  and  C_3 
REMARK    2  A    between atoms: C_3  and  C_4 
REMARK    3  A    between atoms: N_7  and  C_9 
REMARK    4  A    between atoms: C_9  and  C_10 
REMARK    5  A    between atoms: C_11  and  O_12 
REMARK    6  A    between atoms: C_13  and  O_14 
REMARK    7  A    between atoms: O_14  and  C_15 
REMARK    8  A    between atoms: N_25  and  C_26 
REMARK    9  A    between atoms: C_26  and  C_27 
REMARK   10  A    between atoms: C_27  and  C_28 
ROOT
HETATM    1  C   UNL     1     -40.974  58.127 -51.738  1.00  0.00     0.026 C 
HETATM    2  C   UNL     1     -41.014  59.067 -50.519  1.00  0.00     0.035 C 
HETATM    3  C   UNL     1     -42.147  60.085 -50.543  1.00  0.00     0.235 C 
HETATM    4  N   UNL     1     -42.206  60.846 -51.845  1.00  0.00    -0.067 N 
HETATM    5  H   UNL     1     -41.385  61.461 -51.900  1.00  0.00     0.280 HD
HETATM    6  C   UNL     1     -42.159  59.966 -53.070  1.00  0.00     0.235 C 
HETATM    7  C   UNL     1     -40.984  59.009 -53.000  1.00  0.00     0.035 C 
ENDROOT
BRANCH   1   8
HETATM    8  C   UNL     1     -42.024  56.966 -51.715  1.00  0.00     0.119 C 
HETATM    9  N   UNL     1     -42.228  56.342 -53.011  1.00  0.00    -0.324 N 
HETATM   10  C   UNL     1     -42.071  54.972 -52.952  1.00  0.00     0.326 C 
HETATM   11  H   UNL     1     -42.917  56.649 -53.688  1.00  0.00     0.165 HD
HETATM   12  O   UNL     1     -42.414  54.233 -53.857  1.00  0.00    -0.247 OA
HETATM   13  N   UNL     1     -41.508  54.644 -51.764  1.00  0.00    -0.268 N 
HETATM   14  C   UNL     1     -41.478  55.737 -50.941  1.00  0.00     0.256 C 
HETATM   15  O   UNL     1     -41.086  55.765 -49.784  1.00  0.00    -0.270 OA
BRANCH   8  16
HETATM   16  C   UNL     1     -43.414  57.345 -51.152  1.00  0.00     0.037 C 
HETATM   17  C   UNL     1     -44.525  57.515 -52.179  1.00  0.00     0.008 C 
ENDBRANCH   8  16
BRANCH  13  18
HETATM   18  C   UNL     1     -41.225  53.282 -51.333  1.00  0.00     0.142 C 
BRANCH  18  19
HETATM   19  C   UNL     1     -39.790  52.839 -51.642  1.00  0.00     0.068 C 
BRANCH  19  20
HETATM   20  C   UNL     1     -39.763  51.609 -52.494  1.00  0.00     0.010 A 
HETATM   21  S   UNL     1     -39.940  51.721 -54.199  1.00  0.00    -0.085 SA
HETATM   22  C   UNL     1     -39.806  50.018 -54.311  1.00  0.00     0.166 A 
HETATM   23  N   UNL     1     -39.637  49.380 -53.176  1.00  0.00    -0.258 NA
HETATM   24  C   UNL     1     -39.614  50.280 -52.124  1.00  0.00     0.044 A 
HETATM   25  C   UNL     1     -39.436  49.744 -50.748  1.00  0.00     0.071 C 
ENDBRANCH  19  20
ENDBRANCH  18  19
ENDBRANCH  13  18
ENDBRANCH   1   8
BRANCH   4  26
HETATM   26  C   UNL     1     -43.429  61.771 -51.829  1.00  0.00     0.276 C 
BRANCH  26  27
HETATM   27  C   UNL     1     -43.600  62.628 -50.608  1.00  0.00     0.004 A 
HETATM   28  C   UNL     1     -44.614  62.345 -49.684  1.00  0.00     0.107 A 
HETATM   29  C   UNL     1     -44.808  63.139 -48.555  1.00  0.00     0.102 A 
HETATM   30  C   UNL     1     -44.010  64.256 -48.344  1.00  0.00     0.039 A 
HETATM   31  C   UNL     1     -42.991  64.553 -49.252  1.00  0.00     0.003 A 
HETATM   32  C   UNL     1     -42.785  63.747 -50.378  1.00  0.00     0.012 A 
BRANCH  28  33
HETATM   33  O   UNL     1     -45.453  61.292 -49.926  1.00  0.00    -0.357 OA
HETATM   34  H   UNL     1     -46.324  61.674 -50.165  1.00  0.00     0.218 HD
ENDBRANCH  28  33
BRANCH  29  35
HETATM   35  O   UNL     1     -45.852  62.879 -47.712  1.00  0.00    -0.349 OA
BRANCH  35  36
HETATM   36  C   UNL     1     -45.396  62.659 -46.368  1.00  0.00     0.171 C 
HETATM   37  C   UNL     1     -44.928  61.222 -46.255  1.00  0.00     0.034 C 
ENDBRANCH  35  36
ENDBRANCH  29  35
ENDBRANCH  26  27
ENDBRANCH   4  26
TORSDOF 10
ENDMDL
MODEL 3
REMARK VINA RESULT:      -7.6      2.212      3.397
REMARK  10 active torsions:
REMARK  status: ('A' for Active; 'I' for Inactive)
REMARK    1  A    between atoms: C_2  and  C_3 
REMARK    2  A    between atoms: C_3  and  C_4 
REMARK    3  A    between atoms: N_7  and  C_9 
REMARK    4  A    between atoms: C_9  and  C_10 
REMARK    5  A    between atoms: C_11  and  O_12 
REMARK    6  A    between atoms: C_13  and  O_14 
REMARK    7  A    between atoms: O_14  and  C_15 
REMARK    8  A    between atoms: N_25  and  C_26 
REMARK    9  A    between atoms: C_26  and  C_27 
REMARK   10  A    between atoms: C_27  and  C_28 
ROOT
HETATM    1  C   UNL     1     -41.261  58.120 -51.273  1.00  0.00     0.026 C 
HETATM    2  C   UNL     1     -41.908  59.417 -50.752  1.00  0.00     0.035 C 
HETATM    3  C   UNL     1     -42.702  60.191 -51.797  1.00  0.00     0.235 C 
HETATM    4  N   UNL     1     -41.911  60.423 -53.061  1.00  0.00    -0.067 N 
HETATM    5  H   UNL     1     -41.155  61.086 -52.855  1.00  0.00     0.280 HD
HETATM    6  C   UNL     1     -41.250  59.181 -53.605  1.00  0.00     0.235 C 
HETATM    7  C   UNL     1     -40.442  58.485 -52.525  1.00  0.00     0.035 C 
ENDROOT
BRANCH   1   8
HETATM    8  C   UNL     1     -42.240  56.909 -51.435  1.00  0.00     0.119 C 
HETATM    9  N   UNL     1     -42.278  56.369 -52.783  1.00  0.00    -0.324 N 
HETATM   10  C   UNL     1     -42.049  55.008 -52.797  1.00  0.00     0.326 C 
HETATM   11  H   UNL     1     -42.913  56.688 -53.506  1.00  0.00     0.165 HD
HETATM   12  O   UNL     1     -42.257  54.318 -53.779  1.00  0.00    -0.247 OA
HETATM   13  N   UNL     1     -41.588  54.625 -51.582  1.00  0.00    -0.268 N 
HETATM   14  C   UNL     1     -41.704  55.658 -50.691  1.00  0.00     0.256 C 
HETATM   15  O   UNL     1     -41.430  55.623 -49.500  1.00  0.00    -0.270 OA
BRANCH   8  16
HETATM   16  C   UNL     1     -43.699  57.176 -50.994  1.00  0.00     0.037 C 
HETATM   17  C   UNL     1     -44.710  57.357 -52.116  1.00  0.00     0.008 C 
ENDBRANCH   8  16
BRANCH  13  18
HETATM   18  C   UNL     1     -41.272  53.252 -51.214  1.00  0.00     0.142 C 
BRANCH  18  19
HETATM   19  C   UNL     1     -39.831  52.855 -51.558  1.00  0.00     0.068 C 
BRANCH  19  20
HETATM   20  C   UNL     1     -39.786  51.633 -52.420  1.00  0.00     0.010 A 
HETATM   21  S   UNL     1     -39.917  51.762 -54.128  1.00  0.00    -0.085 SA
HETATM   22  C   UNL     1     -39.786  50.060 -54.253  1.00  0.00     0.166 A 
HETATM   23  N   UNL     1     -39.650  49.410 -53.120  1.00  0.00    -0.258 NA
HETATM   24  C   UNL     1     -39.652  50.300 -52.060  1.00  0.00     0.044 A 
HETATM   25  C   UNL     1     -39.513  49.750 -50.684  1.00  0.00     0.071 C 
ENDBRANCH  19  20
ENDBRANCH  18  19
ENDBRANCH  13  18
ENDBRANCH   1   8
BRANCH   4  26
HETATM   26  C   UNL     1     -42.810  61.113 -54.094  1.00  0.00     0.276 C 
BRANCH  26  27
HETATM   27  C   UNL     1     -43.360  60.242 -55.187  1.00  0.00     0.004 A 
HETATM   28  C   UNL     1     -42.704  60.159 -56.421  1.00  0.00     0.107 A 
HETATM   29  C   UNL     1     -43.207  59.377 -57.459  1.00  0.00     0.102 A 
HETATM   30  C   UNL     1     -44.399  58.684 -57.292  1.00  0.00     0.039 A 
HETATM   31  C   UNL     1     -45.068  58.751 -56.068  1.00  0.00     0.003 A 
HETATM   32  C   UNL     1     -44.554  59.525 -55.019  1.00  0.00     0.012 A 
BRANCH  28  33
HETATM   33  O   UNL     1     -41.570  60.900 -56.618  1.00  0.00    -0.357 OA
HETATM   34  H   UNL     1     -41.024  60.801 -55.809  1.00  0.00     0.218 HD
ENDBRANCH  28  33
BRANCH  29  35
HETATM   35  O   UNL     1     -42.583  59.374 -58.674  1.00  0.00    -0.349 OA
BRANCH  35  36
HETATM   36  C   UNL     1     -41.875  58.145 -58.896  1.00  0.00     0.171 C 
HETATM   37  C   UNL     1     -42.174  57.671 -60.305  1.00  0.00     0.034 C 
ENDBRANCH  35  36
ENDBRANCH  29  35
ENDBRANCH  26  27
ENDBRANCH   4  26
TORSDOF 10
ENDMDL
MODEL 4
REMARK VINA RESULT:      -7.6      1.712      2.165
REMARK  10 active torsions:
REMARK  status: ('A' for Active; 'I' for Inactive)
REMARK    1  A    between atoms: C_2  and  C_3 
REMARK    2  A    between atoms: C_3  and  C_4 
REMARK    3  A    between atoms: N_7  and  C_9 
REMARK    4  A    between atoms: C_9  and  C_10 
REMARK    5  A    between atoms: C_11  and  O_12 
REMARK    6  A    between atoms: C_13  and  O_14 
REMARK    7  A    between atoms: O_14  and  C_15 
REMARK    8  A    between atoms: N_25  and  C_26 
REMARK    9  A    between atoms: C_26  and  C_27 
REMARK   10  A    between atoms: C_27  and  C_28 
ROOT
HETATM    1  C   UNL     1     -41.548  58.178 -52.567  1.00  0.00     0.026 C 
HETATM    2  C   UNL     1     -42.233  59.534 -52.818  1.00  0.00     0.035 C 
HETATM    3  C   UNL     1     -43.212  59.540 -53.986  1.00  0.00     0.235 C 
HETATM    4  N   UNL     1     -42.605  58.972 -55.245  1.00  0.00    -0.067 N 
HETATM    5  H   UNL     1     -41.887  59.625 -55.584  1.00  0.00     0.280 HD
HETATM    6  C   UNL     1     -41.912  57.647 -55.046  1.00  0.00     0.235 C 
HETATM    7  C   UNL     1     -40.922  57.724 -53.899  1.00  0.00     0.035 C 
ENDROOT
BRANCH   1   8
HETATM    8  C   UNL     1     -42.432  57.113 -51.838  1.00  0.00     0.119 C 
HETATM    9  N   UNL     1     -43.082  56.180 -52.742  1.00  0.00    -0.324 N 
HETATM   10  C   UNL     1     -42.829  54.868 -52.396  1.00  0.00     0.326 C 
HETATM   11  H   UNL     1     -43.997  56.328 -53.153  1.00  0.00     0.165 HD
HETATM   12  O   UNL     1     -43.448  53.933 -52.871  1.00  0.00    -0.247 OA
HETATM   13  N   UNL     1     -41.831  54.838 -51.480  1.00  0.00    -0.268 N 
HETATM   14  C   UNL     1     -41.554  56.107 -51.048  1.00  0.00     0.256 C 
HETATM   15  O   UNL     1     -40.748  56.420 -50.185  1.00  0.00    -0.270 OA
BRANCH   8  16
HETATM   16  C   UNL     1     -43.518  57.688 -50.897  1.00  0.00     0.037 C 
HETATM   17  C   UNL     1     -44.955  57.558 -51.381  1.00  0.00     0.008 C 
ENDBRANCH   8  16
BRANCH  13  18
HETATM   18  C   UNL     1     -41.319  53.626 -50.856  1.00  0.00     0.142 C 
BRANCH  18  19
HETATM   19  C   UNL     1     -39.890  53.282 -51.294  1.00  0.00     0.068 C 
BRANCH  19  20
HETATM   20  C   UNL     1     -39.861  52.086 -52.194  1.00  0.00     0.010 A 
HETATM   21  S   UNL     1     -39.570  50.518 -51.556  1.00  0.00    -0.085 SA
HETATM   22  C   UNL     1     -39.696  49.869 -53.135  1.00  0.00     0.166 A 
HETATM   23  N   UNL     1     -39.940  50.732 -54.093  1.00  0.00    -0.258 NA
HETATM   24  C   UNL     1     -40.033  52.010 -53.568  1.00  0.00     0.044 A 
HETATM   25  C   UNL     1     -40.302  53.134 -54.505  1.00  0.00     0.071 C 
ENDBRANCH  19  20
ENDBRANCH  18  19
ENDBRANCH  13  18
ENDBRANCH   1   8
BRANCH   4  26
HETATM   26  C   UNL     1     -43.679  58.919 -56.339  1.00  0.00     0.276 C 
BRANCH  26  27
HETATM   27  C   UNL     1     -43.197  58.627 -57.732  1.00  0.00     0.004 A 
HETATM   28  C   UNL     1     -43.399  57.361 -58.297  1.00  0.00     0.107 A 
HETATM   29  C   UNL     1     -42.940  57.059 -59.577  1.00  0.00     0.102 A 
HETATM   30  C   UNL     1     -42.240  58.010 -60.309  1.00  0.00     0.039 A 
HETATM   31  C   UNL     1     -42.032  59.278 -59.764  1.00  0.00     0.003 A 
HETATM   32  C   UNL     1     -42.506  59.589 -58.483  1.00  0.00     0.012 A 
BRANCH  28  33
HETATM   33  O   UNL     1     -44.019  56.396 -57.551  1.00  0.00    -0.357 OA
HETATM   34  H   UNL     1     -44.485  56.858 -56.822  1.00  0.00     0.218 HD
ENDBRANCH  28  33
BRANCH  29  35
HETATM   35  O   UNL     1     -43.088  55.793 -60.072  1.00  0.00    -0.349 OA
BRANCH  35  36
HETATM   36  C   UNL     1     -44.336  55.646 -60.767  1.00  0.00     0.171 C 
HETATM   37  C   UNL     1     -45.084  54.476 -60.159  1.00  0.00     0.034 C 
ENDBRANCH  35  36
ENDBRANCH  29  35
ENDBRANCH  26  27
ENDBRANCH   4  26
TORSDOF 10
ENDMDL
MODEL 5
REMARK VINA RESULT:      -7.6      4.299      7.595
REMARK  10 active torsions:
REMARK  status: ('A' for Active; 'I' for Inactive)
REMARK    1  A    between atoms: C_2  and  C_3 
REMARK    2  A    between atoms: C_3  and  C_4 
REMARK    3  A    between atoms: N_7  and  C_9 
REMARK    4  A    between atoms: C_9  and  C_10 
REMARK    5  A    between atoms: C_11  and  O_12 
REMARK    6  A    between atoms: C_13  and  O_14 
REMARK    7  A    between atoms: O_14  and  C_15 
REMARK    8  A    between atoms: N_25  and  C_26 
REMARK    9  A    between atoms: C_26  and  C_27 
REMARK   10  A    between atoms: C_27  and  C_28 
ROOT
HETATM    1  C   UNL     1     -43.279  57.805 -53.327  1.00  0.00     0.026 C 
HETATM    2  C   UNL     1     -42.648  59.200 -53.488  1.00  0.00     0.035 C 
HETATM    3  C   UNL     1     -42.573  60.013 -52.201  1.00  0.00     0.235 C 
HETATM    4  N   UNL     1     -43.899  60.072 -51.484  1.00  0.00    -0.067 N 
HETATM    5  H   UNL     1     -44.546  60.643 -52.042  1.00  0.00     0.280 HD
HETATM    6  C   UNL     1     -44.561  58.727 -51.311  1.00  0.00     0.235 C 
HETATM    7  C   UNL     1     -44.642  57.993 -52.636  1.00  0.00     0.035 C 
ENDROOT
BRANCH   1   8
HETATM    8  C   UNL     1     -42.342  56.723 -52.692  1.00  0.00     0.119 C 
HETATM    9  N   UNL     1     -43.040  55.784 -51.832  1.00  0.00    -0.324 N 
HETATM   10  C   UNL     1     -42.787  54.475 -52.188  1.00  0.00     0.326 C 
HETATM   11  H   UNL     1     -43.182  55.919 -50.837  1.00  0.00     0.165 HD
HETATM   12  O   UNL     1     -43.080  53.531 -51.476  1.00  0.00    -0.247 OA
HETATM   13  N   UNL     1     -42.180  54.457 -53.400  1.00  0.00    -0.268 N 
HETATM   14  C   UNL     1     -41.831  55.729 -53.767  1.00  0.00     0.256 C 
HETATM   15  O   UNL     1     -41.221  56.052 -54.776  1.00  0.00    -0.270 OA
BRANCH   8  16
HETATM   16  C   UNL     1     -41.135  57.278 -51.899  1.00  0.00     0.037 C 
HETATM   17  C   UNL     1     -41.170  57.059 -50.393  1.00  0.00     0.008 C 
ENDBRANCH   8  16
BRANCH  13  18
HETATM   18  C   UNL     1     -41.730  53.251 -54.081  1.00  0.00     0.142 C 
BRANCH  18  19
HETATM   19  C   UNL     1     -40.227  52.996 -53.919  1.00  0.00     0.068 C 
BRANCH  19  20
HETATM   20  C   UNL     1     -39.958  51.816 -53.038  1.00  0.00     0.010 A 
HETATM   21  S   UNL     1     -39.809  52.011 -51.338  1.00  0.00    -0.085 SA
HETATM   22  C   UNL     1     -39.533  50.328 -51.184  1.00  0.00     0.166 A 
HETATM   23  N   UNL     1     -39.546  49.640 -52.302  1.00  0.00    -0.258 NA
HETATM   24  C   UNL     1     -39.785  50.482 -53.375  1.00  0.00     0.044 A 
HETATM   25  C   UNL     1     -39.832  49.884 -54.737  1.00  0.00     0.071 C 
ENDBRANCH  19  20
ENDBRANCH  18  19
ENDBRANCH  13  18
ENDBRANCH   1   8
BRANCH   4  26
HETATM   26  C   UNL     1     -43.717  60.816 -50.155  1.00  0.00     0.276 C 
BRANCH  26  27
HETATM   27  C   UNL     1     -44.910  61.575 -49.648  1.00  0.00     0.004 A 
HETATM   28  C   UNL     1     -45.281  61.486 -48.300  1.00  0.00     0.107 A 
HETATM   29  C   UNL     1     -46.398  62.161 -47.810  1.00  0.00     0.102 A 
HETATM   30  C   UNL     1     -47.186  62.917 -48.668  1.00  0.00     0.039 A 
HETATM   31  C   UNL     1     -46.830  63.022 -50.015  1.00  0.00     0.003 A 
HETATM   32  C   UNL     1     -45.700  62.356 -50.505  1.00  0.00     0.012 A 
BRANCH  28  33
HETATM   33  O   UNL     1     -44.554  60.681 -47.466  1.00  0.00    -0.357 OA
HETATM   34  H   UNL     1     -45.065  59.851 -47.358  1.00  0.00     0.218 HD
ENDBRANCH  28  33
BRANCH  29  35
HETATM   35  O   UNL     1     -46.776  61.995 -46.507  1.00  0.00    -0.349 OA
BRANCH  35  36
HETATM   36  C   UNL     1     -46.819  63.250 -45.812  1.00  0.00     0.171 C 
HETATM   37  C   UNL     1     -45.451  63.510 -45.214  1.00  0.00     0.034 C 
ENDBRANCH  35  36
ENDBRANCH  29  35
ENDBRANCH  26  27
ENDBRANCH   4  26
TORSDOF 10
ENDMDL
MODEL 6
REMARK VINA RESULT:      -7.4      2.988      5.503
REMARK  10 active torsions:
REMARK  status: ('A' for Active; 'I' for Inactive)
REMARK    1  A    between atoms: C_2  and  C_3 
REMARK    2  A    between atoms: C_3  and  C_4 
REMARK    3  A    between atoms: N_7  and  C_9 
REMARK    4  A    between atoms: C_9  and  C_10 
REMARK    5  A    between atoms: C_11  and  O_12 
REMARK    6  A    between atoms: C_13  and  O_14 
REMARK    7  A    between atoms: O_14  and  C_15 
REMARK    8  A    between atoms: N_25  and  C_26 
REMARK    9  A    between atoms: C_26  and  C_27 
REMARK   10  A    between atoms: C_27  and  C_28 
ROOT
HETATM    1  C   UNL     1     -43.308  55.535 -53.414  1.00  0.00     0.026 C 
HETATM    2  C   UNL     1     -43.197  54.490 -54.539  1.00  0.00     0.035 C 
HETATM    3  C   UNL     1     -42.877  55.070 -55.911  1.00  0.00     0.235 C 
HETATM    4  N   UNL     1     -43.801  56.204 -56.283  1.00  0.00    -0.067 N 
HETATM    5  H   UNL     1     -44.740  55.820 -56.443  1.00  0.00     0.280 HD
HETATM    6  C   UNL     1     -43.950  57.250 -55.205  1.00  0.00     0.235 C 
HETATM    7  C   UNL     1     -44.310  56.607 -53.878  1.00  0.00     0.035 C 
ENDROOT
BRANCH   1   8
HETATM    8  C   UNL     1     -41.942  56.075 -52.873  1.00  0.00     0.119 C 
HETATM    9  N   UNL     1     -41.328  57.069 -53.736  1.00  0.00    -0.324 N 
HETATM   10  C   UNL     1     -41.013  58.223 -53.048  1.00  0.00     0.326 C 
HETATM   11  H   UNL     1     -40.686  56.850 -54.489  1.00  0.00     0.165 HD
HETATM   12  O   UNL     1     -40.294  59.090 -53.513  1.00  0.00    -0.247 OA
HETATM   13  N   UNL     1     -41.615  58.191 -51.834  1.00  0.00    -0.268 N 
HETATM   14  C   UNL     1     -42.151  56.952 -51.611  1.00  0.00     0.256 C 
HETATM   15  O   UNL     1     -42.712  56.577 -50.592  1.00  0.00    -0.270 OA
BRANCH   8  16
HETATM   16  C   UNL     1     -40.877  54.994 -52.571  1.00  0.00     0.037 C 
HETATM   17  C   UNL     1     -41.319  53.863 -51.654  1.00  0.00     0.008 C 
ENDBRANCH   8  16
BRANCH  13  18
HETATM   18  C   UNL     1     -41.479  59.225 -50.818  1.00  0.00     0.142 C 
BRANCH  18  19
HETATM   19  C   UNL     1     -42.187  60.533 -51.193  1.00  0.00     0.068 C 
BRANCH  19  20
HETATM   20  C   UNL     1     -43.573  60.286 -51.699  1.00  0.00     0.010 A 
HETATM   21  S   UNL     1     -44.812  59.756 -50.634  1.00  0.00    -0.085 SA
HETATM   22  C   UNL     1     -45.912  59.737 -51.945  1.00  0.00     0.166 A 
HETATM   23  N   UNL     1     -45.423  60.097 -53.109  1.00  0.00    -0.258 NA
HETATM   24  C   UNL     1     -44.081  60.411 -52.984  1.00  0.00     0.044 A 
HETATM   25  C   UNL     1     -43.345  60.839 -54.204  1.00  0.00     0.071 C 
ENDBRANCH  19  20
ENDBRANCH  18  19
ENDBRANCH  13  18
ENDBRANCH   1   8
BRANCH   4  26
HETATM   26  C   UNL     1     -43.352  56.798 -57.623  1.00  0.00     0.276 C 
BRANCH  26  27
HETATM   27  C   UNL     1     -44.123  56.363 -58.837  1.00  0.00     0.004 A 
HETATM   28  C   UNL     1     -45.440  56.801 -59.030  1.00  0.00     0.107 A 
HETATM   29  C   UNL     1     -46.184  56.393 -60.135  1.00  0.00     0.102 A 
HETATM   30  C   UNL     1     -45.636  55.509 -61.055  1.00  0.00     0.039 A 
HETATM   31  C   UNL     1     -44.324  55.063 -60.882  1.00  0.00     0.003 A 
HETATM   32  C   UNL     1     -43.569  55.485 -59.780  1.00  0.00     0.012 A 
BRANCH  28  33
HETATM   33  O   UNL     1     -46.012  57.610 -58.086  1.00  0.00    -0.357 OA
HETATM   34  H   UNL     1     -45.501  58.448 -58.085  1.00  0.00     0.218 HD
ENDBRANCH  28  33
BRANCH  29  35
HETATM   35  O   UNL     1     -47.489  56.780 -60.256  1.00  0.00    -0.349 OA
BRANCH  35  36
HETATM   36  C   UNL     1     -47.705  57.515 -61.471  1.00  0.00     0.171 C 
HETATM   37  C   UNL     1     -48.833  56.849 -62.235  1.00  0.00     0.034 C 
ENDBRANCH  35  36
ENDBRANCH  29  35
ENDBRANCH  26  27
ENDBRANCH   4  26
TORSDOF 10
ENDMDL
MODEL 7
REMARK VINA RESULT:      -7.4      1.761      2.409
REMARK  10 active torsions:
REMARK  status: ('A' for Active; 'I' for Inactive)
REMARK    1  A    between atoms: C_2  and  C_3 
REMARK    2  A    between atoms: C_3  and  C_4 
REMARK    3  A    between atoms: N_7  and  C_9 
REMARK    4  A    between atoms: C_9  and  C_10 
REMARK    5  A    between atoms: C_11  and  O_12 
REMARK    6  A    between atoms: C_13  and  O_14 
REMARK    7  A    between atoms: O_14  and  C_15 
REMARK    8  A    between atoms: N_25  and  C_26 
REMARK    9  A    between atoms: C_26  and  C_27 
REMARK   10  A    between atoms: C_27  and  C_28 
ROOT
HETATM    1  C   UNL     1     -43.433  57.821 -53.387  1.00  0.00     0.026 C 
HETATM    2  C   UNL     1     -44.421  57.201 -54.393  1.00  0.00     0.035 C 
HETATM    3  C   UNL     1     -43.843  56.969 -55.784  1.00  0.00     0.235 C 
HETATM    4  N   UNL     1     -43.171  58.202 -56.338  1.00  0.00    -0.067 N 
HETATM    5  H   UNL     1     -43.894  58.905 -56.537  1.00  0.00     0.280 HD
HETATM    6  C   UNL     1     -42.201  58.851 -55.382  1.00  0.00     0.235 C 
HETATM    7  C   UNL     1     -42.854  59.092 -54.034  1.00  0.00     0.035 C 
ENDROOT
BRANCH   1   8
HETATM    8  C   UNL     1     -42.382  56.826 -52.791  1.00  0.00     0.119 C 
HETATM    9  N   UNL     1     -42.943  55.902 -51.820  1.00  0.00    -0.324 N 
HETATM   10  C   UNL     1     -42.650  54.589 -52.133  1.00  0.00     0.326 C 
HETATM   11  H   UNL     1     -42.998  56.086 -50.825  1.00  0.00     0.165 HD
HETATM   12  O   UNL     1     -42.823  53.674 -51.348  1.00  0.00    -0.247 OA
HETATM   13  N   UNL     1     -42.160  54.535 -53.395  1.00  0.00    -0.268 N 
HETATM   14  C   UNL     1     -41.919  55.800 -53.858  1.00  0.00     0.256 C 
HETATM   15  O   UNL     1     -41.425  56.096 -54.936  1.00  0.00    -0.270 OA
BRANCH   8  16
HETATM   16  C   UNL     1     -41.139  57.486 -52.147  1.00  0.00     0.037 C 
HETATM   17  C   UNL     1     -41.192  57.676 -50.639  1.00  0.00     0.008 C 
ENDBRANCH   8  16
BRANCH  13  18
HETATM   18  C   UNL     1     -41.709  53.317 -54.053  1.00  0.00     0.142 C 
BRANCH  18  19
HETATM   19  C   UNL     1     -40.209  53.055 -53.869  1.00  0.00     0.068 C 
BRANCH  19  20
HETATM   20  C   UNL     1     -39.959  51.863 -53.000  1.00  0.00     0.010 A 
HETATM   21  S   UNL     1     -39.794  52.039 -51.299  1.00  0.00    -0.085 SA
HETATM   22  C   UNL     1     -39.552  50.350 -51.162  1.00  0.00     0.166 A 
HETATM   23  N   UNL     1     -39.587  49.672 -52.286  1.00  0.00    -0.258 NA
HETATM   24  C   UNL     1     -39.815  50.528 -53.350  1.00  0.00     0.044 A 
HETATM   25  C   UNL     1     -39.884  49.944 -54.716  1.00  0.00     0.071 C 
ENDBRANCH  19  20
ENDBRANCH  18  19
ENDBRANCH  13  18
ENDBRANCH   1   8
BRANCH   4  26
HETATM   26  C   UNL     1     -42.530  57.859 -57.688  1.00  0.00     0.276 C 
BRANCH  26  27
HETATM   27  C   UNL     1     -43.384  57.089 -58.655  1.00  0.00     0.004 A 
HETATM   28  C   UNL     1     -44.572  57.646 -59.145  1.00  0.00     0.107 A 
HETATM   29  C   UNL     1     -45.393  56.942 -60.024  1.00  0.00     0.102 A 
HETATM   30  C   UNL     1     -45.058  55.650 -60.406  1.00  0.00     0.039 A 
HETATM   31  C   UNL     1     -43.876  55.078 -59.930  1.00  0.00     0.003 A 
HETATM   32  C   UNL     1     -43.042  55.790 -59.059  1.00  0.00     0.012 A 
BRANCH  28  33
HETATM   33  O   UNL     1     -44.947  58.889 -58.713  1.00  0.00    -0.357 OA
HETATM   34  H   UNL     1     -44.120  59.387 -58.535  1.00  0.00     0.218 HD
ENDBRANCH  28  33
BRANCH  29  35
HETATM   35  O   UNL     1     -46.581  57.485 -60.427  1.00  0.00    -0.349 OA
BRANCH  35  36
HETATM   36  C   UNL     1     -47.539  56.465 -60.749  1.00  0.00     0.171 C 
HETATM   37  C   UNL     1     -48.176  56.814 -62.079  1.00  0.00     0.034 C 
ENDBRANCH  35  36
ENDBRANCH  29  35
ENDBRANCH  26  27
ENDBRANCH   4  26
TORSDOF 10
ENDMDL
MODEL 8
REMARK VINA RESULT:      -7.4      2.825      7.379
REMARK  10 active torsions:
REMARK  status: ('A' for Active; 'I' for Inactive)
REMARK    1  A    between atoms: C_2  and  C_3 
REMARK    2  A    between atoms: C_3  and  C_4 
REMARK    3  A    between atoms: N_7  and  C_9 
REMARK    4  A    between atoms: C_9  and  C_10 
REMARK    5  A    between atoms: C_11  and  O_12 
REMARK    6  A    between atoms: C_13  and  O_14 
REMARK    7  A    between atoms: O_14  and  C_15 
REMARK    8  A    between atoms: N_25  and  C_26 
REMARK    9  A    between atoms: C_26  and  C_27 
REMARK   10  A    between atoms: C_27  and  C_28 
ROOT
HETATM    1  C   UNL     1     -43.171  59.169 -52.461  1.00  0.00     0.026 C 
HETATM    2  C   UNL     1     -42.095  58.652 -51.489  1.00  0.00     0.035 C 
HETATM    3  C   UNL     1     -42.174  57.158 -51.196  1.00  0.00     0.235 C 
HETATM    4  N   UNL     1     -43.561  56.728 -50.785  1.00  0.00    -0.067 N 
HETATM    5  H   UNL     1     -43.764  57.123 -49.859  1.00  0.00     0.280 HD
HETATM    6  C   UNL     1     -44.651  57.221 -51.704  1.00  0.00     0.235 C 
HETATM    7  C   UNL     1     -44.539  58.719 -51.917  1.00  0.00     0.035 C 
ENDROOT
BRANCH   1   8
HETATM    8  C   UNL     1     -42.907  58.853 -53.971  1.00  0.00     0.119 C 
HETATM    9  N   UNL     1     -42.720  57.439 -54.245  1.00  0.00    -0.324 N 
HETATM   10  C   UNL     1     -43.562  56.992 -55.243  1.00  0.00     0.326 C 
HETATM   11  H   UNL     1     -41.822  56.969 -54.223  1.00  0.00     0.165 HD
HETATM   12  O   UNL     1     -43.421  55.911 -55.785  1.00  0.00    -0.247 OA
HETATM   13  N   UNL     1     -44.501  57.939 -55.484  1.00  0.00    -0.268 N 
HETATM   14  C   UNL     1     -44.183  59.093 -54.821  1.00  0.00     0.256 C 
HETATM   15  O   UNL     1     -44.793  60.151 -54.872  1.00  0.00    -0.270 OA
BRANCH   8  16
HETATM   16  C   UNL     1     -41.721  59.616 -54.608  1.00  0.00     0.037 C 
HETATM   17  C   UNL     1     -41.962  60.176 -56.002  1.00  0.00     0.008 C 
ENDBRANCH   8  16
BRANCH  13  18
HETATM   18  C   UNL     1     -45.539  57.832 -56.500  1.00  0.00     0.142 C 
BRANCH  18  19
HETATM   19  C   UNL     1     -45.174  58.542 -57.809  1.00  0.00     0.068 C 
BRANCH  19  20
HETATM   20  C   UNL     1     -44.773  57.569 -58.873  1.00  0.00     0.010 A 
HETATM   21  S   UNL     1     -45.962  56.700 -59.757  1.00  0.00    -0.085 SA
HETATM   22  C   UNL     1     -44.718  55.920 -60.636  1.00  0.00     0.166 A 
HETATM   23  N   UNL     1     -43.490  56.262 -60.320  1.00  0.00    -0.258 NA
HETATM   24  C   UNL     1     -43.507  57.204 -59.306  1.00  0.00     0.044 A 
HETATM   25  C   UNL     1     -42.203  57.715 -58.804  1.00  0.00     0.071 C 
ENDBRANCH  19  20
ENDBRANCH  18  19
ENDBRANCH  13  18
ENDBRANCH   1   8
BRANCH   4  26
HETATM   26  C   UNL     1     -43.581  55.205 -50.609  1.00  0.00     0.276 C 
BRANCH  26  27
HETATM   27  C   UNL     1     -42.275  54.493 -50.818  1.00  0.00     0.004 A 
HETATM   28  C   UNL     1     -41.915  54.040 -52.094  1.00  0.00     0.107 A 
HETATM   29  C   UNL     1     -40.721  53.355 -52.309  1.00  0.00     0.102 A 
HETATM   30  C   UNL     1     -39.873  53.082 -51.244  1.00  0.00     0.039 A 
HETATM   31  C   UNL     1     -40.213  53.528 -49.964  1.00  0.00     0.003 A 
HETATM   32  C   UNL     1     -41.406  54.229 -49.749  1.00  0.00     0.012 A 
BRANCH  28  33
HETATM   33  O   UNL     1     -42.782  54.238 -53.134  1.00  0.00    -0.357 OA
HETATM   34  H   UNL     1     -42.449  53.702 -53.885  1.00  0.00     0.218 HD
ENDBRANCH  28  33
BRANCH  29  35
HETATM   35  O   UNL     1     -40.433  52.863 -53.551  1.00  0.00    -0.349 OA
BRANCH  35  36
HETATM   36  C   UNL     1     -39.620  51.682 -53.470  1.00  0.00     0.171 C 
HETATM   37  C   UNL     1     -40.231  50.622 -54.365  1.00  0.00     0.034 C 
ENDBRANCH  35  36
ENDBRANCH  29  35
ENDBRANCH  26  27
ENDBRANCH   4  26
TORSDOF 10
ENDMDL
MODEL 9
REMARK VINA RESULT:      -7.3      2.220      3.057
REMARK  10 active torsions:
REMARK  status: ('A' for Active; 'I' for Inactive)
REMARK    1  A    between atoms: C_2  and  C_3 
REMARK    2  A    between atoms: C_3  and  C_4 
REMARK    3  A    between atoms: N_7  and  C_9 
REMARK    4  A    between atoms: C_9  and  C_10 
REMARK    5  A    between atoms: C_11  and  O_12 
REMARK    6  A    between atoms: C_13  and  O_14 
REMARK    7  A    between atoms: O_14  and  C_15 
REMARK    8  A    between atoms: N_25  and  C_26 
REMARK    9  A    between atoms: C_26  and  C_27 
REMARK   10  A    between atoms: C_27  and  C_28 
ROOT
HETATM    1  C   UNL     1     -41.345  59.132 -53.024  1.00  0.00     0.026 C 
HETATM    2  C   UNL     1     -42.118  60.013 -54.022  1.00  0.00     0.035 C 
HETATM    3  C   UNL     1     -43.223  59.286 -54.781  1.00  0.00     0.235 C 
HETATM    4  N   UNL     1     -42.736  58.007 -55.415  1.00  0.00    -0.067 N 
HETATM    5  H   UNL     1     -42.093  58.246 -56.180  1.00  0.00     0.280 HD
HETATM    6  C   UNL     1     -41.962  57.115 -54.476  1.00  0.00     0.235 C 
HETATM    7  C   UNL     1     -40.853  57.890 -53.789  1.00  0.00     0.035 C 
ENDROOT
BRANCH   1   8
HETATM    8  C   UNL     1     -42.089  58.846 -51.677  1.00  0.00     0.119 C 
HETATM    9  N   UNL     1     -43.534  58.780 -51.815  1.00  0.00    -0.324 N 
HETATM   10  C   UNL     1     -44.047  57.612 -51.287  1.00  0.00     0.326 C 
HETATM   11  H   UNL     1     -44.151  59.579 -51.725  1.00  0.00     0.165 HD
HETATM   12  O   UNL     1     -45.238  57.448 -51.091  1.00  0.00    -0.247 OA
HETATM   13  N   UNL     1     -43.028  56.753 -51.043  1.00  0.00    -0.268 N 
HETATM   14  C   UNL     1     -41.829  57.395 -51.195  1.00  0.00     0.256 C 
HETATM   15  O   UNL     1     -40.721  56.919 -50.994  1.00  0.00    -0.270 OA
BRANCH   8  16
HETATM   16  C   UNL     1     -41.772  59.829 -50.525  1.00  0.00     0.037 C 
HETATM   17  C   UNL     1     -42.812  60.908 -50.265  1.00  0.00     0.008 C 
ENDBRANCH   8  16
BRANCH  13  18
HETATM   18  C   UNL     1     -43.186  55.433 -50.450  1.00  0.00     0.142 C 
BRANCH  18  19
HETATM   19  C   UNL     1     -43.272  54.312 -51.494  1.00  0.00     0.068 C 
BRANCH  19  20
HETATM   20  C   UNL     1     -41.936  53.683 -51.742  1.00  0.00     0.010 A 
HETATM   21  S   UNL     1     -40.889  53.308 -50.433  1.00  0.00    -0.085 SA
HETATM   22  C   UNL     1     -39.738  52.705 -51.546  1.00  0.00     0.166 A 
HETATM   23  N   UNL     1     -40.079  52.762 -52.813  1.00  0.00    -0.258 NA
HETATM   24  C   UNL     1     -41.337  53.325 -52.940  1.00  0.00     0.044 A 
HETATM   25  C   UNL     1     -41.899  53.481 -54.309  1.00  0.00     0.071 C 
ENDBRANCH  19  20
ENDBRANCH  18  19
ENDBRANCH  13  18
ENDBRANCH   1   8
BRANCH   4  26
HETATM   26  C   UNL     1     -43.923  57.288 -56.068  1.00  0.00     0.276 C 
BRANCH  26  27
HETATM   27  C   UNL     1     -43.915  57.218 -57.569  1.00  0.00     0.004 A 
HETATM   28  C   UNL     1     -45.079  57.506 -58.294  1.00  0.00     0.107 A 
HETATM   29  C   UNL     1     -45.104  57.424 -59.685  1.00  0.00     0.102 A 
HETATM   30  C   UNL     1     -43.971  57.021 -60.379  1.00  0.00     0.039 A 
HETATM   31  C   UNL     1     -42.800  56.732 -59.675  1.00  0.00     0.003 A 
HETATM   32  C   UNL     1     -42.769  56.829 -58.278  1.00  0.00     0.012 A 
BRANCH  28  33
HETATM   33  O   UNL     1     -46.220  57.828 -57.611  1.00  0.00    -0.357 OA
HETATM   34  H   UNL     1     -45.974  57.891 -56.664  1.00  0.00     0.218 HD
ENDBRANCH  28  33
BRANCH  29  35
HETATM   35  O   UNL     1     -46.274  57.640 -60.358  1.00  0.00    -0.349 OA
BRANCH  35  36
HETATM   36  C   UNL     1     -46.976  56.410 -60.594  1.00  0.00     0.171 C 
HETATM   37  C   UNL     1     -47.900  56.610 -61.779  1.00  0.00     0.034 C 
ENDBRANCH  35  36
ENDBRANCH  29  35
ENDBRANCH  26  27
ENDBRANCH   4  26
TORSDOF 10
ENDMDL
MODEL 10
REMARK VINA RESULT:      -7.3      2.699      7.221
REMARK  10 active torsions:
REMARK  status: ('A' for Active; 'I' for Inactive)
REMARK    1  A    between atoms: C_2  and  C_3 
REMARK    2  A    between atoms: C_3  and  C_4 
REMARK    3  A    between atoms: N_7  and  C_9 
REMARK    4  A    between atoms: C_9  and  C_10 
REMARK    5  A    between atoms: C_11  and  O_12 
REMARK    6  A    between atoms: C_13  and  O_14 
REMARK    7  A    between atoms: O_14  and  C_15 
REMARK    8  A    between atoms: N_25  and  C_26 
REMARK    9  A    between atoms: C_26  and  C_27 
REMARK   10  A    between atoms: C_27  and  C_28 
ROOT
HETATM    1  C   UNL     1     -45.060  57.863 -53.390  1.00  0.00     0.026 C 
HETATM    2  C   UNL     1     -44.809  57.834 -51.871  1.00  0.00     0.035 C 
HETATM    3  C   UNL     1     -43.368  57.536 -51.474  1.00  0.00     0.235 C 
HETATM    4  N   UNL     1     -42.829  56.304 -52.160  1.00  0.00    -0.067 N 
HETATM    5  H   UNL     1     -43.314  55.482 -51.781  1.00  0.00     0.280 HD
HETATM    6  C   UNL     1     -43.061  56.283 -53.651  1.00  0.00     0.235 C 
HETATM    7  C   UNL     1     -44.521  56.544 -53.972  1.00  0.00     0.035 C 
ENDROOT
BRANCH   1   8
HETATM    8  C   UNL     1     -44.585  59.166 -54.116  1.00  0.00     0.119 C 
HETATM    9  N   UNL     1     -43.161  59.421 -53.978  1.00  0.00    -0.324 N 
HETATM   10  C   UNL     1     -42.553  59.612 -55.202  1.00  0.00     0.326 C 
HETATM   11  H   UNL     1     -42.750  59.961 -53.225  1.00  0.00     0.165 HD
HETATM   12  O   UNL     1     -41.425  60.059 -55.312  1.00  0.00    -0.247 OA
HETATM   13  N   UNL     1     -43.409  59.237 -56.183  1.00  0.00    -0.268 N 
HETATM   14  C   UNL     1     -44.650  59.000 -55.657  1.00  0.00     0.256 C 
HETATM   15  O   UNL     1     -45.657  58.699 -56.280  1.00  0.00    -0.270 OA
BRANCH   8  16
HETATM   16  C   UNL     1     -45.334  60.458 -53.712  1.00  0.00     0.037 C 
HETATM   17  C   UNL     1     -44.559  61.432 -52.837  1.00  0.00     0.008 C 
ENDBRANCH   8  16
BRANCH  13  18
HETATM   18  C   UNL     1     -43.124  59.332 -57.608  1.00  0.00     0.142 C 
BRANCH  18  19
HETATM   19  C   UNL     1     -42.220  58.203 -58.118  1.00  0.00     0.068 C 
BRANCH  19  20
HETATM   20  C   UNL     1     -43.008  57.126 -58.794  1.00  0.00     0.010 A 
HETATM   21  S   UNL     1     -43.716  57.397 -60.336  1.00  0.00    -0.085 SA
HETATM   22  C   UNL     1     -44.347  55.806 -60.310  1.00  0.00     0.166 A 
HETATM   23  N   UNL     1     -44.067  55.095 -59.242  1.00  0.00    -0.258 NA
HETATM   24  C   UNL     1     -43.302  55.841 -58.362  1.00  0.00     0.044 A 
HETATM   25  C   UNL     1     -42.886  55.205 -57.083  1.00  0.00     0.071 C 
ENDBRANCH  19  20
ENDBRANCH  18  19
ENDBRANCH  13  18
ENDBRANCH   1   8
BRANCH   4  26
HETATM   26  C   UNL     1     -41.351  56.132 -51.790  1.00  0.00     0.276 C 
BRANCH  26  27
HETATM   27  C   UNL     1     -40.887  54.726 -51.536  1.00  0.00     0.004 A 
HETATM   28  C   UNL     1     -40.386  53.948 -52.588  1.00  0.00     0.107 A 
HETATM   29  C   UNL     1     -39.972  52.633 -52.383  1.00  0.00     0.102 A 
HETATM   30  C   UNL     1     -40.081  52.058 -51.123  1.00  0.00     0.039 A 
HETATM   31  C   UNL     1     -40.575  52.818 -50.061  1.00  0.00     0.003 A 
HETATM   32  C   UNL     1     -40.977  54.144 -50.263  1.00  0.00     0.012 A 
BRANCH  28  33
HETATM   33  O   UNL     1     -40.348  54.484 -53.846  1.00  0.00    -0.357 OA
HETATM   34  H   UNL     1     -40.242  53.733 -54.469  1.00  0.00     0.218 HD
ENDBRANCH  28  33
BRANCH  29  35
HETATM   35  O   UNL     1     -39.556  51.877 -53.443  1.00  0.00    -0.349 OA
BRANCH  35  36
HETATM   36  C   UNL     1     -39.740  50.476 -53.189  1.00  0.00     0.171 C 
HETATM   37  C   UNL     1     -39.817  49.758 -54.522  1.00  0.00     0.034 C 
ENDBRANCH  35  36
ENDBRANCH  29  35
ENDBRANCH  26  27
ENDBRANCH   4  26
TORSDOF 10
ENDMDL
