MODEL 1
REMARK VINA RESULT:      -8.0      0.000      0.000
REMARK  5 active torsions:
REMARK  status: ('A' for Active; 'I' for Inactive)
REMARK    1  A    between atoms: C_2  and  N_3 
REMARK       I    between atoms: N_3  and  C_4 
REMARK       I    between atoms: C_4  and  N_5 
REMARK    2  A    between atoms: C_7  and  C_8 
REMARK    3  A    between atoms: C_13  and  N_14 
REMARK       I    between atoms: N_14  and  C_15 
REMARK    4  A    between atoms: C_15  and  C_16 
REMARK    5  A    between atoms: C_19  and  O_20 
ROOT
HETATM    1  C   UNL     1     -42.296  57.702 -51.833  1.00  0.00     0.088 A 
HETATM    2  N   UNL     1     -41.735  58.610 -52.644  1.00  0.00    -0.177 NA
HETATM    3  N   UNL     1     -40.531  58.830 -52.105  1.00  0.00    -0.287 N 
HETATM    4  H   UNL     1     -39.930  59.525 -52.536  1.00  0.00     0.188 HD
HETATM    5  C   UNL     1     -40.276  58.062 -51.005  1.00  0.00     0.141 A 
HETATM    6  C   UNL     1     -41.383  57.276 -50.813  1.00  0.00     0.079 A 
ENDROOT
BRANCH   1   7
HETATM    7  C   UNL     1     -43.735  57.268 -52.014  1.00  0.00     0.060 C 
HETATM    8  C   UNL     1     -44.154  57.032 -53.475  1.00  0.00     0.138 C 
HETATM    9  N   UNL     1     -44.452  58.260 -54.229  1.00  0.00    -0.334 N 
HETATM   10  C   UNL     1     -44.383  58.327 -55.619  1.00  0.00     0.318 C 
HETATM   11  C   UNL     1     -45.332  59.216 -53.570  1.00  0.00     0.127 C 
HETATM   12  N   UNL     1     -43.538  57.404 -56.181  1.00  0.00    -0.339 N 
HETATM   13  O   UNL     1     -45.027  59.135 -56.280  1.00  0.00    -0.247 OA
HETATM   14  H   UNL     1     -42.715  57.260 -55.613  1.00  0.00     0.164 HD
HETATM   15  C   UNL     1     -44.891  59.523 -52.144  1.00  0.00     0.021 C 
HETATM   16  C   UNL     1     -44.711  58.242 -51.332  1.00  0.00     0.014 C 
BRANCH  12  17
HETATM   17  C   UNL     1     -43.322  57.273 -57.616  1.00  0.00     0.078 C 
HETATM   18  C   UNL     1     -43.174  55.814 -58.040  1.00  0.00     0.032 C 
HETATM   19  C   UNL     1     -42.166  58.129 -58.133  1.00  0.00     0.032 C 
ENDBRANCH  12  17
ENDBRANCH   1   7
BRANCH   6  20
HETATM   20  N   UNL     1     -41.643  56.309 -49.861  1.00  0.00    -0.320 N 
HETATM   21  C   UNL     1     -41.551  54.940 -49.873  1.00  0.00     0.256 C 
HETATM   22  O   UNL     1     -41.780  54.311 -48.840  1.00  0.00    -0.267 OA
HETATM   23  H   UNL     1     -41.917  56.645 -48.946  1.00  0.00     0.169 HD
BRANCH  21  24
HETATM   24  C   UNL     1     -41.146  54.182 -51.062  1.00  0.00     0.032 A 
HETATM   25  C   UNL     1     -41.941  54.159 -52.209  1.00  0.00     0.020 A 
HETATM   26  C   UNL     1     -41.553  53.366 -53.293  1.00  0.00     0.038 A 
HETATM   27  C   UNL     1     -40.401  52.570 -53.221  1.00  0.00     0.068 A 
HETATM   28  C   UNL     1     -39.631  52.577 -52.056  1.00  0.00     0.038 A 
HETATM   29  C   UNL     1     -40.006  53.377 -50.974  1.00  0.00     0.020 A 
BRANCH  27  30
HETATM   30  O   UNL     1     -40.142  51.835 -54.347  1.00  0.00    -0.356 OA
HETATM   31  C   UNL     1     -40.080  50.422 -54.187  1.00  0.00     0.210 C 
ENDBRANCH  27  30
ENDBRANCH  21  24
ENDBRANCH   6  20
TORSDOF 5
ENDMDL
MODEL 2
REMARK VINA RESULT:      -7.9      2.471      4.505
REMARK  5 active torsions:
REMARK  status: ('A' for Active; 'I' for Inactive)
REMARK    1  A    between atoms: C_2  and  N_3 
REMARK       I    between atoms: N_3  and  C_4 
REMARK       I    between atoms: C_4  and  N_5 
REMARK    2  A    between atoms: C_7  and  C_8 
REMARK    3  A    between atoms: C_13  and  N_14 
REMARK       I    between atoms: N_14  and  C_15 
REMARK    4  A    between atoms: C_15  and  C_16 
REMARK    5  A    between atoms: C_19  and  O_20 
ROOT
HETATM    1  C   UNL     1     -42.311  57.004 -51.460  1.00  0.00     0.088 A 
HETATM    2  N   UNL     1     -43.543  57.204 -51.945  1.00  0.00    -0.177 NA
HETATM    3  N   UNL     1     -44.258  56.187 -51.451  1.00  0.00    -0.287 N 
HETATM    4  H   UNL     1     -45.233  56.107 -51.722  1.00  0.00     0.188 HD
HETATM    5  C   UNL     1     -43.543  55.366 -50.627  1.00  0.00     0.141 A 
HETATM    6  C   UNL     1     -42.274  55.884 -50.566  1.00  0.00     0.079 A 
ENDROOT
BRANCH   1   7
HETATM    7  C   UNL     1     -41.145  57.871 -51.889  1.00  0.00     0.060 C 
HETATM    8  C   UNL     1     -41.324  59.371 -51.599  1.00  0.00     0.138 C 
HETATM    9  N   UNL     1     -42.179  60.080 -52.564  1.00  0.00    -0.334 N 
HETATM   10  C   UNL     1     -42.842  61.266 -52.255  1.00  0.00     0.318 C 
HETATM   11  C   UNL     1     -41.889  59.840 -53.972  1.00  0.00     0.127 C 
HETATM   12  N   UNL     1     -43.088  61.435 -50.916  1.00  0.00    -0.339 N 
HETATM   13  O   UNL     1     -43.170  62.088 -53.104  1.00  0.00    -0.247 OA
HETATM   14  H   UNL     1     -43.324  60.560 -50.468  1.00  0.00     0.164 HD
HETATM   15  C   UNL     1     -41.784  58.355 -54.296  1.00  0.00     0.021 C 
HETATM   16  C   UNL     1     -40.793  57.654 -53.371  1.00  0.00     0.014 C 
BRANCH  12  17
HETATM   17  C   UNL     1     -43.749  62.607 -50.356  1.00  0.00     0.078 C 
HETATM   18  C   UNL     1     -42.757  63.719 -50.027  1.00  0.00     0.032 C 
HETATM   19  C   UNL     1     -44.645  62.279 -49.161  1.00  0.00     0.032 C 
ENDBRANCH  12  17
ENDBRANCH   1   7
BRANCH   6  20
HETATM   20  N   UNL     1     -41.164  55.458 -49.862  1.00  0.00    -0.320 N 
HETATM   21  C   UNL     1     -40.224  54.489 -50.101  1.00  0.00     0.256 C 
HETATM   22  O   UNL     1     -39.275  54.365 -49.327  1.00  0.00    -0.267 OA
HETATM   23  H   UNL     1     -40.947  55.973 -49.018  1.00  0.00     0.169 HD
BRANCH  21  24
HETATM   24  C   UNL     1     -40.272  53.607 -51.273  1.00  0.00     0.032 A 
HETATM   25  C   UNL     1     -39.885  52.269 -51.186  1.00  0.00     0.020 A 
HETATM   26  C   UNL     1     -39.878  51.484 -52.343  1.00  0.00     0.038 A 
HETATM   27  C   UNL     1     -40.217  52.037 -53.586  1.00  0.00     0.068 A 
HETATM   28  C   UNL     1     -40.574  53.385 -53.665  1.00  0.00     0.038 A 
HETATM   29  C   UNL     1     -40.595  54.172 -52.510  1.00  0.00     0.020 A 
BRANCH  27  30
HETATM   30  O   UNL     1     -40.160  51.162 -54.637  1.00  0.00    -0.356 OA
HETATM   31  C   UNL     1     -39.620  49.874 -54.366  1.00  0.00     0.210 C 
ENDBRANCH  27  30
ENDBRANCH  21  24
ENDBRANCH   6  20
TORSDOF 5
ENDMDL
MODEL 3
REMARK VINA RESULT:      -7.6      1.499      2.019
REMARK  5 active torsions:
REMARK  status: ('A' for Active; 'I' for Inactive)
REMARK    1  A    between atoms: C_2  and  N_3 
REMARK       I    between atoms: N_3  and  C_4 
REMARK       I    between atoms: C_4  and  N_5 
REMARK    2  A    between atoms: C_7  and  C_8 
REMARK    3  A    between atoms: C_13  and  N_14 
REMARK       I    between atoms: N_14  and  C_15 
REMARK    4  A    between atoms: C_15  and  C_16 
REMARK    5  A    between atoms: C_19  and  O_20 
ROOT
HETATM    1  C   UNL     1     -43.006  57.785 -53.586  1.00  0.00     0.088 A 
HETATM    2  N   UNL     1     -42.160  58.422 -54.406  1.00  0.00    -0.177 NA
HETATM    3  N   UNL     1     -40.973  58.311 -53.799  1.00  0.00    -0.287 N 
HETATM    4  H   UNL     1     -40.170  58.762 -54.227  1.00  0.00     0.188 HD
HETATM    5  C   UNL     1     -41.015  57.585 -52.644  1.00  0.00     0.141 A 
HETATM    6  C   UNL     1     -42.316  57.181 -52.484  1.00  0.00     0.079 A 
ENDROOT
BRANCH   1   7
HETATM    7  C   UNL     1     -44.499  57.787 -53.840  1.00  0.00     0.060 C 
HETATM    8  C   UNL     1     -44.909  57.346 -55.255  1.00  0.00     0.138 C 
HETATM    9  N   UNL     1     -44.753  58.384 -56.286  1.00  0.00    -0.334 N 
HETATM   10  C   UNL     1     -44.606  58.087 -57.639  1.00  0.00     0.318 C 
HETATM   11  C   UNL     1     -45.297  59.696 -55.959  1.00  0.00     0.127 C 
HETATM   12  N   UNL     1     -44.088  56.841 -57.885  1.00  0.00    -0.339 N 
HETATM   13  O   UNL     1     -44.918  58.869 -58.532  1.00  0.00    -0.247 OA
HETATM   14  H   UNL     1     -43.384  56.591 -57.204  1.00  0.00     0.164 HD
HETATM   15  C   UNL     1     -44.842  60.187 -54.590  1.00  0.00     0.021 C 
HETATM   16  C   UNL     1     -45.128  59.151 -53.506  1.00  0.00     0.014 C 
BRANCH  12  17
HETATM   17  C   UNL     1     -43.866  56.305 -59.221  1.00  0.00     0.078 C 
HETATM   18  C   UNL     1     -44.215  54.821 -59.307  1.00  0.00     0.032 C 
HETATM   19  C   UNL     1     -42.462  56.585 -59.757  1.00  0.00     0.032 C 
ENDBRANCH  12  17
ENDBRANCH   1   7
BRANCH   6  20
HETATM   20  N   UNL     1     -42.901  56.408 -51.500  1.00  0.00    -0.320 N 
HETATM   21  C   UNL     1     -42.840  55.070 -51.206  1.00  0.00     0.256 C 
HETATM   22  O   UNL     1     -43.416  54.645 -50.205  1.00  0.00    -0.267 OA
HETATM   23  H   UNL     1     -43.459  56.904 -50.816  1.00  0.00     0.169 HD
BRANCH  21  24
HETATM   24  C   UNL     1     -42.075  54.113 -52.014  1.00  0.00     0.032 A 
HETATM   25  C   UNL     1     -40.943  53.478 -51.502  1.00  0.00     0.020 A 
HETATM   26  C   UNL     1     -40.203  52.628 -52.331  1.00  0.00     0.038 A 
HETATM   27  C   UNL     1     -40.565  52.443 -53.672  1.00  0.00     0.068 A 
HETATM   28  C   UNL     1     -41.683  53.108 -54.181  1.00  0.00     0.038 A 
HETATM   29  C   UNL     1     -42.434  53.948 -53.355  1.00  0.00     0.020 A 
BRANCH  27  30
HETATM   30  O   UNL     1     -39.751  51.595 -54.373  1.00  0.00    -0.356 OA
HETATM   31  C   UNL     1     -40.063  50.208 -54.304  1.00  0.00     0.210 C 
ENDBRANCH  27  30
ENDBRANCH  21  24
ENDBRANCH   6  20
TORSDOF 5
ENDMDL
MODEL 4
REMARK VINA RESULT:      -7.5     15.971     19.054
REMARK  5 active torsions:
REMARK  status: ('A' for Active; 'I' for Inactive)
REMARK    1  A    between atoms: C_2  and  N_3 
REMARK       I    between atoms: N_3  and  C_4 
REMARK       I    between atoms: C_4  and  N_5 
REMARK    2  A    between atoms: C_7  and  C_8 
REMARK    3  A    between atoms: C_13  and  N_14 
REMARK       I    between atoms: N_14  and  C_15 
REMARK    4  A    between atoms: C_15  and  C_16 
REMARK    5  A    between atoms: C_19  and  O_20 
ROOT
HETATM    1  C   UNL     1     -34.756  39.584 -57.158  1.00  0.00     0.088 A 
HETATM    2  N   UNL     1     -35.797  38.742 -57.134  1.00  0.00    -0.177 NA
HETATM    3  N   UNL     1     -35.248  37.539 -57.336  1.00  0.00    -0.287 N 
HETATM    4  H   UNL     1     -35.862  36.733 -57.398  1.00  0.00     0.188 HD
HETATM    5  C   UNL     1     -33.887  37.569 -57.441  1.00  0.00     0.141 A 
HETATM    6  C   UNL     1     -33.513  38.880 -57.287  1.00  0.00     0.079 A 
ENDROOT
BRANCH   1   7
HETATM    7  C   UNL     1     -34.956  41.084 -57.097  1.00  0.00     0.060 C 
HETATM    8  C   UNL     1     -35.098  41.653 -55.675  1.00  0.00     0.138 C 
HETATM    9  N   UNL     1     -36.430  41.472 -55.077  1.00  0.00    -0.334 N 
HETATM   10  C   UNL     1     -36.645  41.470 -53.701  1.00  0.00     0.318 C 
HETATM   11  C   UNL     1     -37.563  41.845 -55.916  1.00  0.00     0.127 C 
HETATM   12  N   UNL     1     -35.545  41.110 -52.965  1.00  0.00    -0.339 N 
HETATM   13  O   UNL     1     -37.721  41.769 -53.193  1.00  0.00    -0.247 OA
HETATM   14  H   UNL     1     -35.013  40.383 -53.423  1.00  0.00     0.164 HD
HETATM   15  C   UNL     1     -37.480  41.228 -57.307  1.00  0.00     0.021 C 
HETATM   16  C   UNL     1     -36.140  41.534 -57.971  1.00  0.00     0.014 C 
BRANCH  12  17
HETATM   17  C   UNL     1     -35.527  41.057 -51.509  1.00  0.00     0.078 C 
HETATM   18  C   UNL     1     -34.445  41.957 -50.918  1.00  0.00     0.032 C 
HETATM   19  C   UNL     1     -35.438  39.634 -50.959  1.00  0.00     0.032 C 
ENDBRANCH  12  17
ENDBRANCH   1   7
BRANCH   6  20
HETATM   20  N   UNL     1     -32.260  39.462 -57.284  1.00  0.00    -0.320 N 
HETATM   21  C   UNL     1     -31.328  39.663 -56.299  1.00  0.00     0.256 C 
HETATM   22  O   UNL     1     -30.237  40.154 -56.590  1.00  0.00    -0.267 OA
HETATM   23  H   UNL     1     -31.911  39.774 -58.182  1.00  0.00     0.169 HD
BRANCH  21  24
HETATM   24  C   UNL     1     -31.554  39.279 -54.900  1.00  0.00     0.032 A 
HETATM   25  C   UNL     1     -31.966  40.215 -53.951  1.00  0.00     0.020 A 
HETATM   26  C   UNL     1     -32.100  39.821 -52.617  1.00  0.00     0.038 A 
HETATM   27  C   UNL     1     -31.790  38.513 -52.222  1.00  0.00     0.068 A 
HETATM   28  C   UNL     1     -31.349  37.592 -53.176  1.00  0.00     0.038 A 
HETATM   29  C   UNL     1     -31.225  37.976 -54.513  1.00  0.00     0.020 A 
BRANCH  27  30
HETATM   30  O   UNL     1     -31.955  38.263 -50.886  1.00  0.00    -0.356 OA
HETATM   31  C   UNL     1     -31.883  39.384 -50.014  1.00  0.00     0.210 C 
ENDBRANCH  27  30
ENDBRANCH  21  24
ENDBRANCH   6  20
TORSDOF 5
ENDMDL
MODEL 5
REMARK VINA RESULT:      -7.4      3.161      5.094
REMARK  5 active torsions:
REMARK  status: ('A' for Active; 'I' for Inactive)
REMARK    1  A    between atoms: C_2  and  N_3 
REMARK       I    between atoms: N_3  and  C_4 
REMARK       I    between atoms: C_4  and  N_5 
REMARK    2  A    between atoms: C_7  and  C_8 
REMARK    3  A    between atoms: C_13  and  N_14 
REMARK       I    between atoms: N_14  and  C_15 
REMARK    4  A    between atoms: C_15  and  C_16 
REMARK    5  A    between atoms: C_19  and  O_20 
ROOT
HETATM    1  C   UNL     1     -43.433  56.556 -54.791  1.00  0.00     0.088 A 
HETATM    2  N   UNL     1     -42.635  55.951 -55.682  1.00  0.00    -0.177 NA
HETATM    3  N   UNL     1     -42.131  54.908 -55.014  1.00  0.00    -0.287 N 
HETATM    4  H   UNL     1     -41.455  54.314 -55.485  1.00  0.00     0.188 HD
HETATM    5  C   UNL     1     -42.611  54.790 -53.741  1.00  0.00     0.141 A 
HETATM    6  C   UNL     1     -43.499  55.820 -53.562  1.00  0.00     0.079 A 
ENDROOT
BRANCH   1   7
HETATM    7  C   UNL     1     -44.107  57.874 -55.107  1.00  0.00     0.060 C 
HETATM    8  C   UNL     1     -44.791  57.930 -56.484  1.00  0.00     0.138 C 
HETATM    9  N   UNL     1     -43.872  58.154 -57.611  1.00  0.00    -0.334 N 
HETATM   10  C   UNL     1     -44.176  57.780 -58.917  1.00  0.00     0.318 C 
HETATM   11  C   UNL     1     -42.913  59.240 -57.447  1.00  0.00     0.127 C 
HETATM   12  N   UNL     1     -45.082  56.754 -59.008  1.00  0.00    -0.339 N 
HETATM   13  O   UNL     1     -43.683  58.324 -59.900  1.00  0.00    -0.247 OA
HETATM   14  H   UNL     1     -44.943  56.071 -58.275  1.00  0.00     0.164 HD
HETATM   15  C   UNL     1     -42.168  59.160 -56.120  1.00  0.00     0.021 C 
HETATM   16  C   UNL     1     -43.138  59.059 -54.946  1.00  0.00     0.014 C 
BRANCH  12  17
HETATM   17  C   UNL     1     -45.566  56.209 -60.269  1.00  0.00     0.078 C 
HETATM   18  C   UNL     1     -47.091  56.217 -60.348  1.00  0.00     0.032 C 
HETATM   19  C   UNL     1     -44.993  54.828 -60.588  1.00  0.00     0.032 C 
ENDBRANCH  12  17
ENDBRANCH   1   7
BRANCH   6  20
HETATM   20  N   UNL     1     -44.280  56.154 -52.472  1.00  0.00    -0.320 N 
HETATM   21  C   UNL     1     -44.107  57.037 -51.437  1.00  0.00     0.256 C 
HETATM   22  O   UNL     1     -45.014  57.194 -50.620  1.00  0.00    -0.267 OA
HETATM   23  H   UNL     1     -45.188  55.708 -52.420  1.00  0.00     0.169 HD
BRANCH  21  24
HETATM   24  C   UNL     1     -42.893  57.846 -51.277  1.00  0.00     0.032 A 
HETATM   25  C   UNL     1     -41.662  57.252 -50.996  1.00  0.00     0.020 A 
HETATM   26  C   UNL     1     -40.546  58.066 -50.781  1.00  0.00     0.038 A 
HETATM   27  C   UNL     1     -40.662  59.463 -50.807  1.00  0.00     0.068 A 
HETATM   28  C   UNL     1     -41.906  60.045 -51.059  1.00  0.00     0.038 A 
HETATM   29  C   UNL     1     -43.023  59.238 -51.288  1.00  0.00     0.020 A 
BRANCH  27  30
HETATM   30  O   UNL     1     -39.495  60.139 -50.570  1.00  0.00    -0.356 OA
HETATM   31  C   UNL     1     -38.296  59.373 -50.598  1.00  0.00     0.210 C 
ENDBRANCH  27  30
ENDBRANCH  21  24
ENDBRANCH   6  20
TORSDOF 5
ENDMDL
MODEL 6
REMARK VINA RESULT:      -7.1      2.264      3.406
REMARK  5 active torsions:
REMARK  status: ('A' for Active; 'I' for Inactive)
REMARK    1  A    between atoms: C_2  and  N_3 
REMARK       I    between atoms: N_3  and  C_4 
REMARK       I    between atoms: C_4  and  N_5 
REMARK    2  A    between atoms: C_7  and  C_8 
REMARK    3  A    between atoms: C_13  and  N_14 
REMARK       I    between atoms: N_14  and  C_15 
REMARK    4  A    between atoms: C_15  and  C_16 
REMARK    5  A    between atoms: C_19  and  O_20 
ROOT
HETATM    1  C   UNL     1     -43.240  58.332 -54.008  1.00  0.00     0.088 A 
HETATM    2  N   UNL     1     -42.555  59.352 -53.474  1.00  0.00    -0.177 NA
HETATM    3  N   UNL     1     -41.292  58.911 -53.433  1.00  0.00    -0.287 N 
HETATM    4  H   UNL     1     -40.585  59.513 -53.022  1.00  0.00     0.188 HD
HETATM    5  C   UNL     1     -41.131  57.664 -53.965  1.00  0.00     0.141 A 
HETATM    6  C   UNL     1     -42.370  57.261 -54.395  1.00  0.00     0.079 A 
ENDROOT
BRANCH   1   7
HETATM    7  C   UNL     1     -44.751  58.368 -54.112  1.00  0.00     0.060 C 
HETATM    8  C   UNL     1     -45.312  57.866 -55.453  1.00  0.00     0.138 C 
HETATM    9  N   UNL     1     -45.234  58.845 -56.550  1.00  0.00    -0.334 N 
HETATM   10  C   UNL     1     -45.232  58.474 -57.892  1.00  0.00     0.318 C 
HETATM   11  C   UNL     1     -45.709  60.188 -56.242  1.00  0.00     0.127 C 
HETATM   12  N   UNL     1     -44.774  57.201 -58.119  1.00  0.00    -0.339 N 
HETATM   13  O   UNL     1     -45.613  59.218 -58.791  1.00  0.00    -0.247 OA
HETATM   14  H   UNL     1     -44.011  56.965 -57.500  1.00  0.00     0.164 HD
HETATM   15  C   UNL     1     -45.105  60.735 -54.954  1.00  0.00     0.021 C 
HETATM   16  C   UNL     1     -45.307  59.766 -53.792  1.00  0.00     0.014 C 
BRANCH  12  17
HETATM   17  C   UNL     1     -44.701  56.590 -59.440  1.00  0.00     0.078 C 
HETATM   18  C   UNL     1     -46.070  56.125 -59.931  1.00  0.00     0.032 C 
HETATM   19  C   UNL     1     -43.662  55.473 -59.530  1.00  0.00     0.032 C 
ENDBRANCH  12  17
ENDBRANCH   1   7
BRANCH   6  20
HETATM   20  N   UNL     1     -42.767  56.096 -55.025  1.00  0.00    -0.320 N 
HETATM   21  C   UNL     1     -42.719  54.776 -54.658  1.00  0.00     0.256 C 
HETATM   22  O   UNL     1     -43.220  53.926 -55.395  1.00  0.00    -0.267 OA
HETATM   23  H   UNL     1     -43.228  56.208 -55.919  1.00  0.00     0.169 HD
BRANCH  21  24
HETATM   24  C   UNL     1     -42.129  54.323 -53.392  1.00  0.00     0.032 A 
HETATM   25  C   UNL     1     -40.854  53.756 -53.352  1.00  0.00     0.020 A 
HETATM   26  C   UNL     1     -40.361  53.274 -52.136  1.00  0.00     0.038 A 
HETATM   27  C   UNL     1     -41.145  53.319 -50.976  1.00  0.00     0.068 A 
HETATM   28  C   UNL     1     -42.431  53.860 -51.036  1.00  0.00     0.038 A 
HETATM   29  C   UNL     1     -42.926  54.356 -52.244  1.00  0.00     0.020 A 
BRANCH  27  30
HETATM   30  O   UNL     1     -40.545  52.804 -49.859  1.00  0.00    -0.356 OA
HETATM   31  C   UNL     1     -40.542  53.628 -48.699  1.00  0.00     0.210 C 
ENDBRANCH  27  30
ENDBRANCH  21  24
ENDBRANCH   6  20
TORSDOF 5
ENDMDL
MODEL 7
REMARK VINA RESULT:      -6.9      2.872      4.494
REMARK  5 active torsions:
REMARK  status: ('A' for Active; 'I' for Inactive)
REMARK    1  A    between atoms: C_2  and  N_3 
REMARK       I    between atoms: N_3  and  C_4 
REMARK       I    between atoms: C_4  and  N_5 
REMARK    2  A    between atoms: C_7  and  C_8 
REMARK    3  A    between atoms: C_13  and  N_14 
REMARK       I    between atoms: N_14  and  C_15 
REMARK    4  A    between atoms: C_15  and  C_16 
REMARK    5  A    between atoms: C_19  and  O_20 
ROOT
HETATM    1  C   UNL     1     -43.625  56.987 -55.291  1.00  0.00     0.088 A 
HETATM    2  N   UNL     1     -42.869  56.285 -56.145  1.00  0.00    -0.177 NA
HETATM    3  N   UNL     1     -42.413  55.262 -55.413  1.00  0.00    -0.287 N 
HETATM    4  H   UNL     1     -41.774  54.605 -55.849  1.00  0.00     0.188 HD
HETATM    5  C   UNL     1     -42.886  55.254 -54.132  1.00  0.00     0.141 A 
HETATM    6  C   UNL     1     -43.718  56.338 -54.016  1.00  0.00     0.079 A 
ENDROOT
BRANCH   1   7
HETATM    7  C   UNL     1     -44.233  58.317 -55.688  1.00  0.00     0.060 C 
HETATM    8  C   UNL     1     -44.902  58.326 -57.072  1.00  0.00     0.138 C 
HETATM    9  N   UNL     1     -43.965  58.441 -58.201  1.00  0.00    -0.334 N 
HETATM   10  C   UNL     1     -44.277  58.008 -59.487  1.00  0.00     0.318 C 
HETATM   11  C   UNL     1     -42.956  59.488 -58.090  1.00  0.00     0.127 C 
HETATM   12  N   UNL     1     -45.231  57.022 -59.528  1.00  0.00    -0.339 N 
HETATM   13  O   UNL     1     -43.751  58.470 -60.494  1.00  0.00    -0.247 OA
HETATM   14  H   UNL     1     -45.131  56.376 -58.757  1.00  0.00     0.164 HD
HETATM   15  C   UNL     1     -42.227  59.448 -56.753  1.00  0.00     0.021 C 
HETATM   16  C   UNL     1     -43.209  59.461 -55.584  1.00  0.00     0.014 C 
BRANCH  12  17
HETATM   17  C   UNL     1     -45.731  56.430 -60.762  1.00  0.00     0.078 C 
HETATM   18  C   UNL     1     -47.256  56.403 -60.806  1.00  0.00     0.032 C 
HETATM   19  C   UNL     1     -45.135  55.052 -61.053  1.00  0.00     0.032 C 
ENDBRANCH  12  17
ENDBRANCH   1   7
BRANCH   6  20
HETATM   20  N   UNL     1     -44.469  56.783 -52.945  1.00  0.00    -0.320 N 
HETATM   21  C   UNL     1     -44.273  56.744 -51.588  1.00  0.00     0.256 C 
HETATM   22  O   UNL     1     -45.087  57.292 -50.845  1.00  0.00    -0.267 OA
HETATM   23  H   UNL     1     -45.321  57.281 -53.174  1.00  0.00     0.169 HD
BRANCH  21  24
HETATM   24  C   UNL     1     -43.102  56.108 -50.973  1.00  0.00     0.032 A 
HETATM   25  C   UNL     1     -43.156  54.794 -50.506  1.00  0.00     0.020 A 
HETATM   26  C   UNL     1     -42.039  54.253 -49.862  1.00  0.00     0.038 A 
HETATM   27  C   UNL     1     -40.890  55.026 -49.649  1.00  0.00     0.068 A 
HETATM   28  C   UNL     1     -40.859  56.350 -50.094  1.00  0.00     0.038 A 
HETATM   29  C   UNL     1     -41.967  56.893 -50.750  1.00  0.00     0.020 A 
BRANCH  27  30
HETATM   30  O   UNL     1     -39.875  54.378 -48.999  1.00  0.00    -0.356 OA
HETATM   31  C   UNL     1     -40.162  53.894 -47.691  1.00  0.00     0.210 C 
ENDBRANCH  27  30
ENDBRANCH  21  24
ENDBRANCH   6  20
TORSDOF 5
ENDMDL
MODEL 8
REMARK VINA RESULT:      -6.9      2.965      4.732
REMARK  5 active torsions:
REMARK  status: ('A' for Active; 'I' for Inactive)
REMARK    1  A    between atoms: C_2  and  N_3 
REMARK       I    between atoms: N_3  and  C_4 
REMARK       I    between atoms: C_4  and  N_5 
REMARK    2  A    between atoms: C_7  and  C_8 
REMARK    3  A    between atoms: C_13  and  N_14 
REMARK       I    between atoms: N_14  and  C_15 
REMARK    4  A    between atoms: C_15  and  C_16 
REMARK    5  A    between atoms: C_19  and  O_20 
ROOT
HETATM    1  C   UNL     1     -43.929  57.775 -55.565  1.00  0.00     0.088 A 
HETATM    2  N   UNL     1     -45.205  57.375 -55.646  1.00  0.00    -0.177 NA
HETATM    3  N   UNL     1     -45.474  56.890 -54.429  1.00  0.00    -0.287 N 
HETATM    4  H   UNL     1     -46.391  56.486 -54.263  1.00  0.00     0.188 HD
HETATM    5  C   UNL     1     -44.434  57.007 -53.552  1.00  0.00     0.141 A 
HETATM    6  C   UNL     1     -43.415  57.619 -54.236  1.00  0.00     0.079 A 
ENDROOT
BRANCH   1   7
HETATM    7  C   UNL     1     -43.182  58.274 -56.784  1.00  0.00     0.060 C 
HETATM    8  C   UNL     1     -44.068  58.938 -57.851  1.00  0.00     0.138 C 
HETATM    9  N   UNL     1     -44.798  57.993 -58.711  1.00  0.00    -0.334 N 
HETATM   10  C   UNL     1     -45.965  58.336 -59.388  1.00  0.00     0.318 C 
HETATM   11  C   UNL     1     -44.009  56.904 -59.275  1.00  0.00     0.127 C 
HETATM   12  N   UNL     1     -46.664  59.365 -58.810  1.00  0.00    -0.339 N 
HETATM   13  O   UNL     1     -46.332  57.772 -60.414  1.00  0.00    -0.247 OA
HETATM   14  H   UNL     1     -46.626  59.318 -57.800  1.00  0.00     0.164 HD
HETATM   15  C   UNL     1     -43.180  56.182 -58.220  1.00  0.00     0.021 C 
HETATM   16  C   UNL     1     -42.328  57.162 -57.418  1.00  0.00     0.014 C 
BRANCH  12  17
HETATM   17  C   UNL     1     -47.902  59.909 -59.352  1.00  0.00     0.078 C 
HETATM   18  C   UNL     1     -47.643  61.016 -60.370  1.00  0.00     0.032 C 
HETATM   19  C   UNL     1     -48.887  60.357 -58.272  1.00  0.00     0.032 C 
ENDBRANCH  12  17
ENDBRANCH   1   7
BRANCH   6  20
HETATM   20  N   UNL     1     -42.152  57.994 -53.818  1.00  0.00    -0.320 N 
HETATM   21  C   UNL     1     -40.997  57.289 -53.592  1.00  0.00     0.256 C 
HETATM   22  O   UNL     1     -39.970  57.894 -53.288  1.00  0.00    -0.267 OA
HETATM   23  H   UNL     1     -42.002  58.986 -53.686  1.00  0.00     0.169 HD
BRANCH  21  24
HETATM   24  C   UNL     1     -40.916  55.831 -53.738  1.00  0.00     0.032 A 
HETATM   25  C   UNL     1     -41.221  54.980 -52.674  1.00  0.00     0.020 A 
HETATM   26  C   UNL     1     -41.060  53.601 -52.835  1.00  0.00     0.038 A 
HETATM   27  C   UNL     1     -40.562  53.073 -54.034  1.00  0.00     0.068 A 
HETATM   28  C   UNL     1     -40.231  53.936 -55.081  1.00  0.00     0.038 A 
HETATM   29  C   UNL     1     -40.402  55.315 -54.931  1.00  0.00     0.020 A 
BRANCH  27  30
HETATM   30  O   UNL     1     -40.445  51.710 -54.055  1.00  0.00    -0.356 OA
HETATM   31  C   UNL     1     -39.599  51.127 -53.070  1.00  0.00     0.210 C 
ENDBRANCH  27  30
ENDBRANCH  21  24
ENDBRANCH   6  20
TORSDOF 5
ENDMDL
MODEL 9
REMARK VINA RESULT:      -6.8     15.776     18.571
REMARK  5 active torsions:
REMARK  status: ('A' for Active; 'I' for Inactive)
REMARK    1  A    between atoms: C_2  and  N_3 
REMARK       I    between atoms: N_3  and  C_4 
REMARK       I    between atoms: C_4  and  N_5 
REMARK    2  A    between atoms: C_7  and  C_8 
REMARK    3  A    between atoms: C_13  and  N_14 
REMARK       I    between atoms: N_14  and  C_15 
REMARK    4  A    between atoms: C_15  and  C_16 
REMARK    5  A    between atoms: C_19  and  O_20 
ROOT
HETATM    1  C   UNL     1     -36.227  40.199 -52.498  1.00  0.00     0.088 A 
HETATM    2  N   UNL     1     -37.447  40.679 -52.223  1.00  0.00    -0.177 NA
HETATM    3  N   UNL     1     -37.420  41.930 -52.696  1.00  0.00    -0.287 N 
HETATM    4  H   UNL     1     -38.240  42.513 -52.562  1.00  0.00     0.188 HD
HETATM    5  C   UNL     1     -36.245  42.258 -53.308  1.00  0.00     0.141 A 
HETATM    6  C   UNL     1     -35.447  41.144 -53.244  1.00  0.00     0.079 A 
ENDROOT
BRANCH   1   7
HETATM    7  C   UNL     1     -35.788  38.836 -52.007  1.00  0.00     0.060 C 
HETATM    8  C   UNL     1     -36.812  38.118 -51.111  1.00  0.00     0.138 C 
HETATM    9  N   UNL     1     -36.838  38.589 -49.717  1.00  0.00    -0.334 N 
HETATM   10  C   UNL     1     -37.948  38.438 -48.891  1.00  0.00     0.318 C 
HETATM   11  C   UNL     1     -35.543  38.705 -49.059  1.00  0.00     0.127 C 
HETATM   12  N   UNL     1     -39.138  38.336 -49.568  1.00  0.00    -0.339 N 
HETATM   13  O   UNL     1     -37.870  38.395 -47.668  1.00  0.00    -0.247 OA
HETATM   14  H   UNL     1     -39.155  38.936 -50.381  1.00  0.00     0.164 HD
HETATM   15  C   UNL     1     -34.534  39.480 -49.897  1.00  0.00     0.021 C 
HETATM   16  C   UNL     1     -34.420  38.900 -51.305  1.00  0.00     0.014 C 
BRANCH  12  17
HETATM   17  C   UNL     1     -40.428  38.151 -48.915  1.00  0.00     0.078 C 
HETATM   18  C   UNL     1     -40.657  36.700 -48.504  1.00  0.00     0.032 C 
HETATM   19  C   UNL     1     -41.599  38.697 -49.732  1.00  0.00     0.032 C 
ENDBRANCH  12  17
ENDBRANCH   1   7
BRANCH   6  20
HETATM   20  N   UNL     1     -34.171  40.924 -53.726  1.00  0.00    -0.320 N 
HETATM   21  C   UNL     1     -33.663  40.795 -54.993  1.00  0.00     0.256 C 
HETATM   22  O   UNL     1     -32.448  40.675 -55.147  1.00  0.00    -0.267 OA
HETATM   23  H   UNL     1     -33.432  40.890 -53.034  1.00  0.00     0.169 HD
BRANCH  21  24
HETATM   24  C   UNL     1     -34.505  40.837 -56.195  1.00  0.00     0.032 A 
HETATM   25  C   UNL     1     -35.039  42.039 -56.661  1.00  0.00     0.020 A 
HETATM   26  C   UNL     1     -35.894  42.022 -57.767  1.00  0.00     0.038 A 
HETATM   27  C   UNL     1     -36.246  40.813 -58.382  1.00  0.00     0.068 A 
HETATM   28  C   UNL     1     -35.728  39.613 -57.888  1.00  0.00     0.038 A 
HETATM   29  C   UNL     1     -34.863  39.624 -56.790  1.00  0.00     0.020 A 
BRANCH  27  30
HETATM   30  O   UNL     1     -37.097  40.938 -59.447  1.00  0.00    -0.356 OA
HETATM   31  C   UNL     1     -37.312  42.255 -59.941  1.00  0.00     0.210 C 
ENDBRANCH  27  30
ENDBRANCH  21  24
ENDBRANCH   6  20
TORSDOF 5
ENDMDL
MODEL 10
REMARK VINA RESULT:      -6.7     16.051     19.418
REMARK  5 active torsions:
REMARK  status: ('A' for Active; 'I' for Inactive)
REMARK    1  A    between atoms: C_2  and  N_3 
REMARK       I    between atoms: N_3  and  C_4 
REMARK       I    between atoms: C_4  and  N_5 
REMARK    2  A    between atoms: C_7  and  C_8 
REMARK    3  A    between atoms: C_13  and  N_14 
REMARK       I    between atoms: N_14  and  C_15 
REMARK    4  A    between atoms: C_15  and  C_16 
REMARK    5  A    between atoms: C_19  and  O_20 
ROOT
HETATM    1  C   UNL     1     -35.329  40.177 -54.375  1.00  0.00     0.088 A 
HETATM    2  N   UNL     1     -34.006  40.384 -54.412  1.00  0.00    -0.177 NA
HETATM    3  N   UNL     1     -33.881  41.612 -54.927  1.00  0.00    -0.287 N 
HETATM    4  H   UNL     1     -32.947  41.975 -55.088  1.00  0.00     0.188 HD
HETATM    5  C   UNL     1     -35.076  42.223 -55.178  1.00  0.00     0.141 A 
HETATM    6  C   UNL     1     -36.054  41.342 -54.793  1.00  0.00     0.079 A 
ENDROOT
BRANCH   1   7
HETATM    7  C   UNL     1     -35.905  38.835 -53.974  1.00  0.00     0.060 C 
HETATM    8  C   UNL     1     -35.402  38.302 -52.621  1.00  0.00     0.138 C 
HETATM    9  N   UNL     1     -34.064  37.691 -52.667  1.00  0.00    -0.334 N 
HETATM   10  C   UNL     1     -33.245  37.583 -51.546  1.00  0.00     0.318 C 
HETATM   11  C   UNL     1     -33.839  36.727 -53.738  1.00  0.00     0.127 C 
HETATM   12  N   UNL     1     -33.503  38.517 -50.574  1.00  0.00    -0.339 N 
HETATM   13  O   UNL     1     -32.375  36.725 -51.435  1.00  0.00    -0.247 OA
HETATM   14  H   UNL     1     -33.744  39.413 -50.976  1.00  0.00     0.164 HD
HETATM   15  C   UNL     1     -34.260  37.265 -55.100  1.00  0.00     0.021 C 
HETATM   16  C   UNL     1     -35.698  37.779 -55.072  1.00  0.00     0.014 C 
BRANCH  12  17
HETATM   17  C   UNL     1     -32.789  38.585 -49.306  1.00  0.00     0.078 C 
HETATM   18  C   UNL     1     -33.691  38.247 -48.123  1.00  0.00     0.032 C 
HETATM   19  C   UNL     1     -32.059  39.912 -49.097  1.00  0.00     0.032 C 
ENDBRANCH  12  17
ENDBRANCH   1   7
BRANCH   6  20
HETATM   20  N   UNL     1     -37.430  41.463 -54.810  1.00  0.00    -0.320 N 
HETATM   21  C   UNL     1     -38.373  41.240 -55.780  1.00  0.00     0.256 C 
HETATM   22  O   UNL     1     -39.566  41.360 -55.501  1.00  0.00    -0.267 OA
HETATM   23  H   UNL     1     -37.866  41.725 -53.935  1.00  0.00     0.169 HD
BRANCH  21  24
HETATM   24  C   UNL     1     -38.027  40.821 -57.144  1.00  0.00     0.032 A 
HETATM   25  C   UNL     1     -37.999  39.471 -57.499  1.00  0.00     0.020 A 
HETATM   26  C   UNL     1     -37.595  39.113 -58.788  1.00  0.00     0.038 A 
HETATM   27  C   UNL     1     -37.184  40.088 -59.706  1.00  0.00     0.068 A 
HETATM   28  C   UNL     1     -37.187  41.433 -59.330  1.00  0.00     0.038 A 
HETATM   29  C   UNL     1     -37.602  41.799 -58.047  1.00  0.00     0.020 A 
BRANCH  27  30
HETATM   30  O   UNL     1     -36.804  39.601 -60.928  1.00  0.00    -0.356 OA
HETATM   31  C   UNL     1     -35.883  38.516 -60.924  1.00  0.00     0.210 C 
ENDBRANCH  27  30
ENDBRANCH  21  24
ENDBRANCH   6  20
TORSDOF 5
ENDMDL
