MODEL 1
REMARK VINA RESULT:      -8.8      0.000      0.000
REMARK  3 active torsions:
REMARK  status: ('A' for Active; 'I' for Inactive)
REMARK    1  A    between atoms: C_6  and  O_7 
REMARK    2  A    between atoms: O_7  and  C_8 
REMARK       I    between atoms: N_10  and  C_11 
REMARK       I    between atoms: C_11  and  N_12 
REMARK    3  A    between atoms: N_12  and  C_13 
ROOT
HETATM    1  C   UNL     1     -41.107  54.078 -50.779  1.00  0.00     0.148 C 
HETATM    2  C   UNL     1     -42.328  53.936 -51.700  1.00  0.00     0.160 C 
HETATM    3  N   UNL     1     -42.328  55.154 -52.505  1.00  0.00    -0.331 N 
HETATM    4  C   UNL     1     -43.008  55.193 -53.708  1.00  0.00     0.323 C 
HETATM    5  N   UNL     1     -42.760  56.322 -54.455  1.00  0.00    -0.309 N 
HETATM    6  O   UNL     1     -43.744  54.267 -54.041  1.00  0.00    -0.247 OA
HETATM    7  C   UNL     1     -41.412  56.134 -51.949  1.00  0.00     0.130 C 
HETATM    8  C   UNL     1     -41.052  55.593 -50.572  1.00  0.00     0.054 C 
HETATM    9  H   UNL     1     -42.143  56.999 -54.040  1.00  0.00     0.170 HD
ENDROOT
BRANCH   5  10
HETATM   10  C   UNL     1     -43.209  56.628 -55.757  1.00  0.00     0.037 A 
HETATM   11  C   UNL     1     -42.783  55.955 -56.908  1.00  0.00     0.043 A 
HETATM   12  C   UNL     1     -43.267  56.354 -58.173  1.00  0.00    -0.006 A 
HETATM   13  C   UNL     1     -44.168  57.415 -58.249  1.00  0.00     0.042 A 
HETATM   14  C   UNL     1     -43.040  55.903 -59.503  1.00  0.00     0.030 A 
HETATM   15  N   UNL     1     -44.469  57.598 -59.580  1.00  0.00    -0.365 N 
HETATM   16  C   UNL     1     -44.616  58.101 -57.118  1.00  0.00     0.033 A 
HETATM   17  H   UNL     1     -45.097  58.305 -59.933  1.00  0.00     0.165 HD
HETATM   18  C   UNL     1     -43.791  56.688 -60.347  1.00  0.00     0.089 A 
HETATM   19  C   UNL     1     -44.120  57.686 -55.876  1.00  0.00     0.032 A 
ENDBRANCH   5  10
BRANCH   1  20
HETATM   20  O   UNL     1     -39.962  53.611 -51.505  1.00  0.00    -0.344 OA
BRANCH  20  21
HETATM   21  C   UNL     1     -39.863  52.288 -51.822  1.00  0.00     0.070 A 
HETATM   22  C   UNL     1     -39.780  51.749 -53.104  1.00  0.00     0.060 A 
HETATM   23  C   UNL     1     -39.709  50.363 -53.267  1.00  0.00     0.036 A 
HETATM   24  C   UNL     1     -39.712  49.511 -52.164  1.00  0.00     0.024 A 
HETATM   25 CL   UNL     1     -39.623  49.698 -54.853  1.00  0.00    -0.084 Cl
HETATM   26  C   UNL     1     -39.784  50.048 -50.882  1.00  0.00     0.004 A 
HETATM   27  C   UNL     1     -39.859  51.432 -50.716  1.00  0.00     0.037 A 
ENDBRANCH  20  21
ENDBRANCH   1  20
TORSDOF 3
ENDMDL
MODEL 2
REMARK VINA RESULT:      -8.6      0.894      1.491
REMARK  3 active torsions:
REMARK  status: ('A' for Active; 'I' for Inactive)
REMARK    1  A    between atoms: C_6  and  O_7 
REMARK    2  A    between atoms: O_7  and  C_8 
REMARK       I    between atoms: N_10  and  C_11 
REMARK       I    between atoms: C_11  and  N_12 
REMARK    3  A    between atoms: N_12  and  C_13 
ROOT
HETATM    1  C   UNL     1     -41.420  54.406 -51.359  1.00  0.00     0.148 C 
HETATM    2  C   UNL     1     -42.610  54.198 -52.309  1.00  0.00     0.160 C 
HETATM    3  N   UNL     1     -42.606  55.377 -53.171  1.00  0.00    -0.331 N 
HETATM    4  C   UNL     1     -43.249  55.346 -54.395  1.00  0.00     0.323 C 
HETATM    5  N   UNL     1     -42.997  56.443 -55.187  1.00  0.00    -0.309 N 
HETATM    6  O   UNL     1     -43.958  54.392 -54.705  1.00  0.00    -0.247 OA
HETATM    7  C   UNL     1     -41.725  56.399 -52.635  1.00  0.00     0.130 C 
HETATM    8  C   UNL     1     -41.398  55.931 -51.224  1.00  0.00     0.054 C 
HETATM    9  H   UNL     1     -42.405  57.150 -54.787  1.00  0.00     0.170 HD
ENDROOT
BRANCH   5  10
HETATM   10  C   UNL     1     -43.411  56.679 -56.515  1.00  0.00     0.037 A 
HETATM   11  C   UNL     1     -44.326  57.672 -56.883  1.00  0.00     0.043 A 
HETATM   12  C   UNL     1     -44.703  57.811 -58.237  1.00  0.00    -0.006 A 
HETATM   13  C   UNL     1     -44.149  56.954 -59.185  1.00  0.00     0.042 A 
HETATM   14  C   UNL     1     -45.587  58.684 -58.930  1.00  0.00     0.030 A 
HETATM   15  N   UNL     1     -44.684  57.297 -60.406  1.00  0.00    -0.365 N 
HETATM   16  C   UNL     1     -43.228  55.958 -58.849  1.00  0.00     0.033 A 
HETATM   17  H   UNL     1     -44.464  56.837 -61.278  1.00  0.00     0.165 HD
HETATM   18  C   UNL     1     -45.556  58.344 -60.262  1.00  0.00     0.089 A 
HETATM   19  C   UNL     1     -42.872  55.840 -57.500  1.00  0.00     0.032 A 
ENDBRANCH   5  10
BRANCH   1  20
HETATM   20  O   UNL     1     -40.246  53.927 -52.027  1.00  0.00    -0.344 OA
BRANCH  20  21
HETATM   21  C   UNL     1     -40.043  52.583 -52.145  1.00  0.00     0.070 A 
HETATM   22  C   UNL     1     -39.881  51.873 -53.332  1.00  0.00     0.060 A 
HETATM   23  C   UNL     1     -39.705  50.486 -53.288  1.00  0.00     0.036 A 
HETATM   24  C   UNL     1     -39.684  49.806 -52.072  1.00  0.00     0.024 A 
HETATM   25 CL   UNL     1     -39.521  49.607 -54.757  1.00  0.00    -0.084 Cl
HETATM   26  C   UNL     1     -39.835  50.516 -50.884  1.00  0.00     0.004 A 
HETATM   27  C   UNL     1     -40.014  51.899 -50.925  1.00  0.00     0.037 A 
ENDBRANCH  20  21
ENDBRANCH   1  20
TORSDOF 3
ENDMDL
MODEL 3
REMARK VINA RESULT:      -8.1      2.613      3.353
REMARK  3 active torsions:
REMARK  status: ('A' for Active; 'I' for Inactive)
REMARK    1  A    between atoms: C_6  and  O_7 
REMARK    2  A    between atoms: O_7  and  C_8 
REMARK       I    between atoms: N_10  and  C_11 
REMARK       I    between atoms: C_11  and  N_12 
REMARK    3  A    between atoms: N_12  and  C_13 
ROOT
HETATM    1  C   UNL     1     -42.598  54.713 -53.441  1.00  0.00     0.148 C 
HETATM    2  C   UNL     1     -43.105  54.753 -54.891  1.00  0.00     0.160 C 
HETATM    3  N   UNL     1     -42.946  56.145 -55.302  1.00  0.00    -0.331 N 
HETATM    4  C   UNL     1     -42.896  56.474 -56.644  1.00  0.00     0.323 C 
HETATM    5  N   UNL     1     -42.543  57.782 -56.887  1.00  0.00    -0.309 N 
HETATM    6  O   UNL     1     -43.139  55.630 -57.503  1.00  0.00    -0.247 OA
HETATM    7  C   UNL     1     -42.680  56.990 -54.150  1.00  0.00     0.130 C 
HETATM    8  C   UNL     1     -42.979  56.110 -52.945  1.00  0.00     0.054 C 
HETATM    9  H   UNL     1     -42.388  58.355 -56.076  1.00  0.00     0.170 HD
ENDROOT
BRANCH   5  10
HETATM   10  C   UNL     1     -42.307  58.409 -58.128  1.00  0.00     0.037 A 
HETATM   11  C   UNL     1     -42.099  59.785 -58.280  1.00  0.00     0.043 A 
HETATM   12  C   UNL     1     -41.901  60.326 -59.569  1.00  0.00    -0.006 A 
HETATM   13  C   UNL     1     -41.913  59.472 -60.670  1.00  0.00     0.042 A 
HETATM   14  C   UNL     1     -41.676  61.641 -60.063  1.00  0.00     0.030 A 
HETATM   15  N   UNL     1     -41.707  60.248 -61.789  1.00  0.00    -0.365 N 
HETATM   16  C   UNL     1     -42.111  58.095 -60.549  1.00  0.00     0.033 A 
HETATM   17  H   UNL     1     -41.671  59.893 -62.734  1.00  0.00     0.165 HD
HETATM   18  C   UNL     1     -41.562  61.563 -61.432  1.00  0.00     0.089 A 
HETATM   19  C   UNL     1     -42.306  57.584 -59.260  1.00  0.00     0.032 A 
ENDBRANCH   5  10
BRANCH   1  20
HETATM   20  O   UNL     1     -41.175  54.549 -53.487  1.00  0.00    -0.344 OA
BRANCH  20  21
HETATM   21  C   UNL     1     -40.629  53.339 -53.170  1.00  0.00     0.070 A 
HETATM   22  C   UNL     1     -40.376  52.291 -54.052  1.00  0.00     0.060 A 
HETATM   23  C   UNL     1     -39.832  51.097 -53.567  1.00  0.00     0.036 A 
HETATM   24  C   UNL     1     -39.534  50.944 -52.214  1.00  0.00     0.024 A 
HETATM   25 CL   UNL     1     -39.536  49.796 -54.655  1.00  0.00    -0.084 Cl
HETATM   26  C   UNL     1     -39.777  51.995 -51.334  1.00  0.00     0.004 A 
HETATM   27  C   UNL     1     -40.321  53.186 -51.814  1.00  0.00     0.037 A 
ENDBRANCH  20  21
ENDBRANCH   1  20
TORSDOF 3
ENDMDL
MODEL 4
REMARK VINA RESULT:      -7.8      4.750      8.613
REMARK  3 active torsions:
REMARK  status: ('A' for Active; 'I' for Inactive)
REMARK    1  A    between atoms: C_6  and  O_7 
REMARK    2  A    between atoms: O_7  and  C_8 
REMARK       I    between atoms: N_10  and  C_11 
REMARK       I    between atoms: C_11  and  N_12 
REMARK    3  A    between atoms: N_12  and  C_13 
ROOT
HETATM    1  C   UNL     1     -43.280  59.335 -53.433  1.00  0.00     0.148 C 
HETATM    2  C   UNL     1     -43.629  57.865 -53.718  1.00  0.00     0.160 C 
HETATM    3  N   UNL     1     -42.341  57.178 -53.745  1.00  0.00    -0.331 N 
HETATM    4  C   UNL     1     -42.278  55.809 -53.555  1.00  0.00     0.323 C 
HETATM    5  N   UNL     1     -40.999  55.324 -53.403  1.00  0.00    -0.309 N 
HETATM    6  O   UNL     1     -43.305  55.136 -53.517  1.00  0.00    -0.247 OA
HETATM    7  C   UNL     1     -41.251  58.136 -53.805  1.00  0.00     0.130 C 
HETATM    8  C   UNL     1     -41.920  59.467 -54.121  1.00  0.00     0.054 C 
HETATM    9  H   UNL     1     -40.259  56.000 -53.473  1.00  0.00     0.170 HD
ENDROOT
BRANCH   5  10
HETATM   10  C   UNL     1     -40.592  54.008 -53.099  1.00  0.00     0.037 A 
HETATM   11  C   UNL     1     -40.459  52.992 -54.053  1.00  0.00     0.043 A 
HETATM   12  C   UNL     1     -40.075  51.695 -53.647  1.00  0.00    -0.006 A 
HETATM   13  C   UNL     1     -39.830  51.454 -52.297  1.00  0.00     0.042 A 
HETATM   14  C   UNL     1     -39.860  50.469 -54.336  1.00  0.00     0.030 A 
HETATM   15  N   UNL     1     -39.485  50.126 -52.177  1.00  0.00    -0.365 N 
HETATM   16  C   UNL     1     -39.948  52.448 -51.323  1.00  0.00     0.033 A 
HETATM   17  H   UNL     1     -39.256  49.670 -51.305  1.00  0.00     0.165 HD
HETATM   18  C   UNL     1     -39.499  49.522 -53.406  1.00  0.00     0.089 A 
HETATM   19  C   UNL     1     -40.332  53.725 -51.751  1.00  0.00     0.032 A 
ENDBRANCH   5  10
BRANCH   1  20
HETATM   20  O   UNL     1     -43.160  59.481 -52.012  1.00  0.00    -0.344 OA
BRANCH  20  21
HETATM   21  C   UNL     1     -44.065  60.247 -51.337  1.00  0.00     0.070 A 
HETATM   22  C   UNL     1     -43.906  60.782 -50.061  1.00  0.00     0.060 A 
HETATM   23  C   UNL     1     -44.942  61.530 -49.493  1.00  0.00     0.036 A 
HETATM   24  C   UNL     1     -46.128  61.754 -50.188  1.00  0.00     0.024 A 
HETATM   25 CL   UNL     1     -44.751  62.178 -47.908  1.00  0.00    -0.084 Cl
HETATM   26  C   UNL     1     -46.284  61.228 -51.468  1.00  0.00     0.004 A 
HETATM   27  C   UNL     1     -45.254  60.479 -52.037  1.00  0.00     0.037 A 
ENDBRANCH  20  21
ENDBRANCH   1  20
TORSDOF 3
ENDMDL
MODEL 5
REMARK VINA RESULT:      -7.7      4.026      5.743
REMARK  3 active torsions:
REMARK  status: ('A' for Active; 'I' for Inactive)
REMARK    1  A    between atoms: C_6  and  O_7 
REMARK    2  A    between atoms: O_7  and  C_8 
REMARK       I    between atoms: N_10  and  C_11 
REMARK       I    between atoms: C_11  and  N_12 
REMARK    3  A    between atoms: N_12  and  C_13 
ROOT
HETATM    1  C   UNL     1     -41.443  54.847 -54.537  1.00  0.00     0.148 C 
HETATM    2  C   UNL     1     -41.535  56.380 -54.579  1.00  0.00     0.160 C 
HETATM    3  N   UNL     1     -42.869  56.686 -54.071  1.00  0.00    -0.331 N 
HETATM    4  C   UNL     1     -43.153  57.944 -53.572  1.00  0.00     0.323 C 
HETATM    5  N   UNL     1     -44.375  58.034 -52.945  1.00  0.00    -0.309 N 
HETATM    6  O   UNL     1     -42.344  58.860 -53.691  1.00  0.00    -0.247 OA
HETATM    7  C   UNL     1     -43.683  55.483 -54.016  1.00  0.00     0.130 C 
HETATM    8  C   UNL     1     -42.895  54.445 -54.803  1.00  0.00     0.054 C 
HETATM    9  H   UNL     1     -44.932  57.197 -52.940  1.00  0.00     0.170 HD
ENDROOT
BRANCH   5  10
HETATM   10  C   UNL     1     -44.924  59.133 -52.250  1.00  0.00     0.037 A 
HETATM   11  C   UNL     1     -44.758  59.349 -50.877  1.00  0.00     0.043 A 
HETATM   12  C   UNL     1     -45.373  60.463 -50.264  1.00  0.00    -0.006 A 
HETATM   13  C   UNL     1     -46.132  61.331 -51.045  1.00  0.00     0.042 A 
HETATM   14  C   UNL     1     -45.412  60.958 -48.931  1.00  0.00     0.030 A 
HETATM   15  N   UNL     1     -46.617  62.312 -50.209  1.00  0.00    -0.365 N 
HETATM   16  C   UNL     1     -46.310  61.145 -52.418  1.00  0.00     0.033 A 
HETATM   17  H   UNL     1     -47.206  63.078 -50.505  1.00  0.00     0.165 HD
HETATM   18  C   UNL     1     -46.186  62.096 -48.927  1.00  0.00     0.089 A 
HETATM   19  C   UNL     1     -45.691  60.032 -53.001  1.00  0.00     0.032 A 
ENDBRANCH   5  10
BRANCH   1  20
HETATM   20  O   UNL     1     -41.035  54.476 -53.213  1.00  0.00    -0.344 OA
BRANCH  20  21
HETATM   21  C   UNL     1     -40.534  53.227 -52.991  1.00  0.00     0.070 A 
HETATM   22  C   UNL     1     -40.316  52.241 -53.951  1.00  0.00     0.060 A 
HETATM   23  C   UNL     1     -39.817  50.995 -53.559  1.00  0.00     0.036 A 
HETATM   24  C   UNL     1     -39.529  50.728 -52.222  1.00  0.00     0.024 A 
HETATM   25 CL   UNL     1     -39.563  49.772 -54.744  1.00  0.00    -0.084 Cl
HETATM   26  C   UNL     1     -39.737  51.716 -51.264  1.00  0.00     0.004 A 
HETATM   27  C   UNL     1     -40.237  52.959 -51.650  1.00  0.00     0.037 A 
ENDBRANCH  20  21
ENDBRANCH   1  20
TORSDOF 3
ENDMDL
MODEL 6
REMARK VINA RESULT:      -7.7      2.605      2.989
REMARK  3 active torsions:
REMARK  status: ('A' for Active; 'I' for Inactive)
REMARK    1  A    between atoms: C_6  and  O_7 
REMARK    2  A    between atoms: O_7  and  C_8 
REMARK       I    between atoms: N_10  and  C_11 
REMARK       I    between atoms: C_11  and  N_12 
REMARK    3  A    between atoms: N_12  and  C_13 
ROOT
HETATM    1  C   UNL     1     -41.909  55.233 -52.828  1.00  0.00     0.148 C 
HETATM    2  C   UNL     1     -42.887  55.679 -53.926  1.00  0.00     0.160 C 
HETATM    3  N   UNL     1     -42.427  57.009 -54.315  1.00  0.00    -0.331 N 
HETATM    4  C   UNL     1     -42.787  57.540 -55.540  1.00  0.00     0.323 C 
HETATM    5  N   UNL     1     -42.125  58.702 -55.863  1.00  0.00    -0.309 N 
HETATM    6  O   UNL     1     -43.618  56.974 -56.246  1.00  0.00    -0.247 OA
HETATM    7  C   UNL     1     -41.463  57.518 -53.355  1.00  0.00     0.130 C 
HETATM    8  C   UNL     1     -41.560  56.569 -52.168  1.00  0.00     0.054 C 
HETATM    9  H   UNL     1     -41.482  59.049 -55.173  1.00  0.00     0.170 HD
ENDROOT
BRANCH   5  10
HETATM   10  C   UNL     1     -42.184  59.439 -57.065  1.00  0.00     0.037 A 
HETATM   11  C   UNL     1     -42.019  58.875 -58.335  1.00  0.00     0.043 A 
HETATM   12  C   UNL     1     -42.064  59.700 -59.480  1.00  0.00    -0.006 A 
HETATM   13  C   UNL     1     -42.277  61.068 -59.320  1.00  0.00     0.042 A 
HETATM   14  C   UNL     1     -41.932  59.460 -60.876  1.00  0.00     0.030 A 
HETATM   15  N   UNL     1     -42.269  61.631 -60.576  1.00  0.00    -0.365 N 
HETATM   16  C   UNL     1     -42.452  61.659 -58.066  1.00  0.00     0.033 A 
HETATM   17  H   UNL     1     -42.396  62.615 -60.764  1.00  0.00     0.165 HD
HETATM   18  C   UNL     1     -42.061  60.666 -61.525  1.00  0.00     0.089 A 
HETATM   19  C   UNL     1     -42.401  60.818 -56.947  1.00  0.00     0.032 A 
ENDBRANCH   5  10
BRANCH   1  20
HETATM   20  O   UNL     1     -40.766  54.660 -53.476  1.00  0.00    -0.344 OA
BRANCH  20  21
HETATM   21  C   UNL     1     -40.376  53.393 -53.152  1.00  0.00     0.070 A 
HETATM   22  C   UNL     1     -40.186  52.335 -54.037  1.00  0.00     0.060 A 
HETATM   23  C   UNL     1     -39.807  51.083 -53.544  1.00  0.00     0.036 A 
HETATM   24  C   UNL     1     -39.611  50.880 -52.180  1.00  0.00     0.024 A 
HETATM   25 CL   UNL     1     -39.589  49.771 -54.638  1.00  0.00    -0.084 Cl
HETATM   26  C   UNL     1     -39.791  51.939 -51.295  1.00  0.00     0.004 A 
HETATM   27  C   UNL     1     -40.171  53.190 -51.783  1.00  0.00     0.037 A 
ENDBRANCH  20  21
ENDBRANCH   1  20
TORSDOF 3
ENDMDL
MODEL 7
REMARK VINA RESULT:      -7.5     14.770     16.413
REMARK  3 active torsions:
REMARK  status: ('A' for Active; 'I' for Inactive)
REMARK    1  A    between atoms: C_6  and  O_7 
REMARK    2  A    between atoms: O_7  and  C_8 
REMARK       I    between atoms: N_10  and  C_11 
REMARK       I    between atoms: C_11  and  N_12 
REMARK    3  A    between atoms: N_12  and  C_13 
ROOT
HETATM    1  C   UNL     1     -34.717  41.880 -55.412  1.00  0.00     0.148 C 
HETATM    2  C   UNL     1     -35.479  42.297 -56.680  1.00  0.00     0.160 C 
HETATM    3  N   UNL     1     -35.526  41.088 -57.497  1.00  0.00    -0.331 N 
HETATM    4  C   UNL     1     -36.474  40.959 -58.495  1.00  0.00     0.323 C 
HETATM    5  N   UNL     1     -36.537  39.700 -59.048  1.00  0.00    -0.309 N 
HETATM    6  O   UNL     1     -37.184  41.912 -58.810  1.00  0.00    -0.247 OA
HETATM    7  C   UNL     1     -34.612  40.084 -56.979  1.00  0.00     0.130 C 
HETATM    8  C   UNL     1     -33.754  40.827 -55.964  1.00  0.00     0.054 C 
HETATM    9  H   UNL     1     -35.880  39.029 -58.692  1.00  0.00     0.170 HD
ENDROOT
BRANCH   5  10
HETATM   10  C   UNL     1     -37.448  39.209 -60.007  1.00  0.00     0.037 A 
HETATM   11  C   UNL     1     -38.753  38.800 -59.706  1.00  0.00     0.043 A 
HETATM   12  C   UNL     1     -39.582  38.293 -60.731  1.00  0.00    -0.006 A 
HETATM   13  C   UNL     1     -39.082  38.214 -62.029  1.00  0.00     0.042 A 
HETATM   14  C   UNL     1     -40.916  37.799 -60.767  1.00  0.00     0.030 A 
HETATM   15  N   UNL     1     -40.079  37.685 -62.817  1.00  0.00    -0.365 N 
HETATM   16  C   UNL     1     -37.787  38.620 -62.360  1.00  0.00     0.033 A 
HETATM   17  H   UNL     1     -39.994  37.510 -63.809  1.00  0.00     0.165 HD
HETATM   18  C   UNL     1     -41.193  37.431 -62.063  1.00  0.00     0.089 A 
HETATM   19  C   UNL     1     -36.985  39.118 -61.326  1.00  0.00     0.032 A 
ENDBRANCH   5  10
BRANCH   1  20
HETATM   20  O   UNL     1     -35.666  41.295 -54.511  1.00  0.00    -0.344 OA
BRANCH  20  21
HETATM   21  C   UNL     1     -35.270  40.946 -53.253  1.00  0.00     0.070 A 
HETATM   22  C   UNL     1     -35.110  39.651 -52.766  1.00  0.00     0.060 A 
HETATM   23  C   UNL     1     -34.720  39.457 -51.438  1.00  0.00     0.036 A 
HETATM   24  C   UNL     1     -34.483  40.541 -50.595  1.00  0.00     0.024 A 
HETATM   25 CL   UNL     1     -34.538  37.855 -50.832  1.00  0.00    -0.084 Cl
HETATM   26  C   UNL     1     -34.633  41.836 -51.083  1.00  0.00     0.004 A 
HETATM   27  C   UNL     1     -35.025  42.034 -52.408  1.00  0.00     0.037 A 
ENDBRANCH  20  21
ENDBRANCH   1  20
TORSDOF 3
ENDMDL
MODEL 8
REMARK VINA RESULT:      -7.4      5.785      8.077
REMARK  3 active torsions:
REMARK  status: ('A' for Active; 'I' for Inactive)
REMARK    1  A    between atoms: C_6  and  O_7 
REMARK    2  A    between atoms: O_7  and  C_8 
REMARK       I    between atoms: N_10  and  C_11 
REMARK       I    between atoms: C_11  and  N_12 
REMARK    3  A    between atoms: N_12  and  C_13 
ROOT
HETATM    1  C   UNL     1     -40.890  57.958 -53.647  1.00  0.00     0.148 C 
HETATM    2  C   UNL     1     -40.565  58.835 -52.427  1.00  0.00     0.160 C 
HETATM    3  N   UNL     1     -41.726  59.706 -52.277  1.00  0.00    -0.331 N 
HETATM    4  C   UNL     1     -41.982  60.323 -51.066  1.00  0.00     0.323 C 
HETATM    5  N   UNL     1     -43.207  60.947 -51.004  1.00  0.00    -0.309 N 
HETATM    6  O   UNL     1     -41.160  60.274 -50.154  1.00  0.00    -0.247 OA
HETATM    7  C   UNL     1     -42.570  59.642 -53.458  1.00  0.00     0.130 C 
HETATM    8  C   UNL     1     -41.729  58.914 -54.498  1.00  0.00     0.054 C 
HETATM    9  H   UNL     1     -43.763  60.912 -51.840  1.00  0.00     0.170 HD
ENDROOT
BRANCH   5  10
HETATM   10  C   UNL     1     -43.813  61.578 -49.897  1.00  0.00     0.037 A 
HETATM   11  C   UNL     1     -44.576  60.905 -48.936  1.00  0.00     0.043 A 
HETATM   12  C   UNL     1     -45.170  61.629 -47.879  1.00  0.00    -0.006 A 
HETATM   13  C   UNL     1     -44.978  63.008 -47.812  1.00  0.00     0.042 A 
HETATM   14  C   UNL     1     -45.987  61.267 -46.772  1.00  0.00     0.030 A 
HETATM   15  N   UNL     1     -45.661  63.460 -46.705  1.00  0.00    -0.365 N 
HETATM   16  C   UNL     1     -44.216  63.706 -48.752  1.00  0.00     0.033 A 
HETATM   17  H   UNL     1     -45.701  64.425 -46.411  1.00  0.00     0.165 HD
HETATM   18  C   UNL     1     -46.275  62.414 -46.069  1.00  0.00     0.089 A 
HETATM   19  C   UNL     1     -43.640  62.965 -49.791  1.00  0.00     0.032 A 
ENDBRANCH   5  10
BRANCH   1  20
HETATM   20  O   UNL     1     -41.675  56.851 -53.184  1.00  0.00    -0.344 OA
BRANCH  20  21
HETATM   21  C   UNL     1     -41.213  55.580 -53.365  1.00  0.00     0.070 A 
HETATM   22  C   UNL     1     -40.971  54.639 -52.367  1.00  0.00     0.060 A 
HETATM   23  C   UNL     1     -40.471  53.379 -52.713  1.00  0.00     0.036 A 
HETATM   24  C   UNL     1     -40.220  53.050 -54.043  1.00  0.00     0.024 A 
HETATM   25 CL   UNL     1     -40.156  52.223 -51.476  1.00  0.00    -0.084 Cl
HETATM   26  C   UNL     1     -40.472  53.985 -55.042  1.00  0.00     0.004 A 
HETATM   27  C   UNL     1     -40.967  55.244 -54.701  1.00  0.00     0.037 A 
ENDBRANCH  20  21
ENDBRANCH   1  20
TORSDOF 3
ENDMDL
MODEL 9
REMARK VINA RESULT:      -7.4      4.017      5.142
REMARK  3 active torsions:
REMARK  status: ('A' for Active; 'I' for Inactive)
REMARK    1  A    between atoms: C_6  and  O_7 
REMARK    2  A    between atoms: O_7  and  C_8 
REMARK       I    between atoms: N_10  and  C_11 
REMARK       I    between atoms: C_11  and  N_12 
REMARK    3  A    between atoms: N_12  and  C_13 
ROOT
HETATM    1  C   UNL     1     -42.906  55.322 -55.396  1.00  0.00     0.148 C 
HETATM    2  C   UNL     1     -42.859  55.694 -56.887  1.00  0.00     0.160 C 
HETATM    3  N   UNL     1     -42.895  57.154 -56.906  1.00  0.00    -0.331 N 
HETATM    4  C   UNL     1     -42.451  57.847 -58.017  1.00  0.00     0.323 C 
HETATM    5  N   UNL     1     -42.350  59.206 -57.825  1.00  0.00    -0.309 N 
HETATM    6  O   UNL     1     -42.169  57.251 -59.053  1.00  0.00    -0.247 OA
HETATM    7  C   UNL     1     -43.261  57.673 -55.599  1.00  0.00     0.130 C 
HETATM    8  C   UNL     1     -43.754  56.460 -54.822  1.00  0.00     0.054 C 
HETATM    9  H   UNL     1     -42.632  59.546 -56.922  1.00  0.00     0.170 HD
ENDROOT
BRANCH   5  10
HETATM   10  C   UNL     1     -41.843  60.180 -58.710  1.00  0.00     0.037 A 
HETATM   11  C   UNL     1     -40.984  61.215 -58.323  1.00  0.00     0.043 A 
HETATM   12  C   UNL     1     -40.553  62.162 -59.277  1.00  0.00    -0.006 A 
HETATM   13  C   UNL     1     -40.992  62.044 -60.594  1.00  0.00     0.042 A 
HETATM   14  C   UNL     1     -39.710  63.307 -59.220  1.00  0.00     0.030 A 
HETATM   15  N   UNL     1     -40.436  63.085 -61.303  1.00  0.00    -0.365 N 
HETATM   16  C   UNL     1     -41.844  61.019 -61.012  1.00  0.00     0.033 A 
HETATM   17  H   UNL     1     -40.587  63.253 -62.288  1.00  0.00     0.165 HD
HETATM   18  C   UNL     1     -39.658  63.855 -60.480  1.00  0.00     0.089 A 
HETATM   19  C   UNL     1     -42.258  60.094 -60.046  1.00  0.00     0.032 A 
ENDBRANCH   5  10
BRANCH   1  20
HETATM   20  O   UNL     1     -41.563  55.373 -54.897  1.00  0.00    -0.344 OA
BRANCH  20  21
HETATM   21  C   UNL     1     -41.084  54.333 -54.156  1.00  0.00     0.070 A 
HETATM   22  C   UNL     1     -40.683  53.089 -54.638  1.00  0.00     0.060 A 
HETATM   23  C   UNL     1     -40.235  52.114 -53.742  1.00  0.00     0.036 A 
HETATM   24  C   UNL     1     -40.178  52.370 -52.373  1.00  0.00     0.024 A 
HETATM   25 CL   UNL     1     -39.756  50.570 -54.337  1.00  0.00    -0.084 Cl
HETATM   26  C   UNL     1     -40.568  53.617 -51.891  1.00  0.00     0.004 A 
HETATM   27  C   UNL     1     -41.018  54.592 -52.782  1.00  0.00     0.037 A 
ENDBRANCH  20  21
ENDBRANCH   1  20
TORSDOF 3
ENDMDL
MODEL 10
REMARK VINA RESULT:      -7.2      4.862      6.850
REMARK  3 active torsions:
REMARK  status: ('A' for Active; 'I' for Inactive)
REMARK    1  A    between atoms: C_6  and  O_7 
REMARK    2  A    between atoms: O_7  and  C_8 
REMARK       I    between atoms: N_10  and  C_11 
REMARK       I    between atoms: C_11  and  N_12 
REMARK    3  A    between atoms: N_12  and  C_13 
ROOT
HETATM    1  C   UNL     1     -41.537  56.121 -54.424  1.00  0.00     0.148 C 
HETATM    2  C   UNL     1     -40.930  57.397 -53.819  1.00  0.00     0.160 C 
HETATM    3  N   UNL     1     -42.075  58.264 -53.559  1.00  0.00    -0.331 N 
HETATM    4  C   UNL     1     -41.972  59.299 -52.648  1.00  0.00     0.323 C 
HETATM    5  N   UNL     1     -43.172  59.904 -52.351  1.00  0.00    -0.309 N 
HETATM    6  O   UNL     1     -40.884  59.600 -52.165  1.00  0.00    -0.247 OA
HETATM    7  C   UNL     1     -43.263  57.755 -54.223  1.00  0.00     0.130 C 
HETATM    8  C   UNL     1     -42.748  56.681 -55.172  1.00  0.00     0.054 C 
HETATM    9  H   UNL     1     -43.977  59.553 -52.840  1.00  0.00     0.170 HD
ENDROOT
BRANCH   5  10
HETATM   10  C   UNL     1     -43.432  60.914 -51.400  1.00  0.00     0.037 A 
HETATM   11  C   UNL     1     -43.993  60.674 -50.141  1.00  0.00     0.043 A 
HETATM   12  C   UNL     1     -44.245  61.756 -49.268  1.00  0.00    -0.006 A 
HETATM   13  C   UNL     1     -43.924  63.047 -49.681  1.00  0.00     0.042 A 
HETATM   14  C   UNL     1     -44.795  61.861 -47.960  1.00  0.00     0.030 A 
HETATM   15  N   UNL     1     -44.273  63.900 -48.658  1.00  0.00    -0.365 N 
HETATM   16  C   UNL     1     -43.357  63.317 -50.929  1.00  0.00     0.033 A 
HETATM   17  H   UNL     1     -44.156  64.903 -48.683  1.00  0.00     0.165 HD
HETATM   18  C   UNL     1     -44.802  63.191 -47.612  1.00  0.00     0.089 A 
HETATM   19  C   UNL     1     -43.118  62.227 -51.776  1.00  0.00     0.032 A 
ENDBRANCH   5  10
BRANCH   1  20
HETATM   20  O   UNL     1     -41.941  55.279 -53.336  1.00  0.00    -0.344 OA
BRANCH  20  21
HETATM   21  C   UNL     1     -41.203  54.172 -53.035  1.00  0.00     0.070 A 
HETATM   22  C   UNL     1     -40.954  53.090 -53.876  1.00  0.00     0.060 A 
HETATM   23  C   UNL     1     -40.195  52.013 -53.409  1.00  0.00     0.036 A 
HETATM   24  C   UNL     1     -39.679  52.009 -52.115  1.00  0.00     0.024 A 
HETATM   25 CL   UNL     1     -39.902  50.669 -54.445  1.00  0.00    -0.084 Cl
HETATM   26  C   UNL     1     -39.918  53.093 -51.276  1.00  0.00     0.004 A 
HETATM   27  C   UNL     1     -40.677  54.169 -51.738  1.00  0.00     0.037 A 
ENDBRANCH  20  21
ENDBRANCH   1  20
TORSDOF 3
ENDMDL
