MODEL 1
REMARK VINA RESULT:      -8.5      0.000      0.000
REMARK  9 active torsions:
REMARK  status: ('A' for Active; 'I' for Inactive)
REMARK       I    between atoms: C_2  and  N_3 
REMARK    1  A    between atoms: N_3  and  C_4 
REMARK    2  A    between atoms: C_4  and  C_5 
REMARK    3  A    between atoms: C_5  and  N_6 
REMARK       I    between atoms: N_6  and  C_7 
REMARK    4  A    between atoms: C_7  and  C_8 
REMARK    5  A    between atoms: C_8  and  C_9 
REMARK    6  A    between atoms: C_13  and  C_14 
REMARK    7  A    between atoms: C_14  and  O_15 
REMARK    8  A    between atoms: C_17  and  O_18 
REMARK    9  A    between atoms: C_25  and  C_26 
ROOT
HETATM    1  C   UNL     1     -42.444  56.366 -52.935  1.00  0.00     0.056 C 
HETATM    2  C   UNL     1     -42.972  56.916 -51.530  1.00  0.00    -0.030 C 
HETATM    3  C   UNL     1     -44.230  56.109 -51.096  1.00  0.00     0.016 C 
HETATM    4  C   UNL     1     -43.368  58.464 -51.585  1.00  0.00     0.012 C 
HETATM    5  C   UNL     1     -42.161  59.503 -51.582  1.00  0.00     0.008 C 
HETATM    6  C   UNL     1     -42.712  60.915 -51.220  1.00  0.00     0.020 C 
HETATM    7  C   UNL     1     -41.158  59.113 -50.453  1.00  0.00     0.128 C 
HETATM    8  C   UNL     1     -40.727  57.653 -50.514  1.00  0.00     0.033 C 
HETATM    9  C   UNL     1     -41.933  56.738 -50.393  1.00  0.00     0.013 C 
HETATM   10  C   UNL     1     -44.445  58.736 -52.671  1.00  0.00     0.054 C 
HETATM   11  C   UNL     1     -44.114  58.028 -53.933  1.00  0.00     0.010 A 
HETATM   12  C   UNL     1     -43.236  56.979 -54.072  1.00  0.00     0.054 A 
HETATM   13  N   UNL     1     -43.062  56.545 -55.373  1.00  0.00    -0.244 NA
HETATM   14  C   UNL     1     -43.858  57.208 -56.196  1.00  0.00     0.110 A 
HETATM   15  S   UNL     1     -44.806  58.432 -55.432  1.00  0.00    -0.072 SA
ENDROOT
BRANCH   1  16
HETATM   16  C   UNL     1     -42.411  54.828 -53.112  1.00  0.00     0.114 C 
BRANCH  16  17
HETATM   17  C   UNL     1     -41.067  54.190 -52.862  1.00  0.00     0.218 C 
HETATM   18  N   UNL     1     -40.889  53.698 -51.591  1.00  0.00    -0.359 N 
HETATM   19  H   UNL     1     -41.538  53.949 -50.856  1.00  0.00     0.162 HD
HETATM   20  O   UNL     1     -40.206  54.123 -53.734  1.00  0.00    -0.274 OA
BRANCH  18  21
HETATM   21  C   UNL     1     -39.661  53.023 -51.202  1.00  0.00     0.142 C 
BRANCH  21  22
HETATM   22  C   UNL     1     -39.696  51.519 -51.496  1.00  0.00     0.142 C 
BRANCH  22  23
HETATM   23  N   UNL     1     -39.754  51.226 -52.920  1.00  0.00    -0.360 N 
HETATM   24  C   UNL     1     -39.666  49.938 -53.390  1.00  0.00     0.213 C 
HETATM   25  C   UNL     1     -39.778  49.811 -54.886  1.00  0.00     0.117 C 
HETATM   26  O   UNL     1     -39.514  48.962 -52.664  1.00  0.00    -0.274 OA
HETATM   27  H   UNL     1     -39.879  51.998 -53.561  1.00  0.00     0.162 HD
ENDBRANCH  22  23
ENDBRANCH  21  22
ENDBRANCH  18  21
ENDBRANCH  16  17
ENDBRANCH   1  16
BRANCH   5  28
HETATM   28  C   UNL     1     -41.444  59.643 -52.955  1.00  0.00     0.176 C 
BRANCH  28  29
HETATM   29  O   UNL     1     -41.880  60.790 -53.682  1.00  0.00    -0.400 OA
HETATM   30  H   UNL     1     -42.800  60.596 -53.962  1.00  0.00     0.209 HD
ENDBRANCH  28  29
ENDBRANCH   5  28
BRANCH  14  31
HETATM   31  C   UNL     1     -43.921  56.979 -57.647  1.00  0.00     0.017 A 
HETATM   32  C   UNL     1     -44.749  57.696 -58.508  1.00  0.00     0.130 A 
HETATM   33  N   UNL     1     -44.824  57.500 -59.851  1.00  0.00    -0.272 NA
HETATM   34  C   UNL     1     -44.035  56.536 -60.369  1.00  0.00     0.116 A 
HETATM   35  C   UNL     1     -43.181  55.758 -59.609  1.00  0.00     0.020 A 
HETATM   36  C   UNL     1     -43.130  55.983 -58.233  1.00  0.00     0.017 A 
ENDBRANCH  14  31
BRANCH   7  37
HETATM   37  O   UNL     1     -39.972  59.910 -50.497  1.00  0.00    -0.395 OA
HETATM   38  H   UNL     1     -40.045  60.495 -51.274  1.00  0.00     0.210 HD
ENDBRANCH   7  37
TORSDOF 9
ENDMDL
MODEL 2
REMARK VINA RESULT:      -7.9      1.299      1.923
REMARK  9 active torsions:
REMARK  status: ('A' for Active; 'I' for Inactive)
REMARK       I    between atoms: C_2  and  N_3 
REMARK    1  A    between atoms: N_3  and  C_4 
REMARK    2  A    between atoms: C_4  and  C_5 
REMARK    3  A    between atoms: C_5  and  N_6 
REMARK       I    between atoms: N_6  and  C_7 
REMARK    4  A    between atoms: C_7  and  C_8 
REMARK    5  A    between atoms: C_8  and  C_9 
REMARK    6  A    between atoms: C_13  and  C_14 
REMARK    7  A    between atoms: C_14  and  O_15 
REMARK    8  A    between atoms: C_17  and  O_18 
REMARK    9  A    between atoms: C_25  and  C_26 
ROOT
HETATM    1  C   UNL     1     -42.577  56.355 -53.044  1.00  0.00     0.056 C 
HETATM    2  C   UNL     1     -43.069  56.923 -51.634  1.00  0.00    -0.030 C 
HETATM    3  C   UNL     1     -44.368  56.183 -51.200  1.00  0.00     0.016 C 
HETATM    4  C   UNL     1     -43.379  58.491 -51.677  1.00  0.00     0.012 C 
HETATM    5  C   UNL     1     -42.117  59.463 -51.672  1.00  0.00     0.008 C 
HETATM    6  C   UNL     1     -42.589  60.900 -51.298  1.00  0.00     0.020 C 
HETATM    7  C   UNL     1     -41.133  59.010 -50.549  1.00  0.00     0.128 C 
HETATM    8  C   UNL     1     -40.783  57.530 -50.621  1.00  0.00     0.033 C 
HETATM    9  C   UNL     1     -42.038  56.681 -50.502  1.00  0.00     0.013 C 
HETATM   10  C   UNL     1     -44.444  58.829 -52.757  1.00  0.00     0.054 C 
HETATM   11  C   UNL     1     -44.157  58.113 -54.025  1.00  0.00     0.010 A 
HETATM   12  C   UNL     1     -43.338  57.018 -54.175  1.00  0.00     0.054 A 
HETATM   13  N   UNL     1     -43.192  56.585 -55.480  1.00  0.00    -0.244 NA
HETATM   14  C   UNL     1     -43.953  57.296 -56.294  1.00  0.00     0.110 A 
HETATM   15  S   UNL     1     -44.831  58.565 -55.518  1.00  0.00    -0.072 SA
ENDROOT
BRANCH   1  16
HETATM   16  C   UNL     1     -42.628  54.819 -53.232  1.00  0.00     0.114 C 
BRANCH  16  17
HETATM   17  C   UNL     1     -41.283  54.153 -53.386  1.00  0.00     0.218 C 
HETATM   18  N   UNL     1     -41.229  52.854 -52.938  1.00  0.00    -0.359 N 
HETATM   19  H   UNL     1     -41.979  52.483 -52.369  1.00  0.00     0.162 HD
HETATM   20  O   UNL     1     -40.320  54.736 -53.872  1.00  0.00    -0.274 OA
BRANCH  18  21
HETATM   21  C   UNL     1     -40.012  52.063 -53.047  1.00  0.00     0.142 C 
BRANCH  21  22
HETATM   22  C   UNL     1     -39.381  51.764 -51.683  1.00  0.00     0.142 C 
BRANCH  22  23
HETATM   23  N   UNL     1     -40.213  52.198 -50.571  1.00  0.00    -0.360 N 
HETATM   24  C   UNL     1     -40.000  53.401 -49.943  1.00  0.00     0.213 C 
HETATM   25  C   UNL     1     -40.973  53.708 -48.837  1.00  0.00     0.117 C 
HETATM   26  O   UNL     1     -39.097  54.172 -50.249  1.00  0.00    -0.274 OA
HETATM   27  H   UNL     1     -40.972  51.596 -50.280  1.00  0.00     0.162 HD
ENDBRANCH  22  23
ENDBRANCH  21  22
ENDBRANCH  18  21
ENDBRANCH  16  17
ENDBRANCH   1  16
BRANCH   5  28
HETATM   28  C   UNL     1     -41.399  59.573 -53.046  1.00  0.00     0.176 C 
BRANCH  28  29
HETATM   29  O   UNL     1     -41.794  60.732 -53.776  1.00  0.00    -0.400 OA
HETATM   30  H   UNL     1     -42.763  60.650 -53.906  1.00  0.00     0.209 HD
ENDBRANCH  28  29
ENDBRANCH   5  28
BRANCH  14  31
HETATM   31  C   UNL     1     -44.033  57.081 -57.746  1.00  0.00     0.017 A 
HETATM   32  C   UNL     1     -44.898  57.781 -58.586  1.00  0.00     0.130 A 
HETATM   33  N   UNL     1     -44.989  57.598 -59.930  1.00  0.00    -0.272 NA
HETATM   34  C   UNL     1     -44.180  56.664 -60.471  1.00  0.00     0.116 A 
HETATM   35  C   UNL     1     -43.289  55.904 -59.734  1.00  0.00     0.020 A 
HETATM   36  C   UNL     1     -43.222  56.116 -58.358  1.00  0.00     0.017 A 
ENDBRANCH  14  31
BRANCH   7  37
HETATM   37  O   UNL     1     -39.906  59.741 -50.593  1.00  0.00    -0.395 OA
HETATM   38  H   UNL     1     -39.467  59.622 -49.730  1.00  0.00     0.210 HD
ENDBRANCH   7  37
TORSDOF 9
ENDMDL
MODEL 3
REMARK VINA RESULT:      -7.7      3.272      6.213
REMARK  9 active torsions:
REMARK  status: ('A' for Active; 'I' for Inactive)
REMARK       I    between atoms: C_2  and  N_3 
REMARK    1  A    between atoms: N_3  and  C_4 
REMARK    2  A    between atoms: C_4  and  C_5 
REMARK    3  A    between atoms: C_5  and  N_6 
REMARK       I    between atoms: N_6  and  C_7 
REMARK    4  A    between atoms: C_7  and  C_8 
REMARK    5  A    between atoms: C_8  and  C_9 
REMARK    6  A    between atoms: C_13  and  C_14 
REMARK    7  A    between atoms: C_14  and  O_15 
REMARK    8  A    between atoms: C_17  and  O_18 
REMARK    9  A    between atoms: C_25  and  C_26 
ROOT
HETATM    1  C   UNL     1     -42.380  57.939 -52.227  1.00  0.00     0.056 C 
HETATM    2  C   UNL     1     -41.374  57.948 -53.468  1.00  0.00    -0.030 C 
HETATM    3  C   UNL     1     -40.038  58.628 -53.049  1.00  0.00     0.016 C 
HETATM    4  C   UNL     1     -41.961  58.737 -54.729  1.00  0.00     0.012 C 
HETATM    5  C   UNL     1     -43.070  57.979 -55.584  1.00  0.00     0.008 C 
HETATM    6  C   UNL     1     -43.213  58.687 -56.965  1.00  0.00     0.020 C 
HETATM    7  C   UNL     1     -42.580  56.527 -55.877  1.00  0.00     0.128 C 
HETATM    8  C   UNL     1     -42.137  55.781 -54.626  1.00  0.00     0.033 C 
HETATM    9  C   UNL     1     -40.999  56.520 -53.941  1.00  0.00     0.013 C 
HETATM   10  C   UNL     1     -42.324  60.202 -54.362  1.00  0.00     0.054 C 
HETATM   11  C   UNL     1     -43.052  60.259 -53.070  1.00  0.00     0.010 A 
HETATM   12  C   UNL     1     -43.089  59.273 -52.112  1.00  0.00     0.054 A 
HETATM   13  N   UNL     1     -43.899  59.556 -51.028  1.00  0.00    -0.244 NA
HETATM   14  C   UNL     1     -44.405  60.774 -51.130  1.00  0.00     0.110 A 
HETATM   15  S   UNL     1     -43.969  61.603 -52.580  1.00  0.00    -0.072 SA
ENDROOT
BRANCH   1  16
HETATM   16  C   UNL     1     -41.781  57.563 -50.848  1.00  0.00     0.114 C 
BRANCH  16  17
HETATM   17  C   UNL     1     -42.021  56.137 -50.419  1.00  0.00     0.218 C 
HETATM   18  N   UNL     1     -41.026  55.594 -49.642  1.00  0.00    -0.359 N 
HETATM   19  H   UNL     1     -40.132  56.063 -49.563  1.00  0.00     0.162 HD
HETATM   20  O   UNL     1     -43.029  55.520 -50.747  1.00  0.00    -0.274 OA
BRANCH  18  21
HETATM   21  C   UNL     1     -41.123  54.240 -49.119  1.00  0.00     0.142 C 
BRANCH  21  22
HETATM   22  C   UNL     1     -40.303  53.234 -49.934  1.00  0.00     0.142 C 
BRANCH  22  23
HETATM   23  N   UNL     1     -40.618  53.271 -51.354  1.00  0.00    -0.360 N 
HETATM   24  C   UNL     1     -40.026  52.406 -52.243  1.00  0.00     0.213 C 
HETATM   25  C   UNL     1     -40.492  52.558 -53.666  1.00  0.00     0.117 C 
HETATM   26  O   UNL     1     -39.189  51.571 -51.917  1.00  0.00    -0.274 OA
HETATM   27  H   UNL     1     -41.304  53.942 -51.673  1.00  0.00     0.162 HD
ENDBRANCH  22  23
ENDBRANCH  21  22
ENDBRANCH  18  21
ENDBRANCH  16  17
ENDBRANCH   1  16
BRANCH   5  28
HETATM   28  C   UNL     1     -44.481  57.982 -54.933  1.00  0.00     0.176 C 
BRANCH  28  29
HETATM   29  O   UNL     1     -45.511  57.655 -55.864  1.00  0.00    -0.400 OA
HETATM   30  H   UNL     1     -46.332  57.565 -55.334  1.00  0.00     0.209 HD
ENDBRANCH  28  29
ENDBRANCH   5  28
BRANCH  14  31
HETATM   31  C   UNL     1     -45.301  61.381 -50.135  1.00  0.00     0.017 A 
HETATM   32  C   UNL     1     -45.490  60.874 -48.851  1.00  0.00     0.130 A 
HETATM   33  N   UNL     1     -46.314  61.417 -47.917  1.00  0.00    -0.272 NA
HETATM   34  C   UNL     1     -46.991  62.526 -48.278  1.00  0.00     0.116 A 
HETATM   35  C   UNL     1     -46.888  63.113 -49.527  1.00  0.00     0.020 A 
HETATM   36  C   UNL     1     -46.036  62.528 -50.462  1.00  0.00     0.017 A 
ENDBRANCH  14  31
BRANCH   7  37
HETATM   37  O   UNL     1     -43.595  55.741 -56.505  1.00  0.00    -0.395 OA
HETATM   38  H   UNL     1     -44.451  56.019 -56.129  1.00  0.00     0.210 HD
ENDBRANCH   7  37
TORSDOF 9
ENDMDL
MODEL 4
REMARK VINA RESULT:      -7.6      3.032      6.755
REMARK  9 active torsions:
REMARK  status: ('A' for Active; 'I' for Inactive)
REMARK       I    between atoms: C_2  and  N_3 
REMARK    1  A    between atoms: N_3  and  C_4 
REMARK    2  A    between atoms: C_4  and  C_5 
REMARK    3  A    between atoms: C_5  and  N_6 
REMARK       I    between atoms: N_6  and  C_7 
REMARK    4  A    between atoms: C_7  and  C_8 
REMARK    5  A    between atoms: C_8  and  C_9 
REMARK    6  A    between atoms: C_13  and  C_14 
REMARK    7  A    between atoms: C_14  and  O_15 
REMARK    8  A    between atoms: C_17  and  O_18 
REMARK    9  A    between atoms: C_25  and  C_26 
ROOT
HETATM    1  C   UNL     1     -43.097  58.377 -54.293  1.00  0.00     0.056 C 
HETATM    2  C   UNL     1     -43.154  59.877 -53.744  1.00  0.00    -0.030 C 
HETATM    3  C   UNL     1     -41.840  60.619 -54.125  1.00  0.00     0.016 C 
HETATM    4  C   UNL     1     -43.323  59.945 -52.155  1.00  0.00     0.012 C 
HETATM    5  C   UNL     1     -44.778  59.640 -51.585  1.00  0.00     0.008 C 
HETATM    6  C   UNL     1     -44.860  60.150 -50.115  1.00  0.00     0.020 C 
HETATM    7  C   UNL     1     -45.825  60.460 -52.401  1.00  0.00     0.128 C 
HETATM    8  C   UNL     1     -45.691  60.272 -53.906  1.00  0.00     0.033 C 
HETATM    9  C   UNL     1     -44.309  60.697 -54.374  1.00  0.00     0.013 C 
HETATM   10  C   UNL     1     -42.178  59.185 -51.431  1.00  0.00     0.054 C 
HETATM   11  C   UNL     1     -41.922  57.873 -52.076  1.00  0.00     0.010 A 
HETATM   12  C   UNL     1     -42.317  57.495 -53.338  1.00  0.00     0.054 A 
HETATM   13  N   UNL     1     -42.006  56.190 -53.670  1.00  0.00    -0.244 NA
HETATM   14  C   UNL     1     -41.316  55.614 -52.700  1.00  0.00     0.110 A 
HETATM   15  S   UNL     1     -41.071  56.615 -51.314  1.00  0.00    -0.072 SA
ENDROOT
BRANCH   1  16
HETATM   16  C   UNL     1     -42.548  58.181 -55.727  1.00  0.00     0.114 C 
BRANCH  16  17
HETATM   17  C   UNL     1     -43.358  57.251 -56.595  1.00  0.00     0.218 C 
HETATM   18  N   UNL     1     -42.678  56.146 -57.048  1.00  0.00    -0.359 N 
HETATM   19  H   UNL     1     -41.670  56.103 -56.965  1.00  0.00     0.162 HD
HETATM   20  O   UNL     1     -44.532  57.475 -56.871  1.00  0.00    -0.274 OA
BRANCH  18  21
HETATM   21  C   UNL     1     -43.328  55.136 -57.869  1.00  0.00     0.142 C 
BRANCH  21  22
HETATM   22  C   UNL     1     -43.526  55.593 -59.318  1.00  0.00     0.142 C 
BRANCH  22  23
HETATM   23  N   UNL     1     -44.895  56.001 -59.597  1.00  0.00    -0.360 N 
HETATM   24  C   UNL     1     -45.531  55.630 -60.757  1.00  0.00     0.213 C 
HETATM   25  C   UNL     1     -46.953  56.108 -60.868  1.00  0.00     0.117 C 
HETATM   26  O   UNL     1     -44.997  54.963 -61.636  1.00  0.00    -0.274 OA
HETATM   27  H   UNL     1     -45.379  56.553 -58.902  1.00  0.00     0.162 HD
ENDBRANCH  22  23
ENDBRANCH  21  22
ENDBRANCH  18  21
ENDBRANCH  16  17
ENDBRANCH   1  16
BRANCH   5  28
HETATM   28  C   UNL     1     -45.140  58.129 -51.554  1.00  0.00     0.176 C 
BRANCH  28  29
HETATM   29  O   UNL     1     -45.072  57.580 -50.239  1.00  0.00    -0.400 OA
HETATM   30  H   UNL     1     -45.599  56.752 -50.266  1.00  0.00     0.209 HD
ENDBRANCH  28  29
ENDBRANCH   5  28
BRANCH  14  31
HETATM   31  C   UNL     1     -40.826  54.229 -52.746  1.00  0.00     0.017 A 
HETATM   32  C   UNL     1     -40.329  53.547 -51.637  1.00  0.00     0.130 A 
HETATM   33  N   UNL     1     -39.869  52.268 -51.657  1.00  0.00    -0.272 NA
HETATM   34  C   UNL     1     -39.901  51.630 -52.844  1.00  0.00     0.116 A 
HETATM   35  C   UNL     1     -40.366  52.210 -54.011  1.00  0.00     0.020 A 
HETATM   36  C   UNL     1     -40.828  53.525 -53.956  1.00  0.00     0.017 A 
ENDBRANCH  14  31
BRANCH   7  37
HETATM   37  O   UNL     1     -47.165  60.113 -52.045  1.00  0.00    -0.395 OA
HETATM   38  H   UNL     1     -47.757  60.553 -52.683  1.00  0.00     0.210 HD
ENDBRANCH   7  37
TORSDOF 9
ENDMDL
MODEL 5
REMARK VINA RESULT:      -7.4      2.964      3.453
REMARK  9 active torsions:
REMARK  status: ('A' for Active; 'I' for Inactive)
REMARK       I    between atoms: C_2  and  N_3 
REMARK    1  A    between atoms: N_3  and  C_4 
REMARK    2  A    between atoms: C_4  and  C_5 
REMARK    3  A    between atoms: C_5  and  N_6 
REMARK       I    between atoms: N_6  and  C_7 
REMARK    4  A    between atoms: C_7  and  C_8 
REMARK    5  A    between atoms: C_8  and  C_9 
REMARK    6  A    between atoms: C_13  and  C_14 
REMARK    7  A    between atoms: C_14  and  O_15 
REMARK    8  A    between atoms: C_17  and  O_18 
REMARK    9  A    between atoms: C_25  and  C_26 
ROOT
HETATM    1  C   UNL     1     -42.726  57.544 -54.827  1.00  0.00     0.056 C 
HETATM    2  C   UNL     1     -43.565  57.534 -53.467  1.00  0.00    -0.030 C 
HETATM    3  C   UNL     1     -45.085  57.461 -53.795  1.00  0.00     0.016 C 
HETATM    4  C   UNL     1     -43.310  58.838 -52.577  1.00  0.00     0.012 C 
HETATM    5  C   UNL     1     -41.936  58.888 -51.774  1.00  0.00     0.008 C 
HETATM    6  C   UNL     1     -42.037  59.982 -50.669  1.00  0.00     0.020 C 
HETATM    7  C   UNL     1     -41.729  57.528 -51.037  1.00  0.00     0.128 C 
HETATM    8  C   UNL     1     -41.874  56.322 -51.955  1.00  0.00     0.033 C 
HETATM    9  C   UNL     1     -43.256  56.297 -52.586  1.00  0.00     0.013 C 
HETATM   10  C   UNL     1     -43.639  60.136 -53.365  1.00  0.00     0.054 C 
HETATM   11  C   UNL     1     -43.081  60.077 -54.739  1.00  0.00     0.010 A 
HETATM   12  C   UNL     1     -42.673  58.944 -55.405  1.00  0.00     0.054 A 
HETATM   13  N   UNL     1     -42.128  59.177 -56.654  1.00  0.00    -0.244 NA
HETATM   14  C   UNL     1     -42.196  60.462 -56.959  1.00  0.00     0.110 A 
HETATM   15  S   UNL     1     -42.866  61.453 -55.713  1.00  0.00    -0.072 SA
ENDROOT
BRANCH   1  16
HETATM   16  C   UNL     1     -43.178  56.557 -55.931  1.00  0.00     0.114 C 
BRANCH  16  17
HETATM   17  C   UNL     1     -42.501  55.210 -55.895  1.00  0.00     0.218 C 
HETATM   18  N   UNL     1     -41.190  55.235 -55.481  1.00  0.00    -0.359 N 
HETATM   19  H   UNL     1     -40.695  56.115 -55.420  1.00  0.00     0.162 HD
HETATM   20  O   UNL     1     -43.084  54.180 -56.215  1.00  0.00    -0.274 OA
BRANCH  18  21
HETATM   21  C   UNL     1     -40.408  54.014 -55.360  1.00  0.00     0.142 C 
BRANCH  21  22
HETATM   22  C   UNL     1     -40.574  53.341 -53.993  1.00  0.00     0.142 C 
BRANCH  22  23
HETATM   23  N   UNL     1     -40.409  51.897 -54.053  1.00  0.00    -0.360 N 
HETATM   24  C   UNL     1     -39.720  51.213 -53.081  1.00  0.00     0.213 C 
HETATM   25  C   UNL     1     -39.675  49.722 -53.280  1.00  0.00     0.117 C 
HETATM   26  O   UNL     1     -39.185  51.759 -52.122  1.00  0.00    -0.274 OA
HETATM   27  H   UNL     1     -40.833  51.400 -54.825  1.00  0.00     0.162 HD
ENDBRANCH  22  23
ENDBRANCH  21  22
ENDBRANCH  18  21
ENDBRANCH  16  17
ENDBRANCH   1  16
BRANCH   5  28
HETATM   28  C   UNL     1     -40.704  59.251 -52.650  1.00  0.00     0.176 C 
BRANCH  28  29
HETATM   29  O   UNL     1     -39.544  59.528 -51.869  1.00  0.00    -0.400 OA
HETATM   30  H   UNL     1     -39.541  58.863 -51.147  1.00  0.00     0.209 HD
ENDBRANCH  28  29
ENDBRANCH   5  28
BRANCH  14  31
HETATM   31  C   UNL     1     -41.710  61.037 -58.221  1.00  0.00     0.017 A 
HETATM   32  C   UNL     1     -40.825  62.112 -58.293  1.00  0.00     0.130 A 
HETATM   33  N   UNL     1     -40.364  62.660 -59.448  1.00  0.00    -0.272 NA
HETATM   34  C   UNL     1     -40.808  62.114 -60.598  1.00  0.00     0.116 A 
HETATM   35  C   UNL     1     -41.693  61.052 -60.648  1.00  0.00     0.020 A 
HETATM   36  C   UNL     1     -42.148  60.514 -59.444  1.00  0.00     0.017 A 
ENDBRANCH  14  31
BRANCH   7  37
HETATM   37  O   UNL     1     -40.440  57.447 -50.425  1.00  0.00    -0.395 OA
HETATM   38  H   UNL     1     -40.145  58.359 -50.249  1.00  0.00     0.210 HD
ENDBRANCH   7  37
TORSDOF 9
ENDMDL
MODEL 6
REMARK VINA RESULT:      -7.4      2.876      6.845
REMARK  9 active torsions:
REMARK  status: ('A' for Active; 'I' for Inactive)
REMARK       I    between atoms: C_2  and  N_3 
REMARK    1  A    between atoms: N_3  and  C_4 
REMARK    2  A    between atoms: C_4  and  C_5 
REMARK    3  A    between atoms: C_5  and  N_6 
REMARK       I    between atoms: N_6  and  C_7 
REMARK    4  A    between atoms: C_7  and  C_8 
REMARK    5  A    between atoms: C_8  and  C_9 
REMARK    6  A    between atoms: C_13  and  C_14 
REMARK    7  A    between atoms: C_14  and  O_15 
REMARK    8  A    between atoms: C_17  and  O_18 
REMARK    9  A    between atoms: C_25  and  C_26 
ROOT
HETATM    1  C   UNL     1     -43.592  57.006 -57.232  1.00  0.00     0.056 C 
HETATM    2  C   UNL     1     -43.562  57.319 -58.799  1.00  0.00    -0.030 C 
HETATM    3  C   UNL     1     -42.160  57.868 -59.192  1.00  0.00     0.016 C 
HETATM    4  C   UNL     1     -44.660  58.399 -59.231  1.00  0.00     0.012 C 
HETATM    5  C   UNL     1     -46.163  57.881 -59.325  1.00  0.00     0.008 C 
HETATM    6  C   UNL     1     -47.001  58.910 -60.141  1.00  0.00     0.020 C 
HETATM    7  C   UNL     1     -46.191  56.545 -60.130  1.00  0.00     0.128 C 
HETATM    8  C   UNL     1     -45.204  55.510 -59.606  1.00  0.00     0.033 C 
HETATM    9  C   UNL     1     -43.785  56.052 -59.664  1.00  0.00     0.013 C 
HETATM   10  C   UNL     1     -44.487  59.728 -58.447  1.00  0.00     0.054 C 
HETATM   11  C   UNL     1     -44.259  59.465 -57.004  1.00  0.00     0.010 A 
HETATM   12  C   UNL     1     -43.863  58.272 -56.446  1.00  0.00     0.054 A 
HETATM   13  N   UNL     1     -43.789  58.281 -55.065  1.00  0.00    -0.244 NA
HETATM   14  C   UNL     1     -44.051  59.488 -54.593  1.00  0.00     0.110 A 
HETATM   15  S   UNL     1     -44.462  60.650 -55.802  1.00  0.00    -0.072 SA
ENDROOT
BRANCH   1  16
HETATM   16  C   UNL     1     -42.349  56.298 -56.640  1.00  0.00     0.114 C 
BRANCH  16  17
HETATM   17  C   UNL     1     -42.648  55.286 -55.562  1.00  0.00     0.218 C 
HETATM   18  N   UNL     1     -42.261  55.661 -54.297  1.00  0.00    -0.359 N 
HETATM   19  H   UNL     1     -41.644  56.453 -54.170  1.00  0.00     0.162 HD
HETATM   20  O   UNL     1     -43.192  54.215 -55.807  1.00  0.00    -0.274 OA
BRANCH  18  21
HETATM   21  C   UNL     1     -42.509  54.810 -53.143  1.00  0.00     0.142 C 
BRANCH  21  22
HETATM   22  C   UNL     1     -41.217  54.277 -52.516  1.00  0.00     0.142 C 
BRANCH  22  23
HETATM   23  N   UNL     1     -40.944  52.895 -52.880  1.00  0.00    -0.360 N 
HETATM   24  C   UNL     1     -40.307  52.576 -54.056  1.00  0.00     0.213 C 
HETATM   25  C   UNL     1     -40.074  51.103 -54.259  1.00  0.00     0.117 C 
HETATM   26  O   UNL     1     -39.950  53.412 -54.878  1.00  0.00    -0.274 OA
HETATM   27  H   UNL     1     -41.219  52.168 -52.234  1.00  0.00     0.162 HD
ENDBRANCH  22  23
ENDBRANCH  21  22
ENDBRANCH  18  21
ENDBRANCH  16  17
ENDBRANCH   1  16
BRANCH   5  28
HETATM   28  C   UNL     1     -46.865  57.728 -57.946  1.00  0.00     0.176 C 
BRANCH  28  29
HETATM   29  O   UNL     1     -47.727  58.824 -57.650  1.00  0.00    -0.400 OA
HETATM   30  H   UNL     1     -48.349  58.499 -56.964  1.00  0.00     0.209 HD
ENDBRANCH  28  29
ENDBRANCH   5  28
BRANCH  14  31
HETATM   31  C   UNL     1     -44.048  59.833 -53.164  1.00  0.00     0.017 A 
HETATM   32  C   UNL     1     -44.913  59.269 -52.229  1.00  0.00     0.130 A 
HETATM   33  N   UNL     1     -44.929  59.575 -50.904  1.00  0.00    -0.272 NA
HETATM   34  C   UNL     1     -44.037  60.494 -50.484  1.00  0.00     0.116 A 
HETATM   35  C   UNL     1     -43.136  61.125 -51.323  1.00  0.00     0.020 A 
HETATM   36  C   UNL     1     -43.148  60.790 -52.677  1.00  0.00     0.017 A 
ENDBRANCH  14  31
BRANCH   7  37
HETATM   37  O   UNL     1     -47.487  55.944 -60.116  1.00  0.00    -0.395 OA
HETATM   38  H   UNL     1     -48.139  56.657 -60.251  1.00  0.00     0.210 HD
ENDBRANCH   7  37
TORSDOF 9
ENDMDL
MODEL 7
REMARK VINA RESULT:      -7.4      3.344      6.813
REMARK  9 active torsions:
REMARK  status: ('A' for Active; 'I' for Inactive)
REMARK       I    between atoms: C_2  and  N_3 
REMARK    1  A    between atoms: N_3  and  C_4 
REMARK    2  A    between atoms: C_4  and  C_5 
REMARK    3  A    between atoms: C_5  and  N_6 
REMARK       I    between atoms: N_6  and  C_7 
REMARK    4  A    between atoms: C_7  and  C_8 
REMARK    5  A    between atoms: C_8  and  C_9 
REMARK    6  A    between atoms: C_13  and  C_14 
REMARK    7  A    between atoms: C_14  and  O_15 
REMARK    8  A    between atoms: C_17  and  O_18 
REMARK    9  A    between atoms: C_25  and  C_26 
ROOT
HETATM    1  C   UNL     1     -43.860  58.985 -54.364  1.00  0.00     0.056 C 
HETATM    2  C   UNL     1     -43.764  60.525 -53.946  1.00  0.00    -0.030 C 
HETATM    3  C   UNL     1     -42.698  61.237 -54.829  1.00  0.00     0.016 C 
HETATM    4  C   UNL     1     -43.354  60.721 -52.413  1.00  0.00     0.012 C 
HETATM    5  C   UNL     1     -44.497  60.461 -51.336  1.00  0.00     0.008 C 
HETATM    6  C   UNL     1     -44.063  61.089 -49.977  1.00  0.00     0.020 C 
HETATM    7  C   UNL     1     -45.793  61.209 -51.779  1.00  0.00     0.128 C 
HETATM    8  C   UNL     1     -46.201  60.900 -53.213  1.00  0.00     0.033 C 
HETATM    9  C   UNL     1     -45.093  61.289 -54.177  1.00  0.00     0.013 C 
HETATM   10  C   UNL     1     -42.002  60.026 -52.094  1.00  0.00     0.054 C 
HETATM   11  C   UNL     1     -41.954  58.666 -52.687  1.00  0.00     0.010 A 
HETATM   12  C   UNL     1     -42.762  58.186 -53.691  1.00  0.00     0.054 A 
HETATM   13  N   UNL     1     -42.551  56.859 -54.013  1.00  0.00    -0.244 NA
HETATM   14  C   UNL     1     -41.541  56.365 -53.316  1.00  0.00     0.110 A 
HETATM   15  S   UNL     1     -40.847  57.476 -52.190  1.00  0.00    -0.072 SA
ENDROOT
BRANCH   1  16
HETATM   16  C   UNL     1     -43.856  58.674 -55.881  1.00  0.00     0.114 C 
BRANCH  16  17
HETATM   17  C   UNL     1     -45.197  58.289 -56.454  1.00  0.00     0.218 C 
HETATM   18  N   UNL     1     -45.332  58.508 -57.804  1.00  0.00    -0.359 N 
HETATM   19  H   UNL     1     -44.652  59.074 -58.295  1.00  0.00     0.162 HD
HETATM   20  O   UNL     1     -46.091  57.820 -55.758  1.00  0.00    -0.274 OA
BRANCH  18  21
HETATM   21  C   UNL     1     -46.553  58.157 -58.513  1.00  0.00     0.142 C 
BRANCH  21  22
HETATM   22  C   UNL     1     -46.282  57.369 -59.799  1.00  0.00     0.142 C 
BRANCH  22  23
HETATM   23  N   UNL     1     -45.977  55.969 -59.546  1.00  0.00    -0.360 N 
HETATM   24  C   UNL     1     -44.858  55.372 -60.074  1.00  0.00     0.213 C 
HETATM   25  C   UNL     1     -44.677  53.930 -59.684  1.00  0.00     0.117 C 
HETATM   26  O   UNL     1     -44.061  55.955 -60.801  1.00  0.00    -0.274 OA
HETATM   27  H   UNL     1     -46.604  55.444 -58.951  1.00  0.00     0.162 HD
ENDBRANCH  22  23
ENDBRANCH  21  22
ENDBRANCH  18  21
ENDBRANCH  16  17
ENDBRANCH   1  16
BRANCH   5  28
HETATM   28  C   UNL     1     -44.777  58.956 -51.062  1.00  0.00     0.176 C 
BRANCH  28  29
HETATM   29  O   UNL     1     -45.412  58.741 -49.804  1.00  0.00    -0.400 OA
HETATM   30  H   UNL     1     -44.875  59.232 -49.145  1.00  0.00     0.209 HD
ENDBRANCH  28  29
ENDBRANCH   5  28
BRANCH  14  31
HETATM   31  C   UNL     1     -41.056  54.982 -53.431  1.00  0.00     0.017 A 
HETATM   32  C   UNL     1     -40.952  54.106 -52.352  1.00  0.00     0.130 A 
HETATM   33  N   UNL     1     -40.505  52.825 -52.435  1.00  0.00    -0.272 NA
HETATM   34  C   UNL     1     -40.138  52.389 -53.657  1.00  0.00     0.116 A 
HETATM   35  C   UNL     1     -40.192  53.172 -54.796  1.00  0.00     0.020 A 
HETATM   36  C   UNL     1     -40.653  54.483 -54.675  1.00  0.00     0.017 A 
ENDBRANCH  14  31
BRANCH   7  37
HETATM   37  O   UNL     1     -46.904  60.889 -50.940  1.00  0.00    -0.395 OA
HETATM   38  H   UNL     1     -46.606  60.984 -50.016  1.00  0.00     0.210 HD
ENDBRANCH   7  37
TORSDOF 9
ENDMDL
MODEL 8
REMARK VINA RESULT:      -7.3      3.079      6.737
REMARK  9 active torsions:
REMARK  status: ('A' for Active; 'I' for Inactive)
REMARK       I    between atoms: C_2  and  N_3 
REMARK    1  A    between atoms: N_3  and  C_4 
REMARK    2  A    between atoms: C_4  and  C_5 
REMARK    3  A    between atoms: C_5  and  N_6 
REMARK       I    between atoms: N_6  and  C_7 
REMARK    4  A    between atoms: C_7  and  C_8 
REMARK    5  A    between atoms: C_8  and  C_9 
REMARK    6  A    between atoms: C_13  and  C_14 
REMARK    7  A    between atoms: C_14  and  O_15 
REMARK    8  A    between atoms: C_17  and  O_18 
REMARK    9  A    between atoms: C_25  and  C_26 
ROOT
HETATM    1  C   UNL     1     -42.433  58.273 -53.091  1.00  0.00     0.056 C 
HETATM    2  C   UNL     1     -41.050  57.663 -52.570  1.00  0.00    -0.030 C 
HETATM    3  C   UNL     1     -39.866  58.463 -53.187  1.00  0.00     0.016 C 
HETATM    4  C   UNL     1     -40.871  56.124 -52.962  1.00  0.00     0.012 C 
HETATM    5  C   UNL     1     -41.702  55.073 -52.101  1.00  0.00     0.008 C 
HETATM    6  C   UNL     1     -41.104  53.652 -52.326  1.00  0.00     0.020 C 
HETATM    7  C   UNL     1     -41.519  55.399 -50.587  1.00  0.00     0.128 C 
HETATM    8  C   UNL     1     -41.811  56.856 -50.249  1.00  0.00     0.033 C 
HETATM    9  C   UNL     1     -40.891  57.778 -51.033  1.00  0.00     0.013 C 
HETATM   10  C   UNL     1     -40.968  55.915 -54.498  1.00  0.00     0.054 C 
HETATM   11  C   UNL     1     -42.109  56.677 -55.064  1.00  0.00     0.010 A 
HETATM   12  C   UNL     1     -42.770  57.722 -54.462  1.00  0.00     0.054 A 
HETATM   13  N   UNL     1     -43.843  58.214 -55.181  1.00  0.00    -0.244 NA
HETATM   14  C   UNL     1     -43.943  57.599 -56.348  1.00  0.00     0.110 A 
HETATM   15  S   UNL     1     -42.775  56.351 -56.593  1.00  0.00    -0.072 SA
ENDROOT
BRANCH   1  16
HETATM   16  C   UNL     1     -42.545  59.817 -53.124  1.00  0.00     0.114 C 
BRANCH  16  17
HETATM   17  C   UNL     1     -43.278  60.425 -51.954  1.00  0.00     0.218 C 
HETATM   18  N   UNL     1     -44.633  60.571 -52.134  1.00  0.00    -0.359 N 
HETATM   19  H   UNL     1     -45.033  60.468 -53.058  1.00  0.00     0.162 HD
HETATM   20  O   UNL     1     -42.698  60.762 -50.927  1.00  0.00    -0.274 OA
BRANCH  18  21
HETATM   21  C   UNL     1     -45.486  61.111 -51.087  1.00  0.00     0.142 C 
BRANCH  21  22
HETATM   22  C   UNL     1     -45.814  60.078 -50.004  1.00  0.00     0.142 C 
BRANCH  22  23
HETATM   23  N   UNL     1     -45.083  60.307 -48.768  1.00  0.00    -0.360 N 
HETATM   24  C   UNL     1     -45.647  60.992 -47.718  1.00  0.00     0.213 C 
HETATM   25  C   UNL     1     -44.765  61.108 -46.504  1.00  0.00     0.117 C 
HETATM   26  O   UNL     1     -46.775  61.470 -47.752  1.00  0.00    -0.274 OA
HETATM   27  H   UNL     1     -44.147  59.932 -48.690  1.00  0.00     0.162 HD
ENDBRANCH  22  23
ENDBRANCH  21  22
ENDBRANCH  18  21
ENDBRANCH  16  17
ENDBRANCH   1  16
BRANCH   5  28
HETATM   28  C   UNL     1     -43.206  54.990 -52.486  1.00  0.00     0.176 C 
BRANCH  28  29
HETATM   29  O   UNL     1     -43.855  53.863 -51.901  1.00  0.00    -0.400 OA
HETATM   30  H   UNL     1     -43.252  53.102 -52.042  1.00  0.00     0.209 HD
ENDBRANCH  28  29
ENDBRANCH   5  28
BRANCH  14  31
HETATM   31  C   UNL     1     -44.975  57.896 -57.351  1.00  0.00     0.017 A 
HETATM   32  C   UNL     1     -44.800  57.709 -58.721  1.00  0.00     0.130 A 
HETATM   33  N   UNL     1     -45.739  57.979 -59.666  1.00  0.00    -0.272 NA
HETATM   34  C   UNL     1     -46.919  58.463 -59.227  1.00  0.00     0.116 A 
HETATM   35  C   UNL     1     -47.202  58.695 -57.893  1.00  0.00     0.020 A 
HETATM   36  C   UNL     1     -46.215  58.410 -56.950  1.00  0.00     0.017 A 
ENDBRANCH  14  31
BRANCH   7  37
HETATM   37  O   UNL     1     -42.364  54.593 -49.764  1.00  0.00    -0.395 OA
HETATM   38  H   UNL     1     -42.355  54.982 -48.870  1.00  0.00     0.210 HD
ENDBRANCH   7  37
TORSDOF 9
ENDMDL
MODEL 9
REMARK VINA RESULT:      -7.3      3.780      7.846
REMARK  9 active torsions:
REMARK  status: ('A' for Active; 'I' for Inactive)
REMARK       I    between atoms: C_2  and  N_3 
REMARK    1  A    between atoms: N_3  and  C_4 
REMARK    2  A    between atoms: C_4  and  C_5 
REMARK    3  A    between atoms: C_5  and  N_6 
REMARK       I    between atoms: N_6  and  C_7 
REMARK    4  A    between atoms: C_7  and  C_8 
REMARK    5  A    between atoms: C_8  and  C_9 
REMARK    6  A    between atoms: C_13  and  C_14 
REMARK    7  A    between atoms: C_14  and  O_15 
REMARK    8  A    between atoms: C_17  and  O_18 
REMARK    9  A    between atoms: C_25  and  C_26 
ROOT
HETATM    1  C   UNL     1     -42.968  58.363 -57.500  1.00  0.00     0.056 C 
HETATM    2  C   UNL     1     -43.187  59.946 -57.475  1.00  0.00    -0.030 C 
HETATM    3  C   UNL     1     -41.830  60.662 -57.735  1.00  0.00     0.016 C 
HETATM    4  C   UNL     1     -43.765  60.464 -56.077  1.00  0.00     0.012 C 
HETATM    5  C   UNL     1     -45.314  60.207 -55.813  1.00  0.00     0.008 C 
HETATM    6  C   UNL     1     -45.784  61.119 -54.640  1.00  0.00     0.020 C 
HETATM    7  C   UNL     1     -46.124  60.647 -57.072  1.00  0.00     0.128 C 
HETATM    8  C   UNL     1     -45.599  60.036 -58.365  1.00  0.00     0.033 C 
HETATM    9  C   UNL     1     -44.149  60.431 -58.589  1.00  0.00     0.013 C 
HETATM   10  C   UNL     1     -42.838  60.063 -54.897  1.00  0.00     0.054 C 
HETATM   11  C   UNL     1     -42.405  58.649 -55.021  1.00  0.00     0.010 A 
HETATM   12  C   UNL     1     -42.451  57.880 -56.160  1.00  0.00     0.054 A 
HETATM   13  N   UNL     1     -42.047  56.570 -55.985  1.00  0.00    -0.244 NA
HETATM   14  C   UNL     1     -41.626  56.374 -54.746  1.00  0.00     0.110 A 
HETATM   15  S   UNL     1     -41.765  57.758 -53.723  1.00  0.00    -0.072 SA
ENDROOT
BRANCH   1  16
HETATM   16  C   UNL     1     -42.061  57.803 -58.624  1.00  0.00     0.114 C 
BRANCH  16  17
HETATM   17  C   UNL     1     -42.630  56.623 -59.371  1.00  0.00     0.218 C 
HETATM   18  N   UNL     1     -43.860  56.198 -58.927  1.00  0.00    -0.359 N 
HETATM   19  H   UNL     1     -44.222  56.533 -58.043  1.00  0.00     0.162 HD
HETATM   20  O   UNL     1     -42.032  56.090 -60.299  1.00  0.00    -0.274 OA
BRANCH  18  21
HETATM   21  C   UNL     1     -44.559  55.092 -59.564  1.00  0.00     0.142 C 
BRANCH  21  22
HETATM   22  C   UNL     1     -45.330  55.526 -60.815  1.00  0.00     0.142 C 
BRANCH  22  23
HETATM   23  N   UNL     1     -45.989  56.813 -60.651  1.00  0.00    -0.360 N 
HETATM   24  C   UNL     1     -47.190  57.086 -61.262  1.00  0.00     0.213 C 
HETATM   25  C   UNL     1     -47.747  58.451 -60.957  1.00  0.00     0.117 C 
HETATM   26  O   UNL     1     -47.771  56.293 -61.994  1.00  0.00    -0.274 OA
HETATM   27  H   UNL     1     -45.549  57.502 -60.056  1.00  0.00     0.162 HD
ENDBRANCH  22  23
ENDBRANCH  21  22
ENDBRANCH  18  21
ENDBRANCH  16  17
ENDBRANCH   1  16
BRANCH   5  28
HETATM   28  C   UNL     1     -45.651  58.746 -55.404  1.00  0.00     0.176 C 
BRANCH  28  29
HETATM   29  O   UNL     1     -46.233  58.002 -56.473  1.00  0.00    -0.400 OA
HETATM   30  H   UNL     1     -46.380  58.646 -57.199  1.00  0.00     0.209 HD
ENDBRANCH  28  29
ENDBRANCH   5  28
BRANCH  14  31
HETATM   31  C   UNL     1     -41.122  55.089 -54.240  1.00  0.00     0.017 A 
HETATM   32  C   UNL     1     -41.076  54.755 -52.888  1.00  0.00     0.130 A 
HETATM   33  N   UNL     1     -40.613  53.575 -52.397  1.00  0.00    -0.272 NA
HETATM   34  C   UNL     1     -40.166  52.677 -53.298  1.00  0.00     0.116 A 
HETATM   35  C   UNL     1     -40.155  52.904 -54.663  1.00  0.00     0.020 A 
HETATM   36  C   UNL     1     -40.636  54.126 -55.133  1.00  0.00     0.017 A 
ENDBRANCH  14  31
BRANCH   7  37
HETATM   37  O   UNL     1     -47.505  60.297 -56.964  1.00  0.00    -0.395 OA
HETATM   38  H   UNL     1     -47.633  59.891 -56.087  1.00  0.00     0.210 HD
ENDBRANCH   7  37
TORSDOF 9
ENDMDL
MODEL 10
REMARK VINA RESULT:      -7.1     15.945     18.100
REMARK  9 active torsions:
REMARK  status: ('A' for Active; 'I' for Inactive)
REMARK       I    between atoms: C_2  and  N_3 
REMARK    1  A    between atoms: N_3  and  C_4 
REMARK    2  A    between atoms: C_4  and  C_5 
REMARK    3  A    between atoms: C_5  and  N_6 
REMARK       I    between atoms: N_6  and  C_7 
REMARK    4  A    between atoms: C_7  and  C_8 
REMARK    5  A    between atoms: C_8  and  C_9 
REMARK    6  A    between atoms: C_13  and  C_14 
REMARK    7  A    between atoms: C_14  and  O_15 
REMARK    8  A    between atoms: C_17  and  O_18 
REMARK    9  A    between atoms: C_25  and  C_26 
ROOT
HETATM    1  C   UNL     1     -36.054  40.585 -52.652  1.00  0.00     0.056 C 
HETATM    2  C   UNL     1     -34.874  40.782 -51.593  1.00  0.00    -0.030 C 
HETATM    3  C   UNL     1     -34.621  42.303 -51.374  1.00  0.00     0.016 C 
HETATM    4  C   UNL     1     -33.502  40.112 -52.068  1.00  0.00     0.012 C 
HETATM    5  C   UNL     1     -33.406  38.528 -51.937  1.00  0.00     0.008 C 
HETATM    6  C   UNL     1     -31.910  38.104 -52.037  1.00  0.00     0.020 C 
HETATM    7  C   UNL     1     -33.895  38.106 -50.517  1.00  0.00     0.128 C 
HETATM    8  C   UNL     1     -35.259  38.682 -50.158  1.00  0.00     0.033 C 
HETATM    9  C   UNL     1     -35.222  40.200 -50.199  1.00  0.00     0.013 C 
HETATM   10  C   UNL     1     -33.046  40.671 -53.444  1.00  0.00     0.054 C 
HETATM   11  C   UNL     1     -34.185  40.738 -54.392  1.00  0.00     0.010 A 
HETATM   12  C   UNL     1     -35.521  40.704 -54.065  1.00  0.00     0.054 A 
HETATM   13  N   UNL     1     -36.378  40.716 -55.149  1.00  0.00    -0.244 NA
HETATM   14  C   UNL     1     -35.700  40.837 -56.278  1.00  0.00     0.110 A 
HETATM   15  S   UNL     1     -33.985  40.876 -56.074  1.00  0.00    -0.072 SA
ENDROOT
BRANCH   1  16
HETATM   16  C   UNL     1     -37.290  41.506 -52.497  1.00  0.00     0.114 C 
BRANCH  16  17
HETATM   17  C   UNL     1     -38.617  40.790 -52.483  1.00  0.00     0.218 C 
HETATM   18  N   UNL     1     -39.680  41.536 -52.935  1.00  0.00    -0.359 N 
HETATM   19  H   UNL     1     -39.581  42.536 -53.056  1.00  0.00     0.162 HD
HETATM   20  O   UNL     1     -38.728  39.632 -52.093  1.00  0.00    -0.274 OA
BRANCH  18  21
HETATM   21  C   UNL     1     -41.021  40.978 -53.015  1.00  0.00     0.142 C 
BRANCH  21  22
HETATM   22  C   UNL     1     -41.489  40.379 -51.685  1.00  0.00     0.142 C 
BRANCH  22  23
HETATM   23  N   UNL     1     -41.746  38.949 -51.772  1.00  0.00    -0.360 N 
HETATM   24  C   UNL     1     -42.755  38.357 -51.052  1.00  0.00     0.213 C 
HETATM   25  C   UNL     1     -42.903  36.878 -51.287  1.00  0.00     0.117 C 
HETATM   26  O   UNL     1     -43.485  38.970 -50.281  1.00  0.00    -0.274 OA
HETATM   27  H   UNL     1     -41.170  38.398 -52.395  1.00  0.00     0.162 HD
ENDBRANCH  22  23
ENDBRANCH  21  22
ENDBRANCH  18  21
ENDBRANCH  16  17
ENDBRANCH   1  16
BRANCH   5  28
HETATM   28  C   UNL     1     -34.164  37.755 -53.052  1.00  0.00     0.176 C 
BRANCH  28  29
HETATM   29  O   UNL     1     -33.290  36.971 -53.861  1.00  0.00    -0.400 OA
HETATM   30  H   UNL     1     -33.450  36.038 -53.602  1.00  0.00     0.209 HD
ENDBRANCH  28  29
ENDBRANCH   5  28
BRANCH  14  31
HETATM   31  C   UNL     1     -36.318  40.889 -57.611  1.00  0.00     0.017 A 
HETATM   32  C   UNL     1     -36.696  39.760 -58.334  1.00  0.00     0.130 A 
HETATM   33  N   UNL     1     -37.266  39.785 -59.567  1.00  0.00    -0.272 NA
HETATM   34  C   UNL     1     -37.471  41.000 -60.116  1.00  0.00     0.116 A 
HETATM   35  C   UNL     1     -37.129  42.187 -59.494  1.00  0.00     0.020 A 
HETATM   36  C   UNL     1     -36.543  42.125 -58.230  1.00  0.00     0.017 A 
ENDBRANCH  14  31
BRANCH   7  37
HETATM   37  O   UNL     1     -33.985  36.685 -50.388  1.00  0.00    -0.395 OA
HETATM   38  H   UNL     1     -34.548  36.363 -51.116  1.00  0.00     0.210 HD
ENDBRANCH   7  37
TORSDOF 9
ENDMDL
