MODEL 1
REMARK VINA RESULT:      -8.6      0.000      0.000
REMARK  9 active torsions:
REMARK  status: ('A' for Active; 'I' for Inactive)
REMARK    1  A    between atoms: C_2  and  O_3 
REMARK    2  A    between atoms: O_3  and  C_4 
REMARK    3  A    between atoms: C_5  and  C_6 
REMARK    4  A    between atoms: N_7  and  C_9 
REMARK    5  A    between atoms: C_9  and  C_10 
REMARK       I    between atoms: C_10  and  N_11 
REMARK    6  A    between atoms: N_11  and  C_12 
REMARK    7  A    between atoms: C_20  and  C_21 
REMARK    8  A    between atoms: C_21  and  O_22 
REMARK    9  A    between atoms: C_28  and  O_29 
ROOT
HETATM    1  C   UNL     1     -43.720  57.545 -57.845  1.00  0.00     0.231 C 
HETATM    2  N   UNL     1     -42.901  56.259 -58.099  1.00  0.00    -0.054 N 
HETATM    3  H   UNL     1     -41.943  56.561 -57.861  1.00  0.00     0.281 HD
HETATM    4  C   UNL     1     -42.886  55.758 -59.514  1.00  0.00     0.239 C 
HETATM    5  C   UNL     1     -44.294  55.624 -60.066  1.00  0.00     0.066 C 
HETATM    6  C   UNL     1     -45.036  56.963 -60.019  1.00  0.00     0.065 C 
HETATM    7  C   UNL     1     -45.094  57.468 -58.567  1.00  0.00     0.055 C 
HETATM    8  C   UNL     1     -46.455  56.806 -60.599  1.00  0.00     0.038 C 
HETATM    9  C   UNL     1     -47.304  58.071 -60.454  1.00  0.00     0.003 C 
HETATM   10  C   UNL     1     -47.321  58.587 -59.020  1.00  0.00     0.001 C 
HETATM   11  C   UNL     1     -45.913  58.767 -58.454  1.00  0.00     0.010 C 
ENDROOT
BRANCH   2  12
HETATM   12  C   UNL     1     -43.181  55.141 -57.080  1.00  0.00     0.338 C 
BRANCH  12  13
HETATM   13  C   UNL     1     -42.346  55.275 -55.801  1.00  0.00     0.248 C 
HETATM   14  N   UNL     1     -42.627  54.298 -54.867  1.00  0.00    -0.319 N 
HETATM   15  H   UNL     1     -42.942  53.382 -55.191  1.00  0.00     0.169 HD
HETATM   16  O   UNL     1     -41.498  56.159 -55.719  1.00  0.00    -0.271 OA
BRANCH  14  17
HETATM   17  C   UNL     1     -42.177  54.302 -53.553  1.00  0.00     0.094 A 
HETATM   18  S   UNL     1     -43.021  55.175 -52.369  1.00  0.00    -0.075 SA
HETATM   19  C   UNL     1     -42.012  54.592 -51.137  1.00  0.00    -0.008 A 
HETATM   20  C   UNL     1     -41.028  53.739 -51.606  1.00  0.00    -0.026 A 
HETATM   21  C   UNL     1     -42.232  54.964 -49.702  1.00  0.00     0.047 C 
HETATM   22  C   UNL     1     -40.019  53.128 -50.669  1.00  0.00     0.041 C 
HETATM   23  C   UNL     1     -41.117  53.565 -53.041  1.00  0.00     0.080 A 
HETATM   24  C   UNL     1     -40.442  53.243 -49.197  1.00  0.00     0.005 C 
HETATM   25  C   UNL     1     -40.988  54.637 -48.866  1.00  0.00     0.005 C 
BRANCH  23  26
HETATM   26  C   UNL     1     -40.249  52.776 -53.922  1.00  0.00     0.296 C 
HETATM   27  O   UNL     1     -39.838  53.217 -54.993  1.00  0.00    -0.259 OA
BRANCH  26  28
HETATM   28  O   UNL     1     -39.922  51.557 -53.415  1.00  0.00    -0.322 OA
HETATM   29  C   UNL     1     -40.185  50.456 -54.287  1.00  0.00     0.213 C 
ENDBRANCH  26  28
ENDBRANCH  23  26
ENDBRANCH  14  17
ENDBRANCH  12  13
ENDBRANCH   2  12
BRANCH   1  30
HETATM   30  C   UNL     1     -42.908  58.832 -57.986  1.00  0.00     0.006 A 
HETATM   31  C   UNL     1     -42.581  59.589 -56.832  1.00  0.00     0.077 A 
HETATM   32  C   UNL     1     -41.821  60.759 -56.948  1.00  0.00     0.037 A 
HETATM   33  C   UNL     1     -41.383  61.201 -58.195  1.00  0.00     0.003 A 
HETATM   34  C   UNL     1     -41.709  60.482 -59.335  1.00  0.00     0.001 A 
HETATM   35  C   UNL     1     -42.464  59.313 -59.231  1.00  0.00     0.012 A 
BRANCH  31  36
HETATM   36  O   UNL     1     -43.067  59.103 -55.646  1.00  0.00    -0.351 OA
BRANCH  36  37
HETATM   37  C   UNL     1     -42.714  59.741 -54.416  1.00  0.00     0.171 C 
HETATM   38  C   UNL     1     -41.539  59.045 -53.748  1.00  0.00     0.034 C 
ENDBRANCH  36  37
ENDBRANCH  31  36
ENDBRANCH   1  30
BRANCH   6  39
HETATM   39  O   UNL     1     -44.299  57.860 -60.845  1.00  0.00    -0.389 OA
HETATM   40  H   UNL     1     -43.583  58.278 -60.331  1.00  0.00     0.210 HD
ENDBRANCH   6  39
TORSDOF 9
ENDMDL
MODEL 2
REMARK VINA RESULT:      -8.4      3.228      5.941
REMARK  9 active torsions:
REMARK  status: ('A' for Active; 'I' for Inactive)
REMARK    1  A    between atoms: C_2  and  O_3 
REMARK    2  A    between atoms: O_3  and  C_4 
REMARK    3  A    between atoms: C_5  and  C_6 
REMARK    4  A    between atoms: N_7  and  C_9 
REMARK    5  A    between atoms: C_9  and  C_10 
REMARK       I    between atoms: C_10  and  N_11 
REMARK    6  A    between atoms: N_11  and  C_12 
REMARK    7  A    between atoms: C_20  and  C_21 
REMARK    8  A    between atoms: C_21  and  O_22 
REMARK    9  A    between atoms: C_28  and  O_29 
ROOT
HETATM    1  C   UNL     1     -43.115  58.950 -52.367  1.00  0.00     0.231 C 
HETATM    2  N   UNL     1     -43.635  57.614 -51.789  1.00  0.00    -0.054 N 
HETATM    3  H   UNL     1     -43.473  56.960 -52.572  1.00  0.00     0.281 HD
HETATM    4  C   UNL     1     -45.096  57.570 -51.450  1.00  0.00     0.239 C 
HETATM    5  C   UNL     1     -45.493  58.739 -50.564  1.00  0.00     0.066 C 
HETATM    6  C   UNL     1     -45.178  60.076 -51.240  1.00  0.00     0.065 C 
HETATM    7  C   UNL     1     -43.673  60.151 -51.555  1.00  0.00     0.055 C 
HETATM    8  C   UNL     1     -45.603  61.245 -50.329  1.00  0.00     0.038 C 
HETATM    9  C   UNL     1     -45.189  62.612 -50.879  1.00  0.00     0.003 C 
HETATM   10  C   UNL     1     -43.706  62.663 -51.228  1.00  0.00     0.001 C 
HETATM   11  C   UNL     1     -43.290  61.519 -52.151  1.00  0.00     0.010 C 
ENDROOT
BRANCH   2  12
HETATM   12  C   UNL     1     -42.751  57.045 -50.666  1.00  0.00     0.338 C 
BRANCH  12  13
HETATM   13  C   UNL     1     -42.448  55.553 -50.842  1.00  0.00     0.248 C 
HETATM   14  N   UNL     1     -41.195  55.315 -51.371  1.00  0.00    -0.319 N 
HETATM   15  H   UNL     1     -40.445  55.982 -51.181  1.00  0.00     0.169 HD
HETATM   16  O   UNL     1     -43.269  54.718 -50.474  1.00  0.00    -0.271 OA
BRANCH  14  17
HETATM   17  C   UNL     1     -40.746  54.082 -51.825  1.00  0.00     0.094 A 
HETATM   18  S   UNL     1     -40.230  52.906 -50.717  1.00  0.00    -0.075 SA
HETATM   19  C   UNL     1     -40.012  51.759 -51.946  1.00  0.00    -0.008 A 
HETATM   20  C   UNL     1     -40.322  52.251 -53.203  1.00  0.00    -0.026 A 
HETATM   21  C   UNL     1     -39.566  50.360 -51.644  1.00  0.00     0.047 C 
HETATM   22  C   UNL     1     -40.178  51.391 -54.430  1.00  0.00     0.041 C 
HETATM   23  C   UNL     1     -40.755  53.631 -53.139  1.00  0.00     0.080 A 
HETATM   24  C   UNL     1     -40.046  49.899 -54.088  1.00  0.00     0.005 C 
HETATM   25  C   UNL     1     -39.080  49.664 -52.921  1.00  0.00     0.005 C 
BRANCH  23  26
HETATM   26  C   UNL     1     -41.138  54.521 -54.240  1.00  0.00     0.296 C 
HETATM   27  O   UNL     1     -40.409  55.435 -54.620  1.00  0.00    -0.259 OA
BRANCH  26  28
HETATM   28  O   UNL     1     -42.332  54.202 -54.808  1.00  0.00    -0.322 OA
HETATM   29  C   UNL     1     -43.430  55.015 -54.389  1.00  0.00     0.213 C 
ENDBRANCH  26  28
ENDBRANCH  23  26
ENDBRANCH  14  17
ENDBRANCH  12  13
ENDBRANCH   2  12
BRANCH   1  30
HETATM   30  C   UNL     1     -43.174  59.027 -53.893  1.00  0.00     0.006 A 
HETATM   31  C   UNL     1     -42.016  59.390 -54.626  1.00  0.00     0.077 A 
HETATM   32  C   UNL     1     -42.056  59.445 -56.025  1.00  0.00     0.037 A 
HETATM   33  C   UNL     1     -43.230  59.152 -56.714  1.00  0.00     0.003 A 
HETATM   34  C   UNL     1     -44.376  58.812 -56.013  1.00  0.00     0.001 A 
HETATM   35  C   UNL     1     -44.348  58.753 -54.618  1.00  0.00     0.012 A 
BRANCH  31  36
HETATM   36  O   UNL     1     -40.907  59.685 -53.877  1.00  0.00    -0.351 OA
BRANCH  36  37
HETATM   37  C   UNL     1     -40.203  58.640 -53.201  1.00  0.00     0.171 C 
HETATM   38  C   UNL     1     -39.745  59.082 -51.822  1.00  0.00     0.034 C 
ENDBRANCH  36  37
ENDBRANCH  31  36
ENDBRANCH   1  30
BRANCH   6  39
HETATM   39  O   UNL     1     -45.956  60.117 -52.432  1.00  0.00    -0.389 OA
HETATM   40  H   UNL     1     -45.458  59.719 -53.171  1.00  0.00     0.210 HD
ENDBRANCH   6  39
TORSDOF 9
ENDMDL
MODEL 3
REMARK VINA RESULT:      -8.3      2.262      4.859
REMARK  9 active torsions:
REMARK  status: ('A' for Active; 'I' for Inactive)
REMARK    1  A    between atoms: C_2  and  O_3 
REMARK    2  A    between atoms: O_3  and  C_4 
REMARK    3  A    between atoms: C_5  and  C_6 
REMARK    4  A    between atoms: N_7  and  C_9 
REMARK    5  A    between atoms: C_9  and  C_10 
REMARK       I    between atoms: C_10  and  N_11 
REMARK    6  A    between atoms: N_11  and  C_12 
REMARK    7  A    between atoms: C_20  and  C_21 
REMARK    8  A    between atoms: C_21  and  O_22 
REMARK    9  A    between atoms: C_28  and  O_29 
ROOT
HETATM    1  C   UNL     1     -43.771  58.363 -56.511  1.00  0.00     0.231 C 
HETATM    2  N   UNL     1     -43.922  57.639 -55.153  1.00  0.00    -0.054 N 
HETATM    3  H   UNL     1     -44.332  56.734 -55.434  1.00  0.00     0.281 HD
HETATM    4  C   UNL     1     -44.855  58.279 -54.167  1.00  0.00     0.239 C 
HETATM    5  C   UNL     1     -44.523  59.748 -53.968  1.00  0.00     0.066 C 
HETATM    6  C   UNL     1     -44.594  60.515 -55.291  1.00  0.00     0.065 C 
HETATM    7  C   UNL     1     -43.610  59.894 -56.298  1.00  0.00     0.055 C 
HETATM    8  C   UNL     1     -44.269  62.004 -55.059  1.00  0.00     0.038 C 
HETATM    9  C   UNL     1     -44.181  62.805 -56.360  1.00  0.00     0.003 C 
HETATM   10  C   UNL     1     -43.237  62.159 -57.368  1.00  0.00     0.001 C 
HETATM   11  C   UNL     1     -43.575  60.690 -57.616  1.00  0.00     0.010 C 
ENDROOT
BRANCH   2  12
HETATM   12  C   UNL     1     -42.579  57.236 -54.520  1.00  0.00     0.338 C 
BRANCH  12  13
HETATM   13  C   UNL     1     -42.552  55.776 -54.054  1.00  0.00     0.248 C 
HETATM   14  N   UNL     1     -41.354  55.417 -53.470  1.00  0.00    -0.319 N 
HETATM   15  H   UNL     1     -40.810  56.131 -52.982  1.00  0.00     0.169 HD
HETATM   16  O   UNL     1     -43.556  55.080 -54.177  1.00  0.00    -0.271 OA
BRANCH  14  17
HETATM   17  C   UNL     1     -40.984  54.117 -53.152  1.00  0.00     0.094 A 
HETATM   18  S   UNL     1     -40.456  53.062 -54.370  1.00  0.00    -0.075 SA
HETATM   19  C   UNL     1     -40.086  51.851 -53.243  1.00  0.00    -0.008 A 
HETATM   20  C   UNL     1     -40.360  52.227 -51.939  1.00  0.00    -0.026 A 
HETATM   21  C   UNL     1     -39.489  50.542 -53.665  1.00  0.00     0.047 C 
HETATM   22  C   UNL     1     -40.116  51.283 -50.792  1.00  0.00     0.041 C 
HETATM   23  C   UNL     1     -40.897  53.570 -51.877  1.00  0.00     0.080 A 
HETATM   24  C   UNL     1     -39.217  50.102 -51.185  1.00  0.00     0.005 C 
HETATM   25  C   UNL     1     -39.616  49.507 -52.541  1.00  0.00     0.005 C 
BRANCH  23  26
HETATM   26  C   UNL     1     -41.344  54.323 -50.701  1.00  0.00     0.296 C 
HETATM   27  O   UNL     1     -42.532  54.570 -50.499  1.00  0.00    -0.259 OA
BRANCH  26  28
HETATM   28  O   UNL     1     -40.333  54.667 -49.858  1.00  0.00    -0.322 OA
HETATM   29  C   UNL     1     -40.469  54.170 -48.525  1.00  0.00     0.213 C 
ENDBRANCH  26  28
ENDBRANCH  23  26
ENDBRANCH  14  17
ENDBRANCH  12  13
ENDBRANCH   2  12
BRANCH   1  30
HETATM   30  C   UNL     1     -44.759  57.888 -57.577  1.00  0.00     0.006 A 
HETATM   31  C   UNL     1     -44.291  57.143 -58.689  1.00  0.00     0.077 A 
HETATM   32  C   UNL     1     -45.191  56.688 -59.661  1.00  0.00     0.037 A 
HETATM   33  C   UNL     1     -46.552  56.964 -59.554  1.00  0.00     0.003 A 
HETATM   34  C   UNL     1     -47.024  57.705 -58.482  1.00  0.00     0.001 A 
HETATM   35  C   UNL     1     -46.137  58.163 -57.506  1.00  0.00     0.012 A 
BRANCH  31  36
HETATM   36  O   UNL     1     -42.938  56.932 -58.736  1.00  0.00    -0.351 OA
BRANCH  36  37
HETATM   37  C   UNL     1     -42.236  57.077 -59.974  1.00  0.00     0.171 C 
HETATM   38  C   UNL     1     -42.071  58.540 -60.349  1.00  0.00     0.034 C 
ENDBRANCH  36  37
ENDBRANCH  31  36
ENDBRANCH   1  30
BRANCH   6  39
HETATM   39  O   UNL     1     -45.937  60.404 -55.749  1.00  0.00    -0.389 OA
HETATM   40  H   UNL     1     -46.534  60.225 -54.999  1.00  0.00     0.210 HD
ENDBRANCH   6  39
TORSDOF 9
ENDMDL
MODEL 4
REMARK VINA RESULT:      -8.2      1.408      1.787
REMARK  9 active torsions:
REMARK  status: ('A' for Active; 'I' for Inactive)
REMARK    1  A    between atoms: C_2  and  O_3 
REMARK    2  A    between atoms: O_3  and  C_4 
REMARK    3  A    between atoms: C_5  and  C_6 
REMARK    4  A    between atoms: N_7  and  C_9 
REMARK    5  A    between atoms: C_9  and  C_10 
REMARK       I    between atoms: C_10  and  N_11 
REMARK    6  A    between atoms: N_11  and  C_12 
REMARK    7  A    between atoms: C_20  and  C_21 
REMARK    8  A    between atoms: C_21  and  O_22 
REMARK    9  A    between atoms: C_28  and  O_29 
ROOT
HETATM    1  C   UNL     1     -44.135  58.406 -58.500  1.00  0.00     0.231 C 
HETATM    2  N   UNL     1     -43.283  57.492 -57.590  1.00  0.00    -0.054 N 
HETATM    3  H   UNL     1     -42.429  58.057 -57.453  1.00  0.00     0.281 HD
HETATM    4  C   UNL     1     -42.873  56.175 -58.181  1.00  0.00     0.239 C 
HETATM    5  C   UNL     1     -44.069  55.425 -58.740  1.00  0.00     0.066 C 
HETATM    6  C   UNL     1     -44.788  56.250 -59.811  1.00  0.00     0.065 C 
HETATM    7  C   UNL     1     -45.251  57.587 -59.205  1.00  0.00     0.055 C 
HETATM    8  C   UNL     1     -45.988  55.462 -60.373  1.00  0.00     0.038 C 
HETATM    9  C   UNL     1     -46.838  56.281 -61.346  1.00  0.00     0.003 C 
HETATM   10  C   UNL     1     -47.256  57.622 -60.753  1.00  0.00     0.001 C 
HETATM   11  C   UNL     1     -46.064  58.414 -60.219  1.00  0.00     0.010 C 
ENDROOT
BRANCH   2  12
HETATM   12  C   UNL     1     -43.842  57.350 -56.164  1.00  0.00     0.338 C 
BRANCH  12  13
HETATM   13  C   UNL     1     -42.762  57.022 -55.128  1.00  0.00     0.248 C 
HETATM   14  N   UNL     1     -43.042  55.887 -54.395  1.00  0.00    -0.319 N 
HETATM   15  H   UNL     1     -43.593  55.143 -54.829  1.00  0.00     0.169 HD
HETATM   16  O   UNL     1     -41.754  57.720 -55.059  1.00  0.00    -0.271 OA
BRANCH  14  17
HETATM   17  C   UNL     1     -42.349  55.481 -53.262  1.00  0.00     0.094 A 
HETATM   18  S   UNL     1     -42.639  56.238 -51.772  1.00  0.00    -0.075 SA
HETATM   19  C   UNL     1     -41.611  55.162 -50.959  1.00  0.00    -0.008 A 
HETATM   20  C   UNL     1     -41.037  54.225 -51.801  1.00  0.00    -0.026 A 
HETATM   21  C   UNL     1     -41.412  55.238 -49.475  1.00  0.00     0.047 C 
HETATM   22  C   UNL     1     -40.080  53.190 -51.273  1.00  0.00     0.041 C 
HETATM   23  C   UNL     1     -41.467  54.411 -53.171  1.00  0.00     0.080 A 
HETATM   24  C   UNL     1     -40.137  53.065 -49.743  1.00  0.00     0.005 C 
HETATM   25  C   UNL     1     -40.173  54.436 -49.059  1.00  0.00     0.005 C 
BRANCH  23  26
HETATM   26  C   UNL     1     -41.069  53.658 -54.365  1.00  0.00     0.296 C 
HETATM   27  O   UNL     1     -40.430  54.177 -55.278  1.00  0.00    -0.259 OA
BRANCH  26  28
HETATM   28  O   UNL     1     -41.433  52.348 -54.329  1.00  0.00    -0.322 OA
HETATM   29  C   UNL     1     -40.345  51.422 -54.368  1.00  0.00     0.213 C 
ENDBRANCH  26  28
ENDBRANCH  23  26
ENDBRANCH  14  17
ENDBRANCH  12  13
ENDBRANCH   2  12
BRANCH   1  30
HETATM   30  C   UNL     1     -43.311  59.374 -59.349  1.00  0.00     0.006 A 
HETATM   31  C   UNL     1     -43.321  60.760 -59.048  1.00  0.00     0.077 A 
HETATM   32  C   UNL     1     -42.554  61.652 -59.809  1.00  0.00     0.037 A 
HETATM   33  C   UNL     1     -41.780  61.194 -60.872  1.00  0.00     0.003 A 
HETATM   34  C   UNL     1     -41.772  59.845 -61.190  1.00  0.00     0.001 A 
HETATM   35  C   UNL     1     -42.531  58.946 -60.438  1.00  0.00     0.012 A 
BRANCH  31  36
HETATM   36  O   UNL     1     -44.125  61.136 -58.004  1.00  0.00    -0.351 OA
BRANCH  36  37
HETATM   37  C   UNL     1     -43.571  61.859 -56.902  1.00  0.00     0.171 C 
HETATM   38  C   UNL     1     -42.740  60.954 -56.007  1.00  0.00     0.034 C 
ENDBRANCH  36  37
ENDBRANCH  31  36
ENDBRANCH   1  30
BRANCH   6  39
HETATM   39  O   UNL     1     -43.845  56.459 -60.857  1.00  0.00    -0.389 OA
HETATM   40  H   UNL     1     -44.301  56.770 -61.662  1.00  0.00     0.210 HD
ENDBRANCH   6  39
TORSDOF 9
ENDMDL
MODEL 5
REMARK VINA RESULT:      -8.1      2.941      8.742
REMARK  9 active torsions:
REMARK  status: ('A' for Active; 'I' for Inactive)
REMARK    1  A    between atoms: C_2  and  O_3 
REMARK    2  A    between atoms: O_3  and  C_4 
REMARK    3  A    between atoms: C_5  and  C_6 
REMARK    4  A    between atoms: N_7  and  C_9 
REMARK    5  A    between atoms: C_9  and  C_10 
REMARK       I    between atoms: C_10  and  N_11 
REMARK    6  A    between atoms: N_11  and  C_12 
REMARK    7  A    between atoms: C_20  and  C_21 
REMARK    8  A    between atoms: C_21  and  O_22 
REMARK    9  A    between atoms: C_28  and  O_29 
ROOT
HETATM    1  C   UNL     1     -42.612  57.241 -52.778  1.00  0.00     0.231 C 
HETATM    2  N   UNL     1     -43.231  56.795 -54.122  1.00  0.00    -0.054 N 
HETATM    3  H   UNL     1     -43.916  57.546 -54.306  1.00  0.00     0.281 HD
HETATM    4  C   UNL     1     -43.974  55.491 -54.102  1.00  0.00     0.239 C 
HETATM    5  C   UNL     1     -43.129  54.384 -53.497  1.00  0.00     0.066 C 
HETATM    6  C   UNL     1     -42.699  54.734 -52.070  1.00  0.00     0.065 C 
HETATM    7  C   UNL     1     -41.899  56.049 -52.082  1.00  0.00     0.055 C 
HETATM    8  C   UNL     1     -41.856  53.589 -51.473  1.00  0.00     0.038 C 
HETATM    9  C   UNL     1     -41.272  53.931 -50.100  1.00  0.00     0.003 C 
HETATM   10  C   UNL     1     -40.518  55.256 -50.112  1.00  0.00     0.001 C 
HETATM   11  C   UNL     1     -41.362  56.396 -50.681  1.00  0.00     0.010 C 
ENDROOT
BRANCH   2  12
HETATM   12  C   UNL     1     -42.262  56.904 -55.311  1.00  0.00     0.338 C 
BRANCH  12  13
HETATM   13  C   UNL     1     -42.735  57.896 -56.380  1.00  0.00     0.248 C 
HETATM   14  N   UNL     1     -41.803  58.102 -57.377  1.00  0.00    -0.319 N 
HETATM   15  H   UNL     1     -41.160  57.344 -57.616  1.00  0.00     0.169 HD
HETATM   16  O   UNL     1     -43.864  58.372 -56.309  1.00  0.00    -0.271 OA
BRANCH  14  17
HETATM   17  C   UNL     1     -41.882  59.094 -58.345  1.00  0.00     0.094 A 
HETATM   18  S   UNL     1     -41.470  60.693 -57.958  1.00  0.00    -0.075 SA
HETATM   19  C   UNL     1     -41.668  61.195 -59.565  1.00  0.00    -0.008 A 
HETATM   20  C   UNL     1     -42.049  60.165 -60.408  1.00  0.00    -0.026 A 
HETATM   21  C   UNL     1     -41.405  62.610 -59.983  1.00  0.00     0.047 C 
HETATM   22  C   UNL     1     -42.293  60.411 -61.874  1.00  0.00     0.041 C 
HETATM   23  C   UNL     1     -42.183  58.915 -59.690  1.00  0.00     0.080 A 
HETATM   24  C   UNL     1     -41.714  61.753 -62.347  1.00  0.00     0.005 C 
HETATM   25  C   UNL     1     -42.020  62.886 -61.361  1.00  0.00     0.005 C 
BRANCH  23  26
HETATM   26  C   UNL     1     -42.597  57.605 -60.203  1.00  0.00     0.296 C 
HETATM   27  O   UNL     1     -41.799  56.682 -60.349  1.00  0.00    -0.259 OA
BRANCH  26  28
HETATM   28  O   UNL     1     -43.932  57.514 -60.448  1.00  0.00    -0.322 OA
HETATM   29  C   UNL     1     -44.563  56.353 -59.903  1.00  0.00     0.213 C 
ENDBRANCH  26  28
ENDBRANCH  23  26
ENDBRANCH  14  17
ENDBRANCH  12  13
ENDBRANCH   2  12
BRANCH   1  30
HETATM   30  C   UNL     1     -43.538  58.115 -51.931  1.00  0.00     0.006 A 
HETATM   31  C   UNL     1     -43.055  59.332 -51.385  1.00  0.00     0.077 A 
HETATM   32  C   UNL     1     -43.901  60.148 -50.624  1.00  0.00     0.037 A 
HETATM   33  C   UNL     1     -45.222  59.775 -50.386  1.00  0.00     0.003 A 
HETATM   34  C   UNL     1     -45.706  58.581 -50.898  1.00  0.00     0.001 A 
HETATM   35  C   UNL     1     -44.872  57.760 -51.660  1.00  0.00     0.012 A 
BRANCH  31  36
HETATM   36  O   UNL     1     -41.740  59.618 -51.643  1.00  0.00    -0.351 OA
BRANCH  36  37
HETATM   37  C   UNL     1     -40.861  59.964 -50.569  1.00  0.00     0.171 C 
HETATM   38  C   UNL     1     -39.459  59.431 -50.807  1.00  0.00     0.034 C 
ENDBRANCH  36  37
ENDBRANCH  31  36
ENDBRANCH   1  30
BRANCH   6  39
HETATM   39  O   UNL     1     -43.896  54.868 -51.310  1.00  0.00    -0.389 OA
HETATM   40  H   UNL     1     -43.967  54.140 -50.665  1.00  0.00     0.210 HD
ENDBRANCH   6  39
TORSDOF 9
ENDMDL
MODEL 6
REMARK VINA RESULT:      -8.0      2.035      3.357
REMARK  9 active torsions:
REMARK  status: ('A' for Active; 'I' for Inactive)
REMARK    1  A    between atoms: C_2  and  O_3 
REMARK    2  A    between atoms: O_3  and  C_4 
REMARK    3  A    between atoms: C_5  and  C_6 
REMARK    4  A    between atoms: N_7  and  C_9 
REMARK    5  A    between atoms: C_9  and  C_10 
REMARK       I    between atoms: C_10  and  N_11 
REMARK    6  A    between atoms: N_11  and  C_12 
REMARK    7  A    between atoms: C_20  and  C_21 
REMARK    8  A    between atoms: C_21  and  O_22 
REMARK    9  A    between atoms: C_28  and  O_29 
ROOT
HETATM    1  C   UNL     1     -44.227  58.274 -58.503  1.00  0.00     0.231 C 
HETATM    2  N   UNL     1     -43.402  57.291 -57.641  1.00  0.00    -0.054 N 
HETATM    3  H   UNL     1     -42.527  57.817 -57.488  1.00  0.00     0.281 HD
HETATM    4  C   UNL     1     -43.046  55.987 -58.292  1.00  0.00     0.239 C 
HETATM    5  C   UNL     1     -44.274  55.306 -58.870  1.00  0.00     0.066 C 
HETATM    6  C   UNL     1     -44.970  56.202 -59.899  1.00  0.00     0.065 C 
HETATM    7  C   UNL     1     -45.378  57.529 -59.232  1.00  0.00     0.055 C 
HETATM    8  C   UNL     1     -46.203  55.484 -60.482  1.00  0.00     0.038 C 
HETATM    9  C   UNL     1     -47.029  56.375 -61.412  1.00  0.00     0.003 C 
HETATM   10  C   UNL     1     -47.392  57.704 -60.759  1.00  0.00     0.001 C 
HETATM   11  C   UNL     1     -46.166  58.428 -60.202  1.00  0.00     0.010 C 
ENDROOT
BRANCH   2  12
HETATM   12  C   UNL     1     -43.956  57.109 -56.217  1.00  0.00     0.338 C 
BRANCH  12  13
HETATM   13  C   UNL     1     -42.927  56.518 -55.247  1.00  0.00     0.248 C 
HETATM   14  N   UNL     1     -43.482  55.635 -54.343  1.00  0.00    -0.319 N 
HETATM   15  H   UNL     1     -44.308  55.099 -54.619  1.00  0.00     0.169 HD
HETATM   16  O   UNL     1     -41.741  56.811 -55.365  1.00  0.00    -0.271 OA
BRANCH  14  17
HETATM   17  C   UNL     1     -42.828  55.119 -53.232  1.00  0.00     0.094 A 
HETATM   18  S   UNL     1     -41.779  53.797 -53.402  1.00  0.00    -0.075 SA
HETATM   19  C   UNL     1     -41.318  53.878 -51.773  1.00  0.00    -0.008 A 
HETATM   20  C   UNL     1     -41.951  54.898 -51.084  1.00  0.00    -0.026 A 
HETATM   21  C   UNL     1     -40.296  52.943 -51.199  1.00  0.00     0.047 C 
HETATM   22  C   UNL     1     -41.689  55.124 -49.618  1.00  0.00     0.041 C 
HETATM   23  C   UNL     1     -42.853  55.636 -51.943  1.00  0.00     0.080 A 
HETATM   24  C   UNL     1     -40.427  54.398 -49.129  1.00  0.00     0.005 C 
HETATM   25  C   UNL     1     -40.349  52.964 -49.667  1.00  0.00     0.005 C 
BRANCH  23  26
HETATM   26  C   UNL     1     -43.731  56.759 -51.597  1.00  0.00     0.296 C 
HETATM   27  O   UNL     1     -44.647  56.642 -50.785  1.00  0.00    -0.259 OA
BRANCH  26  28
HETATM   28  O   UNL     1     -43.400  57.921 -52.221  1.00  0.00    -0.322 OA
HETATM   29  C   UNL     1     -44.511  58.734 -52.603  1.00  0.00     0.213 C 
ENDBRANCH  26  28
ENDBRANCH  23  26
ENDBRANCH  14  17
ENDBRANCH  12  13
ENDBRANCH   2  12
BRANCH   1  30
HETATM   30  C   UNL     1     -43.373  59.247 -59.318  1.00  0.00     0.006 A 
HETATM   31  C   UNL     1     -43.393  60.631 -59.010  1.00  0.00     0.077 A 
HETATM   32  C   UNL     1     -42.600  61.526 -59.739  1.00  0.00     0.037 A 
HETATM   33  C   UNL     1     -41.789  61.074 -60.777  1.00  0.00     0.003 A 
HETATM   34  C   UNL     1     -41.771  59.727 -61.102  1.00  0.00     0.001 A 
HETATM   35  C   UNL     1     -42.555  58.824 -60.382  1.00  0.00     0.012 A 
BRANCH  31  36
HETATM   36  O   UNL     1     -44.233  61.001 -57.992  1.00  0.00    -0.351 OA
BRANCH  36  37
HETATM   37  C   UNL     1     -45.373  61.819 -58.269  1.00  0.00     0.171 C 
HETATM   38  C   UNL     1     -46.649  61.190 -57.735  1.00  0.00     0.034 C 
ENDBRANCH  36  37
ENDBRANCH  31  36
ENDBRANCH   1  30
BRANCH   6  39
HETATM   39  O   UNL     1     -44.028  56.421 -60.944  1.00  0.00    -0.389 OA
HETATM   40  H   UNL     1     -44.415  56.167 -61.803  1.00  0.00     0.210 HD
ENDBRANCH   6  39
TORSDOF 9
ENDMDL
MODEL 7
REMARK VINA RESULT:      -7.8      2.443      5.042
REMARK  9 active torsions:
REMARK  status: ('A' for Active; 'I' for Inactive)
REMARK    1  A    between atoms: C_2  and  O_3 
REMARK    2  A    between atoms: O_3  and  C_4 
REMARK    3  A    between atoms: C_5  and  C_6 
REMARK    4  A    between atoms: N_7  and  C_9 
REMARK    5  A    between atoms: C_9  and  C_10 
REMARK       I    between atoms: C_10  and  N_11 
REMARK    6  A    between atoms: N_11  and  C_12 
REMARK    7  A    between atoms: C_20  and  C_21 
REMARK    8  A    between atoms: C_21  and  O_22 
REMARK    9  A    between atoms: C_28  and  O_29 
ROOT
HETATM    1  C   UNL     1     -44.434  59.252 -57.363  1.00  0.00     0.231 C 
HETATM    2  N   UNL     1     -45.213  59.727 -56.115  1.00  0.00    -0.054 N 
HETATM    3  H   UNL     1     -45.995  59.054 -56.077  1.00  0.00     0.281 HD
HETATM    4  C   UNL     1     -45.798  61.107 -56.192  1.00  0.00     0.239 C 
HETATM    5  C   UNL     1     -44.751  62.128 -56.602  1.00  0.00     0.066 C 
HETATM    6  C   UNL     1     -44.134  61.772 -57.957  1.00  0.00     0.065 C 
HETATM    7  C   UNL     1     -43.493  60.375 -57.880  1.00  0.00     0.055 C 
HETATM    8  C   UNL     1     -43.087  62.830 -58.359  1.00  0.00     0.038 C 
HETATM    9  C   UNL     1     -42.327  62.464 -59.635  1.00  0.00     0.003 C 
HETATM   10  C   UNL     1     -41.732  61.062 -59.565  1.00  0.00     0.001 C 
HETATM   11  C   UNL     1     -42.775  60.010 -59.192  1.00  0.00     0.010 C 
ENDROOT
BRANCH   2  12
HETATM   12  C   UNL     1     -44.468  59.475 -54.793  1.00  0.00     0.338 C 
BRANCH  12  13
HETATM   13  C   UNL     1     -44.208  57.988 -54.527  1.00  0.00     0.248 C 
HETATM   14  N   UNL     1     -42.963  57.745 -53.983  1.00  0.00    -0.319 N 
HETATM   15  H   UNL     1     -42.532  58.464 -53.397  1.00  0.00     0.169 HD
HETATM   16  O   UNL     1     -45.092  57.166 -54.754  1.00  0.00    -0.271 OA
BRANCH  14  17
HETATM   17  C   UNL     1     -42.390  56.488 -53.838  1.00  0.00     0.094 A 
HETATM   18  S   UNL     1     -41.668  55.726 -55.170  1.00  0.00    -0.075 SA
HETATM   19  C   UNL     1     -41.129  54.435 -54.213  1.00  0.00    -0.008 A 
HETATM   20  C   UNL     1     -41.490  54.563 -52.883  1.00  0.00    -0.026 A 
HETATM   21  C   UNL     1     -40.315  53.316 -54.791  1.00  0.00     0.047 C 
HETATM   22  C   UNL     1     -41.120  53.509 -51.873  1.00  0.00     0.041 C 
HETATM   23  C   UNL     1     -42.243  55.778 -52.654  1.00  0.00     0.080 A 
HETATM   24  C   UNL     1     -40.030  52.559 -52.391  1.00  0.00     0.005 C 
HETATM   25  C   UNL     1     -40.295  52.118 -53.835  1.00  0.00     0.005 C 
BRANCH  23  26
HETATM   26  C   UNL     1     -42.835  56.265 -51.403  1.00  0.00     0.296 C 
HETATM   27  O   UNL     1     -44.043  56.455 -51.286  1.00  0.00    -0.259 OA
BRANCH  26  28
HETATM   28  O   UNL     1     -41.929  56.434 -50.402  1.00  0.00    -0.322 OA
HETATM   29  C   UNL     1     -41.063  57.560 -50.561  1.00  0.00     0.213 C 
ENDBRANCH  26  28
ENDBRANCH  23  26
ENDBRANCH  14  17
ENDBRANCH  12  13
ENDBRANCH   2  12
BRANCH   1  30
HETATM   30  C   UNL     1     -45.298  58.514 -58.386  1.00  0.00     0.006 A 
HETATM   31  C   UNL     1     -44.931  57.211 -58.809  1.00  0.00     0.077 A 
HETATM   32  C   UNL     1     -45.727  56.519 -59.731  1.00  0.00     0.037 A 
HETATM   33  C   UNL     1     -46.881  57.101 -60.250  1.00  0.00     0.003 A 
HETATM   34  C   UNL     1     -47.244  58.381 -59.861  1.00  0.00     0.001 A 
HETATM   35  C   UNL     1     -46.461  59.079 -58.941  1.00  0.00     0.012 A 
BRANCH  31  36
HETATM   36  O   UNL     1     -43.772  56.716 -58.271  1.00  0.00    -0.351 OA
BRANCH  36  37
HETATM   37  C   UNL     1     -42.957  55.822 -59.033  1.00  0.00     0.171 C 
HETATM   38  C   UNL     1     -42.062  56.578 -60.001  1.00  0.00     0.034 C 
ENDBRANCH  36  37
ENDBRANCH  31  36
ENDBRANCH   1  30
BRANCH   6  39
HETATM   39  O   UNL     1     -45.198  61.797 -58.903  1.00  0.00    -0.389 OA
HETATM   40  H   UNL     1     -44.980  61.234 -59.670  1.00  0.00     0.210 HD
ENDBRANCH   6  39
TORSDOF 9
ENDMDL
MODEL 8
REMARK VINA RESULT:      -7.7      1.880      2.990
REMARK  9 active torsions:
REMARK  status: ('A' for Active; 'I' for Inactive)
REMARK    1  A    between atoms: C_2  and  O_3 
REMARK    2  A    between atoms: O_3  and  C_4 
REMARK    3  A    between atoms: C_5  and  C_6 
REMARK    4  A    between atoms: N_7  and  C_9 
REMARK    5  A    between atoms: C_9  and  C_10 
REMARK       I    between atoms: C_10  and  N_11 
REMARK    6  A    between atoms: N_11  and  C_12 
REMARK    7  A    between atoms: C_20  and  C_21 
REMARK    8  A    between atoms: C_21  and  O_22 
REMARK    9  A    between atoms: C_28  and  O_29 
ROOT
HETATM    1  C   UNL     1     -43.636  58.294 -57.537  1.00  0.00     0.231 C 
HETATM    2  N   UNL     1     -42.853  57.508 -56.461  1.00  0.00    -0.054 N 
HETATM    3  H   UNL     1     -42.127  58.187 -56.180  1.00  0.00     0.281 HD
HETATM    4  C   UNL     1     -42.159  56.263 -56.931  1.00  0.00     0.239 C 
HETATM    5  C   UNL     1     -43.112  55.352 -57.686  1.00  0.00     0.066 C 
HETATM    6  C   UNL     1     -43.722  56.069 -58.893  1.00  0.00     0.065 C 
HETATM    7  C   UNL     1     -44.473  57.327 -58.420  1.00  0.00     0.055 C 
HETATM    8  C   UNL     1     -44.673  55.121 -59.651  1.00  0.00     0.038 C 
HETATM    9  C   UNL     1     -45.427  55.813 -60.787  1.00  0.00     0.003 C 
HETATM   10  C   UNL     1     -46.133  57.081 -60.317  1.00  0.00     0.001 C 
HETATM   11  C   UNL     1     -45.185  58.033 -59.588  1.00  0.00     0.010 C 
ENDROOT
BRANCH   2  12
HETATM   12  C   UNL     1     -43.648  57.286 -55.162  1.00  0.00     0.338 C 
BRANCH  12  13
HETATM   13  C   UNL     1     -43.404  55.906 -54.540  1.00  0.00     0.248 C 
HETATM   14  N   UNL     1     -42.130  55.762 -54.028  1.00  0.00    -0.319 N 
HETATM   15  H   UNL     1     -41.644  56.588 -53.674  1.00  0.00     0.169 HD
HETATM   16  O   UNL     1     -44.319  55.089 -54.495  1.00  0.00    -0.271 OA
BRANCH  14  17
HETATM   17  C   UNL     1     -41.577  54.562 -53.601  1.00  0.00     0.094 A 
HETATM   18  S   UNL     1     -40.939  53.471 -54.732  1.00  0.00    -0.075 SA
HETATM   19  C   UNL     1     -40.379  52.440 -53.508  1.00  0.00    -0.008 A 
HETATM   20  C   UNL     1     -40.670  52.905 -52.237  1.00  0.00    -0.026 A 
HETATM   21  C   UNL     1     -39.619  51.187 -53.825  1.00  0.00     0.047 C 
HETATM   22  C   UNL     1     -40.271  52.122 -51.014  1.00  0.00     0.041 C 
HETATM   23  C   UNL     1     -41.385  54.163 -52.284  1.00  0.00     0.080 A 
HETATM   24  C   UNL     1     -39.228  51.038 -51.326  1.00  0.00     0.005 C 
HETATM   25  C   UNL     1     -39.575  50.262 -52.602  1.00  0.00     0.005 C 
BRANCH  23  26
HETATM   26  C   UNL     1     -41.902  54.963 -51.169  1.00  0.00     0.296 C 
HETATM   27  O   UNL     1     -43.106  55.151 -51.008  1.00  0.00    -0.259 OA
BRANCH  26  28
HETATM   28  O   UNL     1     -40.933  55.421 -50.332  1.00  0.00    -0.322 OA
HETATM   29  C   UNL     1     -41.116  55.076 -48.958  1.00  0.00     0.213 C 
ENDBRANCH  26  28
ENDBRANCH  23  26
ENDBRANCH  14  17
ENDBRANCH  12  13
ENDBRANCH   2  12
BRANCH   1  30
HETATM   30  C   UNL     1     -42.808  59.370 -58.241  1.00  0.00     0.006 A 
HETATM   31  C   UNL     1     -42.089  60.320 -57.472  1.00  0.00     0.077 A 
HETATM   32  C   UNL     1     -41.312  61.298 -58.106  1.00  0.00     0.037 A 
HETATM   33  C   UNL     1     -41.241  61.356 -59.496  1.00  0.00     0.003 A 
HETATM   34  C   UNL     1     -41.951  60.446 -60.263  1.00  0.00     0.001 A 
HETATM   35  C   UNL     1     -42.727  59.466 -59.641  1.00  0.00     0.012 A 
BRANCH  31  36
HETATM   36  O   UNL     1     -42.227  60.212 -56.112  1.00  0.00    -0.351 OA
BRANCH  36  37
HETATM   37  C   UNL     1     -42.956  61.207 -55.389  1.00  0.00     0.171 C 
HETATM   38  C   UNL     1     -42.745  61.067 -53.890  1.00  0.00     0.034 C 
ENDBRANCH  36  37
ENDBRANCH  31  36
ENDBRANCH   1  30
BRANCH   6  39
HETATM   39  O   UNL     1     -42.636  56.411 -59.749  1.00  0.00    -0.389 OA
HETATM   40  H   UNL     1     -42.878  57.171 -60.311  1.00  0.00     0.210 HD
ENDBRANCH   6  39
TORSDOF 9
ENDMDL
MODEL 9
REMARK VINA RESULT:      -7.7      2.921      8.699
REMARK  9 active torsions:
REMARK  status: ('A' for Active; 'I' for Inactive)
REMARK    1  A    between atoms: C_2  and  O_3 
REMARK    2  A    between atoms: O_3  and  C_4 
REMARK    3  A    between atoms: C_5  and  C_6 
REMARK    4  A    between atoms: N_7  and  C_9 
REMARK    5  A    between atoms: C_9  and  C_10 
REMARK       I    between atoms: C_10  and  N_11 
REMARK    6  A    between atoms: N_11  and  C_12 
REMARK    7  A    between atoms: C_20  and  C_21 
REMARK    8  A    between atoms: C_21  and  O_22 
REMARK    9  A    between atoms: C_28  and  O_29 
ROOT
HETATM    1  C   UNL     1     -42.487  57.240 -52.567  1.00  0.00     0.231 C 
HETATM    2  N   UNL     1     -43.082  56.762 -53.911  1.00  0.00    -0.054 N 
HETATM    3  H   UNL     1     -43.732  57.529 -54.147  1.00  0.00     0.281 HD
HETATM    4  C   UNL     1     -43.875  55.488 -53.863  1.00  0.00     0.239 C 
HETATM    5  C   UNL     1     -43.092  54.376 -53.188  1.00  0.00     0.066 C 
HETATM    6  C   UNL     1     -42.691  54.768 -51.763  1.00  0.00     0.065 C 
HETATM    7  C   UNL     1     -41.842  56.051 -51.802  1.00  0.00     0.055 C 
HETATM    8  C   UNL     1     -41.912  53.619 -51.094  1.00  0.00     0.038 C 
HETATM    9  C   UNL     1     -41.357  53.994 -49.719  1.00  0.00     0.003 C 
HETATM   10  C   UNL     1     -40.552  55.289 -49.760  1.00  0.00     0.001 C 
HETATM   11  C   UNL     1     -41.334  56.435 -50.400  1.00  0.00     0.010 C 
ENDROOT
BRANCH   2  12
HETATM   12  C   UNL     1     -42.074  56.785 -55.073  1.00  0.00     0.338 C 
BRANCH  12  13
HETATM   13  C   UNL     1     -42.745  56.918 -56.445  1.00  0.00     0.248 C 
HETATM   14  N   UNL     1     -43.246  58.182 -56.682  1.00  0.00    -0.319 N 
HETATM   15  H   UNL     1     -42.788  58.984 -56.245  1.00  0.00     0.169 HD
HETATM   16  O   UNL     1     -42.746  55.962 -57.216  1.00  0.00    -0.271 OA
BRANCH  14  17
HETATM   17  C   UNL     1     -44.077  58.522 -57.742  1.00  0.00     0.094 A 
HETATM   18  S   UNL     1     -45.751  58.284 -57.618  1.00  0.00    -0.075 SA
HETATM   19  C   UNL     1     -46.026  59.022 -59.119  1.00  0.00    -0.008 A 
HETATM   20  C   UNL     1     -44.860  59.450 -59.730  1.00  0.00    -0.026 A 
HETATM   21  C   UNL     1     -47.411  59.201 -59.663  1.00  0.00     0.047 C 
HETATM   22  C   UNL     1     -44.890  60.116 -61.080  1.00  0.00     0.041 C 
HETATM   23  C   UNL     1     -43.698  59.152 -58.920  1.00  0.00     0.080 A 
HETATM   24  C   UNL     1     -46.300  60.585 -61.471  1.00  0.00     0.005 C 
HETATM   25  C   UNL     1     -47.362  59.523 -61.162  1.00  0.00     0.005 C 
BRANCH  23  26
HETATM   26  C   UNL     1     -42.285  59.409 -59.219  1.00  0.00     0.296 C 
HETATM   27  O   UNL     1     -41.852  60.547 -59.387  1.00  0.00    -0.259 OA
BRANCH  26  28
HETATM   28  O   UNL     1     -41.520  58.284 -59.241  1.00  0.00    -0.322 OA
HETATM   29  C   UNL     1     -41.841  57.363 -60.286  1.00  0.00     0.213 C 
ENDBRANCH  26  28
ENDBRANCH  23  26
ENDBRANCH  14  17
ENDBRANCH  12  13
ENDBRANCH   2  12
BRANCH   1  30
HETATM   30  C   UNL     1     -43.405  58.181 -51.786  1.00  0.00     0.006 A 
HETATM   31  C   UNL     1     -42.890  59.398 -51.269  1.00  0.00     0.077 A 
HETATM   32  C   UNL     1     -43.727  60.275 -50.568  1.00  0.00     0.037 A 
HETATM   33  C   UNL     1     -45.069  59.964 -50.363  1.00  0.00     0.003 A 
HETATM   34  C   UNL     1     -45.584  58.772 -50.847  1.00  0.00     0.001 A 
HETATM   35  C   UNL     1     -44.760  57.890 -51.548  1.00  0.00     0.012 A 
BRANCH  31  36
HETATM   36  O   UNL     1     -41.556  59.621 -51.492  1.00  0.00    -0.351 OA
BRANCH  36  37
HETATM   37  C   UNL     1     -40.692  59.929 -50.395  1.00  0.00     0.171 C 
HETATM   38  C   UNL     1     -39.267  59.478 -50.669  1.00  0.00     0.034 C 
ENDBRANCH  36  37
ENDBRANCH  31  36
ENDBRANCH   1  30
BRANCH   6  39
HETATM   39  O   UNL     1     -43.905  54.978 -51.048  1.00  0.00    -0.389 OA
HETATM   40  H   UNL     1     -43.736  54.957 -50.087  1.00  0.00     0.210 HD
ENDBRANCH   6  39
TORSDOF 9
ENDMDL
MODEL 10
REMARK VINA RESULT:      -7.6      2.269      8.601
REMARK  9 active torsions:
REMARK  status: ('A' for Active; 'I' for Inactive)
REMARK    1  A    between atoms: C_2  and  O_3 
REMARK    2  A    between atoms: O_3  and  C_4 
REMARK    3  A    between atoms: C_5  and  C_6 
REMARK    4  A    between atoms: N_7  and  C_9 
REMARK    5  A    between atoms: C_9  and  C_10 
REMARK       I    between atoms: C_10  and  N_11 
REMARK    6  A    between atoms: N_11  and  C_12 
REMARK    7  A    between atoms: C_20  and  C_21 
REMARK    8  A    between atoms: C_21  and  O_22 
REMARK    9  A    between atoms: C_28  and  O_29 
ROOT
HETATM    1  C   UNL     1     -42.534  55.613 -53.117  1.00  0.00     0.231 C 
HETATM    2  N   UNL     1     -41.839  55.891 -54.470  1.00  0.00    -0.054 N 
HETATM    3  H   UNL     1     -41.069  55.203 -54.465  1.00  0.00     0.281 HD
HETATM    4  C   UNL     1     -41.234  57.255 -54.629  1.00  0.00     0.239 C 
HETATM    5  C   UNL     1     -42.238  58.346 -54.297  1.00  0.00     0.066 C 
HETATM    6  C   UNL     1     -42.763  58.197 -52.867  1.00  0.00     0.065 C 
HETATM    7  C   UNL     1     -43.423  56.817 -52.702  1.00  0.00     0.055 C 
HETATM    8  C   UNL     1     -43.766  59.323 -52.549  1.00  0.00     0.038 C 
HETATM    9  C   UNL     1     -44.439  59.156 -51.184  1.00  0.00     0.003 C 
HETATM   10  C   UNL     1     -45.054  57.771 -51.015  1.00  0.00     0.001 C 
HETATM   11  C   UNL     1     -44.051  56.655 -51.305  1.00  0.00     0.010 C 
ENDROOT
BRANCH   2  12
HETATM   12  C   UNL     1     -42.678  55.472 -55.689  1.00  0.00     0.338 C 
BRANCH  12  13
HETATM   13  C   UNL     1     -43.198  56.666 -56.497  1.00  0.00     0.248 C 
HETATM   14  N   UNL     1     -42.420  56.953 -57.600  1.00  0.00    -0.319 N 
HETATM   15  H   UNL     1     -41.915  56.192 -58.059  1.00  0.00     0.169 HD
HETATM   16  O   UNL     1     -44.240  57.222 -56.159  1.00  0.00    -0.271 OA
BRANCH  14  17
HETATM   17  C   UNL     1     -42.537  58.096 -58.380  1.00  0.00     0.094 A 
HETATM   18  S   UNL     1     -41.664  59.493 -57.976  1.00  0.00    -0.075 SA
HETATM   19  C   UNL     1     -42.193  60.298 -59.371  1.00  0.00    -0.008 A 
HETATM   20  C   UNL     1     -43.034  59.525 -60.153  1.00  0.00    -0.026 A 
HETATM   21  C   UNL     1     -41.734  61.687 -59.696  1.00  0.00     0.047 C 
HETATM   22  C   UNL     1     -43.625  60.066 -61.427  1.00  0.00     0.041 C 
HETATM   23  C   UNL     1     -43.247  58.217 -59.568  1.00  0.00     0.080 A 
HETATM   24  C   UNL     1     -42.906  61.334 -61.914  1.00  0.00     0.005 C 
HETATM   25  C   UNL     1     -42.636  62.314 -60.767  1.00  0.00     0.005 C 
BRANCH  23  26
HETATM   26  C   UNL     1     -44.090  57.122 -60.059  1.00  0.00     0.296 C 
HETATM   27  O   UNL     1     -45.290  57.275 -60.281  1.00  0.00    -0.259 OA
BRANCH  26  28
HETATM   28  O   UNL     1     -43.408  55.967 -60.280  1.00  0.00    -0.322 OA
HETATM   29  C   UNL     1     -44.124  54.775 -59.947  1.00  0.00     0.213 C 
ENDBRANCH  26  28
ENDBRANCH  23  26
ENDBRANCH  14  17
ENDBRANCH  12  13
ENDBRANCH   2  12
BRANCH   1  30
HETATM   30  C   UNL     1     -41.608  55.007 -52.061  1.00  0.00     0.006 A 
HETATM   31  C   UNL     1     -40.993  53.752 -52.300  1.00  0.00     0.077 A 
HETATM   32  C   UNL     1     -40.129  53.199 -51.347  1.00  0.00     0.037 A 
HETATM   33  C   UNL     1     -39.868  53.865 -50.152  1.00  0.00     0.003 A 
HETATM   34  C   UNL     1     -40.475  55.085 -49.895  1.00  0.00     0.001 A 
HETATM   35  C   UNL     1     -41.337  55.648 -50.839  1.00  0.00     0.012 A 
BRANCH  31  36
HETATM   36  O   UNL     1     -41.316  53.148 -53.487  1.00  0.00    -0.351 OA
BRANCH  36  37
HETATM   37  C   UNL     1     -40.283  52.619 -54.323  1.00  0.00     0.171 C 
HETATM   38  C   UNL     1     -40.286  51.099 -54.311  1.00  0.00     0.034 C 
ENDBRANCH  36  37
ENDBRANCH  31  36
ENDBRANCH   1  30
BRANCH   6  39
HETATM   39  O   UNL     1     -41.634  58.332 -52.008  1.00  0.00    -0.389 OA
HETATM   40  H   UNL     1     -41.717  57.727 -51.247  1.00  0.00     0.210 HD
ENDBRANCH   6  39
TORSDOF 9
ENDMDL
