MODEL 1
REMARK VINA RESULT:      -8.9      0.000      0.000
REMARK  5 active torsions:
REMARK  status: ('A' for Active; 'I' for Inactive)
REMARK    1  A    between atoms: C_2  and  N_3 
REMARK    2  A    between atoms: C_14  and  C_17 
REMARK       I    between atoms: C_17  and  N_19 
REMARK    3  A    between atoms: N_19  and  C_20 
REMARK    4  A    between atoms: C_20  and  C_22 
REMARK    5  A    between atoms: C_26  and  O_27 
ROOT
HETATM    1  N   UNL     1     -40.638  53.249 -51.073  1.00  0.00    -0.008 N 
HETATM    2  H   UNL     1     -41.569  53.241 -50.673  1.00  0.00     0.293 HD
HETATM    3  C   UNL     1     -40.251  51.931 -51.348  1.00  0.00     0.169 A 
HETATM    4  C   UNL     1     -40.067  50.819 -50.487  1.00  0.00     0.154 A 
HETATM    5  N   UNL     1     -39.680  49.591 -50.926  1.00  0.00    -0.271 NA
HETATM    6  C   UNL     1     -39.473  49.408 -52.244  1.00  0.00     0.117 A 
HETATM    7  C   UNL     1     -39.631  50.399 -53.182  1.00  0.00     0.034 A 
HETATM    8  C   UNL     1     -40.027  51.671 -52.736  1.00  0.00     0.014 A 
HETATM    9  C   UNL     1     -40.306  52.933 -53.395  1.00  0.00     0.012 A 
HETATM   10  C   UNL     1     -40.284  53.364 -54.736  1.00  0.00     0.016 A 
HETATM   11  C   UNL     1     -40.626  54.672 -55.044  1.00  0.00     0.018 A 
HETATM   12  C   UNL     1     -41.005  55.552 -54.023  1.00  0.00     0.034 A 
HETATM   13  C   UNL     1     -41.064  55.128 -52.690  1.00  0.00     0.055 A 
HETATM   14  C   UNL     1     -40.678  53.819 -52.339  1.00  0.00     0.152 A 
ENDROOT
BRANCH  12  15
HETATM   15  C   UNL     1     -41.359  56.949 -54.416  1.00  0.00     0.252 C 
HETATM   16  O   UNL     1     -41.017  57.890 -53.707  1.00  0.00    -0.268 OA
HETATM   17  N   UNL     1     -42.096  57.109 -55.569  1.00  0.00    -0.349 N 
HETATM   18  H   UNL     1     -42.482  56.306 -56.040  1.00  0.00     0.163 HD
BRANCH  17  19
HETATM   19  C   UNL     1     -42.546  58.416 -56.020  1.00  0.00     0.114 C 
HETATM   20  C   UNL     1     -43.925  58.749 -55.443  1.00  0.00     0.037 C 
BRANCH  19  21
HETATM   21  C   UNL     1     -42.525  58.463 -57.538  1.00  0.00    -0.033 A 
HETATM   22  C   UNL     1     -42.086  59.628 -58.186  1.00  0.00     0.009 A 
HETATM   23  C   UNL     1     -42.031  59.688 -59.577  1.00  0.00     0.003 A 
HETATM   24  C   UNL     1     -42.403  58.579 -60.335  1.00  0.00     0.037 A 
HETATM   25  C   UNL     1     -42.831  57.405 -59.715  1.00  0.00     0.068 A 
HETATM   26  C   UNL     1     -42.897  57.352 -58.320  1.00  0.00     0.046 A 
BRANCH  25  27
HETATM   27  O   UNL     1     -43.151  56.391 -60.576  1.00  0.00    -0.356 OA
HETATM   28  C   UNL     1     -43.978  55.351 -60.071  1.00  0.00     0.210 C 
ENDBRANCH  25  27
ENDBRANCH  19  21
ENDBRANCH  17  19
ENDBRANCH  12  15
BRANCH   1  29
HETATM   29  C   UNL     1     -39.779  53.945 -50.083  1.00  0.00     0.244 C 
HETATM   30  C   UNL     1     -40.457  54.265 -48.752  1.00  0.00     0.035 C 
ENDBRANCH   1  29
TORSDOF 5
ENDMDL
MODEL 2
REMARK VINA RESULT:      -8.2      3.353      5.590
REMARK  5 active torsions:
REMARK  status: ('A' for Active; 'I' for Inactive)
REMARK    1  A    between atoms: C_2  and  N_3 
REMARK    2  A    between atoms: C_14  and  C_17 
REMARK       I    between atoms: C_17  and  N_19 
REMARK    3  A    between atoms: N_19  and  C_20 
REMARK    4  A    between atoms: C_20  and  C_22 
REMARK    5  A    between atoms: C_26  and  O_27 
ROOT
HETATM    1  N   UNL     1     -40.459  52.689 -51.642  1.00  0.00    -0.008 N 
HETATM    2  H   UNL     1     -41.355  52.521 -51.200  1.00  0.00     0.293 HD
HETATM    3  C   UNL     1     -40.097  51.555 -52.382  1.00  0.00     0.169 A 
HETATM    4  C   UNL     1     -39.848  50.220 -51.972  1.00  0.00     0.154 A 
HETATM    5  N   UNL     1     -39.500  49.228 -52.833  1.00  0.00    -0.271 NA
HETATM    6  C   UNL     1     -39.398  49.513 -54.145  1.00  0.00     0.117 A 
HETATM    7  C   UNL     1     -39.629  50.761 -54.671  1.00  0.00     0.034 A 
HETATM    8  C   UNL     1     -39.986  51.793 -53.787  1.00  0.00     0.014 A 
HETATM    9  C   UNL     1     -40.314  53.196 -53.950  1.00  0.00     0.012 A 
HETATM   10  C   UNL     1     -40.398  54.061 -55.058  1.00  0.00     0.016 A 
HETATM   11  C   UNL     1     -40.761  55.387 -54.871  1.00  0.00     0.018 A 
HETATM   12  C   UNL     1     -41.055  55.853 -53.585  1.00  0.00     0.034 A 
HETATM   13  C   UNL     1     -41.009  54.997 -52.477  1.00  0.00     0.055 A 
HETATM   14  C   UNL     1     -40.599  53.657 -52.628  1.00  0.00     0.152 A 
ENDROOT
BRANCH  12  15
HETATM   15  C   UNL     1     -41.437  57.291 -53.445  1.00  0.00     0.252 C 
HETATM   16  O   UNL     1     -41.664  57.965 -54.444  1.00  0.00    -0.268 OA
HETATM   17  N   UNL     1     -41.488  57.805 -52.167  1.00  0.00    -0.349 N 
HETATM   18  H   UNL     1     -41.153  57.261 -51.388  1.00  0.00     0.163 HD
BRANCH  17  19
HETATM   19  C   UNL     1     -41.793  59.203 -51.911  1.00  0.00     0.114 C 
HETATM   20  C   UNL     1     -40.778  59.817 -50.944  1.00  0.00     0.037 C 
BRANCH  19  21
HETATM   21  C   UNL     1     -43.221  59.326 -51.409  1.00  0.00    -0.033 A 
HETATM   22  C   UNL     1     -44.096  58.236 -51.545  1.00  0.00     0.009 A 
HETATM   23  C   UNL     1     -45.403  58.311 -51.069  1.00  0.00     0.003 A 
HETATM   24  C   UNL     1     -45.847  59.474 -50.440  1.00  0.00     0.037 A 
HETATM   25  C   UNL     1     -44.994  60.566 -50.281  1.00  0.00     0.068 A 
HETATM   26  C   UNL     1     -43.687  60.492 -50.771  1.00  0.00     0.046 A 
BRANCH  25  27
HETATM   27  O   UNL     1     -45.552  61.635 -49.634  1.00  0.00    -0.356 OA
HETATM   28  C   UNL     1     -45.473  61.645 -48.215  1.00  0.00     0.210 C 
ENDBRANCH  25  27
ENDBRANCH  19  21
ENDBRANCH  17  19
ENDBRANCH  12  15
BRANCH   1  29
HETATM   29  C   UNL     1     -39.522  53.025 -50.541  1.00  0.00     0.244 C 
HETATM   30  C   UNL     1     -40.177  53.613 -49.293  1.00  0.00     0.035 C 
ENDBRANCH   1  29
TORSDOF 5
ENDMDL
MODEL 3
REMARK VINA RESULT:      -8.1      2.615      8.745
REMARK  5 active torsions:
REMARK  status: ('A' for Active; 'I' for Inactive)
REMARK    1  A    between atoms: C_2  and  N_3 
REMARK    2  A    between atoms: C_14  and  C_17 
REMARK       I    between atoms: C_17  and  N_19 
REMARK    3  A    between atoms: N_19  and  C_20 
REMARK    4  A    between atoms: C_20  and  C_22 
REMARK    5  A    between atoms: C_26  and  O_27 
ROOT
HETATM    1  N   UNL     1     -41.989  59.472 -57.020  1.00  0.00    -0.008 N 
HETATM    2  H   UNL     1     -41.074  59.560 -56.593  1.00  0.00     0.293 HD
HETATM    3  C   UNL     1     -41.907  59.877 -58.359  1.00  0.00     0.169 A 
HETATM    4  C   UNL     1     -41.563  61.129 -58.930  1.00  0.00     0.154 A 
HETATM    5  N   UNL     1     -41.534  61.354 -60.271  1.00  0.00    -0.271 NA
HETATM    6  C   UNL     1     -41.833  60.342 -61.106  1.00  0.00     0.117 A 
HETATM    7  C   UNL     1     -42.167  59.079 -60.680  1.00  0.00     0.034 A 
HETATM    8  C   UNL     1     -42.202  58.839 -59.297  1.00  0.00     0.014 A 
HETATM    9  C   UNL     1     -42.486  57.675 -58.478  1.00  0.00     0.012 A 
HETATM   10  C   UNL     1     -42.838  56.340 -58.761  1.00  0.00     0.016 A 
HETATM   11  C   UNL     1     -43.035  55.446 -57.720  1.00  0.00     0.018 A 
HETATM   12  C   UNL     1     -42.868  55.869 -56.396  1.00  0.00     0.034 A 
HETATM   13  C   UNL     1     -42.486  57.184 -56.101  1.00  0.00     0.055 A 
HETATM   14  C   UNL     1     -42.324  58.129 -57.133  1.00  0.00     0.152 A 
ENDROOT
BRANCH  12  15
HETATM   15  C   UNL     1     -43.097  54.861 -55.317  1.00  0.00     0.252 C 
HETATM   16  O   UNL     1     -43.645  53.796 -55.580  1.00  0.00    -0.268 OA
HETATM   17  N   UNL     1     -42.694  55.203 -54.045  1.00  0.00    -0.349 N 
HETATM   18  H   UNL     1     -42.384  56.140 -53.845  1.00  0.00     0.163 HD
BRANCH  17  19
HETATM   19  C   UNL     1     -42.915  54.326 -52.906  1.00  0.00     0.114 C 
HETATM   20  C   UNL     1     -43.419  55.117 -51.696  1.00  0.00     0.037 C 
BRANCH  19  21
HETATM   21  C   UNL     1     -41.640  53.556 -52.606  1.00  0.00    -0.033 A 
HETATM   22  C   UNL     1     -41.052  53.664 -51.335  1.00  0.00     0.009 A 
HETATM   23  C   UNL     1     -39.898  52.949 -51.025  1.00  0.00     0.003 A 
HETATM   24  C   UNL     1     -39.326  52.106 -51.977  1.00  0.00     0.037 A 
HETATM   25  C   UNL     1     -39.898  51.971 -53.242  1.00  0.00     0.068 A 
HETATM   26  C   UNL     1     -41.049  52.700 -53.556  1.00  0.00     0.046 A 
BRANCH  25  27
HETATM   27  O   UNL     1     -39.245  51.102 -54.073  1.00  0.00    -0.356 OA
HETATM   28  C   UNL     1     -39.915  49.893 -54.401  1.00  0.00     0.210 C 
ENDBRANCH  25  27
ENDBRANCH  19  21
ENDBRANCH  17  19
ENDBRANCH  12  15
BRANCH   1  29
HETATM   29  C   UNL     1     -42.904  60.293 -56.187  1.00  0.00     0.244 C 
HETATM   30  C   UNL     1     -42.427  60.542 -54.758  1.00  0.00     0.035 C 
ENDBRANCH   1  29
TORSDOF 5
ENDMDL
MODEL 4
REMARK VINA RESULT:      -8.0      2.031      3.808
REMARK  5 active torsions:
REMARK  status: ('A' for Active; 'I' for Inactive)
REMARK    1  A    between atoms: C_2  and  N_3 
REMARK    2  A    between atoms: C_14  and  C_17 
REMARK       I    between atoms: C_17  and  N_19 
REMARK    3  A    between atoms: N_19  and  C_20 
REMARK    4  A    between atoms: C_20  and  C_22 
REMARK    5  A    between atoms: C_26  and  O_27 
ROOT
HETATM    1  N   UNL     1     -40.708  54.287 -52.951  1.00  0.00    -0.008 N 
HETATM    2  H   UNL     1     -39.749  54.290 -53.279  1.00  0.00     0.293 HD
HETATM    3  C   UNL     1     -40.710  54.186 -51.553  1.00  0.00     0.169 A 
HETATM    4  C   UNL     1     -40.225  53.166 -50.696  1.00  0.00     0.154 A 
HETATM    5  N   UNL     1     -40.309  53.227 -49.341  1.00  0.00    -0.271 NA
HETATM    6  C   UNL     1     -40.868  54.313 -48.773  1.00  0.00     0.117 A 
HETATM    7  C   UNL     1     -41.362  55.376 -49.491  1.00  0.00     0.034 A 
HETATM    8  C   UNL     1     -41.281  55.318 -50.892  1.00  0.00     0.014 A 
HETATM    9  C   UNL     1     -41.664  56.216 -51.966  1.00  0.00     0.012 A 
HETATM   10  C   UNL     1     -42.267  57.488 -52.012  1.00  0.00     0.016 A 
HETATM   11  C   UNL     1     -42.495  58.098 -53.236  1.00  0.00     0.018 A 
HETATM   12  C   UNL     1     -42.110  57.454 -54.417  1.00  0.00     0.034 A 
HETATM   13  C   UNL     1     -41.479  56.204 -54.386  1.00  0.00     0.055 A 
HETATM   14  C   UNL     1     -41.277  55.537 -53.162  1.00  0.00     0.152 A 
ENDROOT
BRANCH  12  15
HETATM   15  C   UNL     1     -42.384  58.159 -55.706  1.00  0.00     0.252 C 
HETATM   16  O   UNL     1     -41.852  59.240 -55.938  1.00  0.00    -0.268 OA
HETATM   17  N   UNL     1     -43.264  57.555 -56.577  1.00  0.00    -0.349 N 
HETATM   18  H   UNL     1     -43.790  56.745 -56.287  1.00  0.00     0.163 HD
BRANCH  17  19
HETATM   19  C   UNL     1     -43.649  58.174 -57.835  1.00  0.00     0.114 C 
HETATM   20  C   UNL     1     -44.579  59.367 -57.596  1.00  0.00     0.037 C 
BRANCH  19  21
HETATM   21  C   UNL     1     -44.270  57.127 -58.744  1.00  0.00    -0.033 A 
HETATM   22  C   UNL     1     -43.481  56.062 -59.208  1.00  0.00     0.009 A 
HETATM   23  C   UNL     1     -44.032  55.074 -60.021  1.00  0.00     0.003 A 
HETATM   24  C   UNL     1     -45.380  55.133 -60.371  1.00  0.00     0.037 A 
HETATM   25  C   UNL     1     -46.188  56.174 -59.913  1.00  0.00     0.068 A 
HETATM   26  C   UNL     1     -45.630  57.171 -59.107  1.00  0.00     0.046 A 
BRANCH  25  27
HETATM   27  O   UNL     1     -47.493  56.103 -60.318  1.00  0.00    -0.356 OA
HETATM   28  C   UNL     1     -47.791  56.568 -61.627  1.00  0.00     0.210 C 
ENDBRANCH  25  27
ENDBRANCH  19  21
ENDBRANCH  17  19
ENDBRANCH  12  15
BRANCH   1  29
HETATM   29  C   UNL     1     -41.370  53.156 -53.647  1.00  0.00     0.244 C 
HETATM   30  C   UNL     1     -40.419  52.148 -54.290  1.00  0.00     0.035 C 
ENDBRANCH   1  29
TORSDOF 5
ENDMDL
MODEL 5
REMARK VINA RESULT:      -7.9      2.428      3.614
REMARK  5 active torsions:
REMARK  status: ('A' for Active; 'I' for Inactive)
REMARK    1  A    between atoms: C_2  and  N_3 
REMARK    2  A    between atoms: C_14  and  C_17 
REMARK       I    between atoms: C_17  and  N_19 
REMARK    3  A    between atoms: N_19  and  C_20 
REMARK    4  A    between atoms: C_20  and  C_22 
REMARK    5  A    between atoms: C_26  and  O_27 
ROOT
HETATM    1  N   UNL     1     -42.005  56.310 -51.544  1.00  0.00    -0.008 N 
HETATM    2  H   UNL     1     -42.969  56.530 -51.325  1.00  0.00     0.293 HD
HETATM    3  C   UNL     1     -41.524  55.389 -50.604  1.00  0.00     0.169 A 
HETATM    4  C   UNL     1     -41.368  55.495 -49.198  1.00  0.00     0.154 A 
HETATM    5  N   UNL     1     -40.877  54.491 -48.424  1.00  0.00    -0.271 NA
HETATM    6  C   UNL     1     -40.531  53.329 -49.010  1.00  0.00     0.117 A 
HETATM    7  C   UNL     1     -40.647  53.095 -50.359  1.00  0.00     0.034 A 
HETATM    8  C   UNL     1     -41.151  54.129 -51.166  1.00  0.00     0.014 A 
HETATM    9  C   UNL     1     -41.429  54.262 -52.583  1.00  0.00     0.012 A 
HETATM   10  C   UNL     1     -41.297  53.405 -53.693  1.00  0.00     0.016 A 
HETATM   11  C   UNL     1     -41.674  53.846 -54.952  1.00  0.00     0.018 A 
HETATM   12  C   UNL     1     -42.198  55.134 -55.111  1.00  0.00     0.034 A 
HETATM   13  C   UNL     1     -42.367  55.986 -54.012  1.00  0.00     0.055 A 
HETATM   14  C   UNL     1     -41.950  55.585 -52.728  1.00  0.00     0.152 A 
ENDROOT
BRANCH  12  15
HETATM   15  C   UNL     1     -42.584  55.554 -56.492  1.00  0.00     0.252 C 
HETATM   16  O   UNL     1     -43.077  54.740 -57.265  1.00  0.00    -0.268 OA
HETATM   17  N   UNL     1     -42.334  56.863 -56.842  1.00  0.00    -0.349 N 
HETATM   18  H   UNL     1     -41.796  57.458 -56.232  1.00  0.00     0.163 HD
BRANCH  17  19
HETATM   19  C   UNL     1     -42.616  57.371 -58.175  1.00  0.00     0.114 C 
HETATM   20  C   UNL     1     -41.980  58.749 -58.382  1.00  0.00     0.037 C 
BRANCH  19  21
HETATM   21  C   UNL     1     -44.117  57.384 -58.404  1.00  0.00    -0.033 A 
HETATM   22  C   UNL     1     -44.930  58.203 -57.603  1.00  0.00     0.009 A 
HETATM   23  C   UNL     1     -46.306  58.255 -57.810  1.00  0.00     0.003 A 
HETATM   24  C   UNL     1     -46.885  57.497 -58.827  1.00  0.00     0.037 A 
HETATM   25  C   UNL     1     -46.099  56.685 -59.645  1.00  0.00     0.068 A 
HETATM   26  C   UNL     1     -44.719  56.626 -59.428  1.00  0.00     0.046 A 
BRANCH  25  27
HETATM   27  O   UNL     1     -46.791  56.009 -60.612  1.00  0.00    -0.356 OA
HETATM   28  C   UNL     1     -47.728  56.754 -61.378  1.00  0.00     0.210 C 
ENDBRANCH  25  27
ENDBRANCH  19  21
ENDBRANCH  17  19
ENDBRANCH  12  15
BRANCH   1  29
HETATM   29  C   UNL     1     -41.285  57.608 -51.553  1.00  0.00     0.244 C 
HETATM   30  C   UNL     1     -42.125  58.814 -51.136  1.00  0.00     0.035 C 
ENDBRANCH   1  29
TORSDOF 5
ENDMDL
MODEL 6
REMARK VINA RESULT:      -7.9      3.892      6.099
REMARK  5 active torsions:
REMARK  status: ('A' for Active; 'I' for Inactive)
REMARK    1  A    between atoms: C_2  and  N_3 
REMARK    2  A    between atoms: C_14  and  C_17 
REMARK       I    between atoms: C_17  and  N_19 
REMARK    3  A    between atoms: N_19  and  C_20 
REMARK    4  A    between atoms: C_20  and  C_22 
REMARK    5  A    between atoms: C_26  and  O_27 
ROOT
HETATM    1  N   UNL     1     -41.500  53.979 -51.373  1.00  0.00    -0.008 N 
HETATM    2  H   UNL     1     -42.191  53.596 -50.739  1.00  0.00     0.293 HD
HETATM    3  C   UNL     1     -40.780  52.924 -51.951  1.00  0.00     0.169 A 
HETATM    4  C   UNL     1     -39.953  51.933 -51.363  1.00  0.00     0.154 A 
HETATM    5  N   UNL     1     -39.318  50.969 -52.080  1.00  0.00    -0.271 NA
HETATM    6  C   UNL     1     -39.486  50.937 -53.416  1.00  0.00     0.117 A 
HETATM    7  C   UNL     1     -40.272  51.830 -54.104  1.00  0.00     0.034 A 
HETATM    8  C   UNL     1     -40.929  52.831 -53.370  1.00  0.00     0.014 A 
HETATM    9  C   UNL     1     -41.829  53.915 -53.717  1.00  0.00     0.012 A 
HETATM   10  C   UNL     1     -42.384  54.378 -54.925  1.00  0.00     0.016 A 
HETATM   11  C   UNL     1     -43.244  55.466 -54.914  1.00  0.00     0.018 A 
HETATM   12  C   UNL     1     -43.567  56.087 -53.702  1.00  0.00     0.034 A 
HETATM   13  C   UNL     1     -43.049  55.616 -52.489  1.00  0.00     0.055 A 
HETATM   14  C   UNL     1     -42.136  54.543 -52.471  1.00  0.00     0.152 A 
ENDROOT
BRANCH  12  15
HETATM   15  C   UNL     1     -44.497  57.255 -53.754  1.00  0.00     0.252 C 
HETATM   16  O   UNL     1     -45.403  57.282 -54.580  1.00  0.00    -0.268 OA
HETATM   17  N   UNL     1     -44.263  58.282 -52.865  1.00  0.00    -0.349 N 
HETATM   18  H   UNL     1     -43.424  58.288 -52.307  1.00  0.00     0.163 HD
BRANCH  17  19
HETATM   19  C   UNL     1     -45.067  59.494 -52.860  1.00  0.00     0.114 C 
HETATM   20  C   UNL     1     -44.737  60.375 -54.068  1.00  0.00     0.037 C 
BRANCH  19  21
HETATM   21  C   UNL     1     -44.875  60.222 -51.541  1.00  0.00    -0.033 A 
HETATM   22  C   UNL     1     -44.031  61.342 -51.488  1.00  0.00     0.009 A 
HETATM   23  C   UNL     1     -43.858  62.045 -50.297  1.00  0.00     0.003 A 
HETATM   24  C   UNL     1     -44.538  61.642 -49.149  1.00  0.00     0.037 A 
HETATM   25  C   UNL     1     -45.392  60.539 -49.177  1.00  0.00     0.068 A 
HETATM   26  C   UNL     1     -45.554  59.829 -50.371  1.00  0.00     0.046 A 
BRANCH  25  27
HETATM   27  O   UNL     1     -46.006  60.263 -47.987  1.00  0.00    -0.356 OA
HETATM   28  C   UNL     1     -45.465  60.872 -46.822  1.00  0.00     0.210 C 
ENDBRANCH  25  27
ENDBRANCH  19  21
ENDBRANCH  17  19
ENDBRANCH  12  15
BRANCH   1  29
HETATM   29  C   UNL     1     -40.677  54.909 -50.561  1.00  0.00     0.244 C 
HETATM   30  C   UNL     1     -40.983  54.903 -49.064  1.00  0.00     0.035 C 
ENDBRANCH   1  29
TORSDOF 5
ENDMDL
MODEL 7
REMARK VINA RESULT:      -7.9      2.578      8.834
REMARK  5 active torsions:
REMARK  status: ('A' for Active; 'I' for Inactive)
REMARK    1  A    between atoms: C_2  and  N_3 
REMARK    2  A    between atoms: C_14  and  C_17 
REMARK       I    between atoms: C_17  and  N_19 
REMARK    3  A    between atoms: N_19  and  C_20 
REMARK    4  A    between atoms: C_20  and  C_22 
REMARK    5  A    between atoms: C_26  and  O_27 
ROOT
HETATM    1  N   UNL     1     -43.752  57.002 -58.177  1.00  0.00    -0.008 N 
HETATM    2  H   UNL     1     -44.760  56.908 -58.145  1.00  0.00     0.293 HD
HETATM    3  C   UNL     1     -43.423  58.111 -58.968  1.00  0.00     0.169 A 
HETATM    4  C   UNL     1     -43.671  58.378 -60.339  1.00  0.00     0.154 A 
HETATM    5  N   UNL     1     -43.276  59.522 -60.959  1.00  0.00    -0.271 NA
HETATM    6  C   UNL     1     -42.629  60.460 -60.241  1.00  0.00     0.117 A 
HETATM    7  C   UNL     1     -42.342  60.329 -58.904  1.00  0.00     0.034 A 
HETATM    8  C   UNL     1     -42.743  59.149 -58.257  1.00  0.00     0.014 A 
HETATM    9  C   UNL     1     -42.642  58.655 -56.896  1.00  0.00     0.012 A 
HETATM   10  C   UNL     1     -42.098  59.173 -55.705  1.00  0.00     0.016 A 
HETATM   11  C   UNL     1     -42.175  58.432 -54.535  1.00  0.00     0.018 A 
HETATM   12  C   UNL     1     -42.807  57.184 -54.541  1.00  0.00     0.034 A 
HETATM   13  C   UNL     1     -43.382  56.671 -55.711  1.00  0.00     0.055 A 
HETATM   14  C   UNL     1     -43.279  57.377 -56.926  1.00  0.00     0.152 A 
ENDROOT
BRANCH  12  15
HETATM   15  C   UNL     1     -42.857  56.431 -53.251  1.00  0.00     0.252 C 
HETATM   16  O   UNL     1     -43.891  56.413 -52.592  1.00  0.00    -0.268 OA
HETATM   17  N   UNL     1     -41.699  55.804 -52.846  1.00  0.00    -0.349 N 
HETATM   18  H   UNL     1     -40.835  55.965 -53.339  1.00  0.00     0.163 HD
BRANCH  17  19
HETATM   19  C   UNL     1     -41.613  55.089 -51.582  1.00  0.00     0.114 C 
HETATM   20  C   UNL     1     -40.927  55.946 -50.514  1.00  0.00     0.037 C 
BRANCH  19  21
HETATM   21  C   UNL     1     -40.910  53.760 -51.800  1.00  0.00    -0.033 A 
HETATM   22  C   UNL     1     -40.474  53.021 -50.689  1.00  0.00     0.009 A 
HETATM   23  C   UNL     1     -39.851  51.787 -50.859  1.00  0.00     0.003 A 
HETATM   24  C   UNL     1     -39.668  51.272 -52.141  1.00  0.00     0.037 A 
HETATM   25  C   UNL     1     -40.104  51.980 -53.261  1.00  0.00     0.068 A 
HETATM   26  C   UNL     1     -40.718  53.224 -53.088  1.00  0.00     0.046 A 
BRANCH  25  27
HETATM   27  O   UNL     1     -39.876  51.354 -54.456  1.00  0.00    -0.356 OA
HETATM   28  C   UNL     1     -39.890  49.933 -54.455  1.00  0.00     0.210 C 
ENDBRANCH  25  27
ENDBRANCH  19  21
ENDBRANCH  17  19
ENDBRANCH  12  15
BRANCH   1  29
HETATM   29  C   UNL     1     -43.240  55.708 -58.694  1.00  0.00     0.244 C 
HETATM   30  C   UNL     1     -44.240  54.905 -59.524  1.00  0.00     0.035 C 
ENDBRANCH   1  29
TORSDOF 5
ENDMDL
MODEL 8
REMARK VINA RESULT:      -7.8      2.398      4.042
REMARK  5 active torsions:
REMARK  status: ('A' for Active; 'I' for Inactive)
REMARK    1  A    between atoms: C_2  and  N_3 
REMARK    2  A    between atoms: C_14  and  C_17 
REMARK       I    between atoms: C_17  and  N_19 
REMARK    3  A    between atoms: N_19  and  C_20 
REMARK    4  A    between atoms: C_20  and  C_22 
REMARK    5  A    between atoms: C_26  and  O_27 
ROOT
HETATM    1  N   UNL     1     -40.783  53.389 -53.994  1.00  0.00    -0.008 N 
HETATM    2  H   UNL     1     -40.106  53.775 -54.640  1.00  0.00     0.293 HD
HETATM    3  C   UNL     1     -40.346  52.123 -53.580  1.00  0.00     0.169 A 
HETATM    4  C   UNL     1     -40.107  50.937 -54.320  1.00  0.00     0.154 A 
HETATM    5  N   UNL     1     -39.680  49.777 -53.753  1.00  0.00    -0.271 NA
HETATM    6  C   UNL     1     -39.457  49.747 -52.425  1.00  0.00     0.117 A 
HETATM    7  C   UNL     1     -39.636  50.832 -51.601  1.00  0.00     0.034 A 
HETATM    8  C   UNL     1     -40.080  52.032 -52.179  1.00  0.00     0.014 A 
HETATM    9  C   UNL     1     -40.365  53.359 -51.664  1.00  0.00     0.012 A 
HETATM   10  C   UNL     1     -40.307  53.947 -50.386  1.00  0.00     0.016 A 
HETATM   11  C   UNL     1     -40.644  55.283 -50.227  1.00  0.00     0.018 A 
HETATM   12  C   UNL     1     -41.026  56.041 -51.339  1.00  0.00     0.034 A 
HETATM   13  C   UNL     1     -41.056  55.479 -52.622  1.00  0.00     0.055 A 
HETATM   14  C   UNL     1     -40.764  54.114 -52.809  1.00  0.00     0.152 A 
ENDROOT
BRANCH  12  15
HETATM   15  C   UNL     1     -41.381  57.474 -51.106  1.00  0.00     0.252 C 
HETATM   16  O   UNL     1     -40.948  58.060 -50.119  1.00  0.00    -0.268 OA
HETATM   17  N   UNL     1     -42.221  58.069 -52.022  1.00  0.00    -0.349 N 
HETATM   18  H   UNL     1     -42.670  57.515 -52.734  1.00  0.00     0.163 HD
BRANCH  17  19
HETATM   19  C   UNL     1     -42.679  59.441 -51.869  1.00  0.00     0.114 C 
HETATM   20  C   UNL     1     -43.982  59.496 -51.067  1.00  0.00     0.037 C 
BRANCH  19  21
HETATM   21  C   UNL     1     -42.813  60.085 -53.238  1.00  0.00    -0.033 A 
HETATM   22  C   UNL     1     -43.655  61.197 -53.398  1.00  0.00     0.009 A 
HETATM   23  C   UNL     1     -43.775  61.823 -54.636  1.00  0.00     0.003 A 
HETATM   24  C   UNL     1     -43.045  61.353 -55.726  1.00  0.00     0.037 A 
HETATM   25  C   UNL     1     -42.192  60.257 -55.592  1.00  0.00     0.068 A 
HETATM   26  C   UNL     1     -42.082  59.623 -54.351  1.00  0.00     0.046 A 
BRANCH  25  27
HETATM   27  O   UNL     1     -41.525  59.910 -56.735  1.00  0.00    -0.356 OA
HETATM   28  C   UNL     1     -42.179  59.007 -57.616  1.00  0.00     0.210 C 
ENDBRANCH  25  27
ENDBRANCH  19  21
ENDBRANCH  17  19
ENDBRANCH  12  15
BRANCH   1  29
HETATM   29  C   UNL     1     -42.078  53.382 -54.721  1.00  0.00     0.244 C 
HETATM   30  C   UNL     1     -42.293  54.562 -55.666  1.00  0.00     0.035 C 
ENDBRANCH   1  29
TORSDOF 5
ENDMDL
MODEL 9
REMARK VINA RESULT:      -7.8      1.930      2.404
REMARK  5 active torsions:
REMARK  status: ('A' for Active; 'I' for Inactive)
REMARK    1  A    between atoms: C_2  and  N_3 
REMARK    2  A    between atoms: C_14  and  C_17 
REMARK       I    between atoms: C_17  and  N_19 
REMARK    3  A    between atoms: N_19  and  C_20 
REMARK    4  A    between atoms: C_20  and  C_22 
REMARK    5  A    between atoms: C_26  and  O_27 
ROOT
HETATM    1  N   UNL     1     -41.382  54.196 -51.433  1.00  0.00    -0.008 N 
HETATM    2  H   UNL     1     -42.332  54.077 -51.101  1.00  0.00     0.293 HD
HETATM    3  C   UNL     1     -40.718  52.963 -51.362  1.00  0.00     0.169 A 
HETATM    4  C   UNL     1     -40.417  52.134 -50.251  1.00  0.00     0.154 A 
HETATM    5  N   UNL     1     -39.754  50.953 -50.361  1.00  0.00    -0.271 NA
HETATM    6  C   UNL     1     -39.372  50.532 -51.582  1.00  0.00     0.117 A 
HETATM    7  C   UNL     1     -39.617  51.235 -52.737  1.00  0.00     0.034 A 
HETATM    8  C   UNL     1     -40.299  52.458 -52.632  1.00  0.00     0.014 A 
HETATM    9  C   UNL     1     -40.744  53.454 -53.589  1.00  0.00     0.012 A 
HETATM   10  C   UNL     1     -40.660  53.574 -54.990  1.00  0.00     0.016 A 
HETATM   11  C   UNL     1     -41.214  54.678 -55.620  1.00  0.00     0.018 A 
HETATM   12  C   UNL     1     -41.866  55.658 -54.864  1.00  0.00     0.034 A 
HETATM   13  C   UNL     1     -41.987  55.536 -53.474  1.00  0.00     0.055 A 
HETATM   14  C   UNL     1     -41.395  54.451 -52.798  1.00  0.00     0.152 A 
ENDROOT
BRANCH  12  15
HETATM   15  C   UNL     1     -42.440  56.825 -55.598  1.00  0.00     0.252 C 
HETATM   16  O   UNL     1     -41.853  57.902 -55.592  1.00  0.00    -0.268 OA
HETATM   17  N   UNL     1     -43.646  56.633 -56.238  1.00  0.00    -0.349 N 
HETATM   18  H   UNL     1     -44.165  55.781 -56.096  1.00  0.00     0.163 HD
BRANCH  17  19
HETATM   19  C   UNL     1     -44.327  57.710 -56.937  1.00  0.00     0.114 C 
HETATM   20  C   UNL     1     -45.500  58.244 -56.110  1.00  0.00     0.037 C 
BRANCH  19  21
HETATM   21  C   UNL     1     -44.758  57.228 -58.311  1.00  0.00    -0.033 A 
HETATM   22  C   UNL     1     -44.052  56.183 -58.928  1.00  0.00     0.009 A 
HETATM   23  C   UNL     1     -44.442  55.703 -60.176  1.00  0.00     0.003 A 
HETATM   24  C   UNL     1     -45.550  56.256 -60.818  1.00  0.00     0.037 A 
HETATM   25  C   UNL     1     -46.275  57.288 -60.221  1.00  0.00     0.068 A 
HETATM   26  C   UNL     1     -45.874  57.775 -58.974  1.00  0.00     0.046 A 
BRANCH  25  27
HETATM   27  O   UNL     1     -47.346  57.727 -60.951  1.00  0.00    -0.356 OA
HETATM   28  C   UNL     1     -48.024  56.766 -61.749  1.00  0.00     0.210 C 
ENDBRANCH  25  27
ENDBRANCH  19  21
ENDBRANCH  17  19
ENDBRANCH  12  15
BRANCH   1  29
HETATM   29  C   UNL     1     -40.788  55.260 -50.587  1.00  0.00     0.244 C 
HETATM   30  C   UNL     1     -41.322  55.322 -49.157  1.00  0.00     0.035 C 
ENDBRANCH   1  29
TORSDOF 5
ENDMDL
MODEL 10
REMARK VINA RESULT:      -7.6      2.907      9.066
REMARK  5 active torsions:
REMARK  status: ('A' for Active; 'I' for Inactive)
REMARK    1  A    between atoms: C_2  and  N_3 
REMARK    2  A    between atoms: C_14  and  C_17 
REMARK       I    between atoms: C_17  and  N_19 
REMARK    3  A    between atoms: N_19  and  C_20 
REMARK    4  A    between atoms: C_20  and  C_22 
REMARK    5  A    between atoms: C_26  and  O_27 
ROOT
HETATM    1  N   UNL     1     -44.467  57.234 -57.250  1.00  0.00    -0.008 N 
HETATM    2  H   UNL     1     -45.021  56.405 -57.431  1.00  0.00     0.293 HD
HETATM    3  C   UNL     1     -45.127  58.348 -57.785  1.00  0.00     0.169 A 
HETATM    4  C   UNL     1     -45.484  58.661 -59.122  1.00  0.00     0.154 A 
HETATM    5  N   UNL     1     -46.130  59.804 -59.473  1.00  0.00    -0.271 NA
HETATM    6  C   UNL     1     -46.465  60.684 -58.509  1.00  0.00     0.117 A 
HETATM    7  C   UNL     1     -46.189  60.491 -57.177  1.00  0.00     0.034 A 
HETATM    8  C   UNL     1     -45.519  59.314 -56.806  1.00  0.00     0.014 A 
HETATM    9  C   UNL     1     -45.076  58.756 -55.542  1.00  0.00     0.012 A 
HETATM   10  C   UNL     1     -45.148  59.186 -54.203  1.00  0.00     0.016 A 
HETATM   11  C   UNL     1     -44.623  58.391 -53.196  1.00  0.00     0.018 A 
HETATM   12  C   UNL     1     -44.038  57.160 -53.514  1.00  0.00     0.034 A 
HETATM   13  C   UNL     1     -43.989  56.703 -54.837  1.00  0.00     0.055 A 
HETATM   14  C   UNL     1     -44.472  57.509 -55.888  1.00  0.00     0.152 A 
ENDROOT
BRANCH  12  15
HETATM   15  C   UNL     1     -43.487  56.348 -52.388  1.00  0.00     0.252 C 
HETATM   16  O   UNL     1     -43.983  56.434 -51.269  1.00  0.00    -0.268 OA
HETATM   17  N   UNL     1     -42.402  55.545 -52.665  1.00  0.00    -0.349 N 
HETATM   18  H   UNL     1     -41.934  55.614 -53.555  1.00  0.00     0.163 HD
BRANCH  17  19
HETATM   19  C   UNL     1     -41.746  54.753 -51.637  1.00  0.00     0.114 C 
HETATM   20  C   UNL     1     -40.839  55.628 -50.768  1.00  0.00     0.037 C 
BRANCH  19  21
HETATM   21  C   UNL     1     -40.996  53.603 -52.285  1.00  0.00    -0.033 A 
HETATM   22  C   UNL     1     -40.824  53.591 -53.679  1.00  0.00     0.009 A 
HETATM   23  C   UNL     1     -40.117  52.562 -54.297  1.00  0.00     0.003 A 
HETATM   24  C   UNL     1     -39.563  51.539 -53.527  1.00  0.00     0.037 A 
HETATM   25  C   UNL     1     -39.709  51.535 -52.140  1.00  0.00     0.068 A 
HETATM   26  C   UNL     1     -40.430  52.562 -51.523  1.00  0.00     0.046 A 
BRANCH  25  27
HETATM   27  O   UNL     1     -39.104  50.484 -51.507  1.00  0.00    -0.356 OA
HETATM   28  C   UNL     1     -39.837  49.844 -50.470  1.00  0.00     0.210 C 
ENDBRANCH  25  27
ENDBRANCH  19  21
ENDBRANCH  17  19
ENDBRANCH  12  15
BRANCH   1  29
HETATM   29  C   UNL     1     -43.134  56.967 -57.845  1.00  0.00     0.244 C 
HETATM   30  C   UNL     1     -42.161  58.145 -57.803  1.00  0.00     0.035 C 
ENDBRANCH   1  29
TORSDOF 5
ENDMDL
