MODEL 1
REMARK VINA RESULT:      -7.3      0.000      0.000
REMARK  6 active torsions:
REMARK  status: ('A' for Active; 'I' for Inactive)
REMARK    1  A    between atoms: C_2  and  C_3 
REMARK    2  A    between atoms: C_3  and  N_4 
REMARK    3  A    between atoms: C_3  and  C_17 
REMARK    4  A    between atoms: N_4  and  C_5 
REMARK    5  A    between atoms: C_5  and  C_6 
REMARK       I    between atoms: C_6  and  N_7 
REMARK    6  A    between atoms: N_7  and  C_8 
ROOT
HETATM    1  N   UNL     1     -42.465  54.248 -53.335  1.00  0.00     0.101 N 
HETATM    2  H   UNL     1     -42.836  53.389 -53.743  1.00  0.00     0.317 HD
ENDROOT
BRANCH   1   3
HETATM    3  C   UNL     1     -40.989  54.173 -53.322  1.00  0.00     0.256 C 
BRANCH   3   4
HETATM    4  C   UNL     1     -40.422  54.855 -54.587  1.00  0.00     0.036 C 
HETATM    5  C   UNL     1     -41.482  55.596 -55.394  1.00  0.00     0.007 C 
ENDBRANCH   3   4
BRANCH   3   6
HETATM    6  C   UNL     1     -40.478  52.743 -53.224  1.00  0.00     0.013 A 
HETATM    7  C   UNL     1     -39.940  52.277 -52.016  1.00  0.00     0.127 A 
HETATM    8  F   UNL     1     -39.864  53.097 -50.958  1.00  0.00    -0.205 F 
HETATM    9  C   UNL     1     -39.485  50.970 -51.873  1.00  0.00     0.085 A 
HETATM   10  C   UNL     1     -39.567  50.110 -52.958  1.00  0.00     0.119 A 
HETATM   11  F   UNL     1     -39.138  48.848 -52.833  1.00  0.00    -0.206 F 
HETATM   12  C   UNL     1     -40.087  50.538 -54.174  1.00  0.00     0.043 A 
HETATM   13  C   UNL     1     -40.540  51.852 -54.312  1.00  0.00     0.015 A 
ENDBRANCH   3   6
ENDBRANCH   1   3
BRANCH   1  14
HETATM   14  C   UNL     1     -43.018  54.394 -51.969  1.00  0.00     0.372 C 
BRANCH  14  15
HETATM   15  C   UNL     1     -42.669  55.774 -51.397  1.00  0.00     0.250 C 
HETATM   16  N   UNL     1     -43.063  56.802 -52.229  1.00  0.00    -0.322 N 
HETATM   17  H   UNL     1     -43.457  56.507 -53.117  1.00  0.00     0.169 HD
HETATM   18  O   UNL     1     -42.055  55.877 -50.342  1.00  0.00    -0.271 OA
BRANCH  16  19
HETATM   19  C   UNL     1     -42.959  58.159 -51.996  1.00  0.00     0.085 A 
HETATM   20  C   UNL     1     -43.825  59.125 -51.403  1.00  0.00     0.079 A 
HETATM   21  C   UNL     1     -45.198  58.982 -50.855  1.00  0.00     0.075 C 
HETATM   22  N   UNL     1     -43.273  60.348 -51.413  1.00  0.00    -0.177 NA
HETATM   23  N   UNL     1     -42.086  60.170 -51.999  1.00  0.00    -0.280 N 
HETATM   24  H   UNL     1     -41.485  60.980 -52.107  1.00  0.00     0.189 HD
HETATM   25  C   UNL     1     -41.847  58.883 -52.385  1.00  0.00     0.052 A 
HETATM   26  C   UNL     1     -40.583  58.493 -53.050  1.00  0.00     0.072 C 
ENDBRANCH  16  19
ENDBRANCH  14  15
ENDBRANCH   1  14
TORSDOF 6
ENDMDL
MODEL 2
REMARK VINA RESULT:      -7.3      3.605      5.248
REMARK  6 active torsions:
REMARK  status: ('A' for Active; 'I' for Inactive)
REMARK    1  A    between atoms: C_2  and  C_3 
REMARK    2  A    between atoms: C_3  and  N_4 
REMARK    3  A    between atoms: C_3  and  C_17 
REMARK    4  A    between atoms: N_4  and  C_5 
REMARK    5  A    between atoms: C_5  and  C_6 
REMARK       I    between atoms: C_6  and  N_7 
REMARK    6  A    between atoms: N_7  and  C_8 
ROOT
HETATM    1  N   UNL     1     -43.682  54.764 -53.801  1.00  0.00     0.101 N 
HETATM    2  H   UNL     1     -44.639  54.477 -53.593  1.00  0.00     0.317 HD
ENDROOT
BRANCH   1   3
HETATM    3  C   UNL     1     -42.956  54.967 -52.531  1.00  0.00     0.256 C 
BRANCH   3   4
HETATM    4  C   UNL     1     -42.374  56.398 -52.487  1.00  0.00     0.036 C 
HETATM    5  C   UNL     1     -42.723  57.148 -51.206  1.00  0.00     0.007 C 
ENDBRANCH   3   4
BRANCH   3   6
HETATM    6  C   UNL     1     -41.849  53.945 -52.319  1.00  0.00     0.013 A 
HETATM    7  C   UNL     1     -41.479  53.577 -51.017  1.00  0.00     0.127 A 
HETATM    8  F   UNL     1     -42.092  54.138 -49.965  1.00  0.00    -0.205 F 
HETATM    9  C   UNL     1     -40.492  52.627 -50.778  1.00  0.00     0.085 A 
HETATM   10  C   UNL     1     -39.858  52.033 -51.858  1.00  0.00     0.119 A 
HETATM   11  F   UNL     1     -38.909  51.113 -51.642  1.00  0.00    -0.206 F 
HETATM   12  C   UNL     1     -40.191  52.377 -53.163  1.00  0.00     0.043 A 
HETATM   13  C   UNL     1     -41.182  53.332 -53.397  1.00  0.00     0.015 A 
ENDBRANCH   3   6
ENDBRANCH   1   3
BRANCH   1  14
HETATM   14  C   UNL     1     -43.731  56.004 -54.609  1.00  0.00     0.372 C 
BRANCH  14  15
HETATM   15  C   UNL     1     -43.103  55.767 -55.989  1.00  0.00     0.250 C 
HETATM   16  N   UNL     1     -43.747  56.471 -56.986  1.00  0.00    -0.322 N 
HETATM   17  H   UNL     1     -44.571  56.982 -56.686  1.00  0.00     0.169 HD
HETATM   18  O   UNL     1     -42.174  54.981 -56.126  1.00  0.00    -0.271 OA
BRANCH  16  19
HETATM   19  C   UNL     1     -43.408  56.534 -58.323  1.00  0.00     0.085 A 
HETATM   20  C   UNL     1     -43.689  55.704 -59.449  1.00  0.00     0.079 A 
HETATM   21  C   UNL     1     -44.438  54.426 -59.541  1.00  0.00     0.075 C 
HETATM   22  N   UNL     1     -43.120  56.186 -60.565  1.00  0.00    -0.177 NA
HETATM   23  N   UNL     1     -42.489  57.292 -60.163  1.00  0.00    -0.280 N 
HETATM   24  H   UNL     1     -41.987  57.831 -60.861  1.00  0.00     0.189 HD
HETATM   25  C   UNL     1     -42.613  57.545 -58.827  1.00  0.00     0.052 A 
HETATM   26  C   UNL     1     -41.983  58.729 -58.200  1.00  0.00     0.072 C 
ENDBRANCH  16  19
ENDBRANCH  14  15
ENDBRANCH   1  14
TORSDOF 6
ENDMDL
MODEL 3
REMARK VINA RESULT:      -7.2      2.312      3.414
REMARK  6 active torsions:
REMARK  status: ('A' for Active; 'I' for Inactive)
REMARK    1  A    between atoms: C_2  and  C_3 
REMARK    2  A    between atoms: C_3  and  N_4 
REMARK    3  A    between atoms: C_3  and  C_17 
REMARK    4  A    between atoms: N_4  and  C_5 
REMARK    5  A    between atoms: C_5  and  C_6 
REMARK       I    between atoms: C_6  and  N_7 
REMARK    6  A    between atoms: N_7  and  C_8 
ROOT
HETATM    1  N   UNL     1     -42.084  54.531 -51.008  1.00  0.00     0.101 N 
HETATM    2  H   UNL     1     -42.931  54.504 -50.438  1.00  0.00     0.317 HD
ENDROOT
BRANCH   1   3
HETATM    3  C   UNL     1     -41.125  53.536 -50.486  1.00  0.00     0.256 C 
BRANCH   3   4
HETATM    4  C   UNL     1     -39.988  54.256 -49.727  1.00  0.00     0.036 C 
HETATM    5  C   UNL     1     -40.046  54.042 -48.219  1.00  0.00     0.007 C 
ENDBRANCH   3   4
BRANCH   3   6
HETATM    6  C   UNL     1     -40.545  52.653 -51.582  1.00  0.00     0.013 A 
HETATM    7  C   UNL     1     -40.048  51.381 -51.262  1.00  0.00     0.127 A 
HETATM    8  F   UNL     1     -40.071  50.955 -49.991  1.00  0.00    -0.205 F 
HETATM    9  C   UNL     1     -39.534  50.530 -52.235  1.00  0.00     0.085 A 
HETATM   10  C   UNL     1     -39.513  50.955 -53.554  1.00  0.00     0.119 A 
HETATM   11  F   UNL     1     -39.026  50.144 -54.502  1.00  0.00    -0.206 F 
HETATM   12  C   UNL     1     -39.990  52.212 -53.910  1.00  0.00     0.043 A 
HETATM   13  C   UNL     1     -40.503  53.063 -52.928  1.00  0.00     0.015 A 
ENDBRANCH   3   6
ENDBRANCH   1   3
BRANCH   1  14
HETATM   14  C   UNL     1     -41.530  55.904 -50.957  1.00  0.00     0.372 C 
BRANCH  14  15
HETATM   15  C   UNL     1     -41.813  56.642 -52.272  1.00  0.00     0.250 C 
HETATM   16  N   UNL     1     -42.883  56.102 -52.957  1.00  0.00    -0.322 N 
HETATM   17  H   UNL     1     -43.281  55.266 -52.540  1.00  0.00     0.169 HD
HETATM   18  O   UNL     1     -41.094  57.562 -52.641  1.00  0.00    -0.271 OA
BRANCH  16  19
HETATM   19  C   UNL     1     -43.441  56.554 -54.136  1.00  0.00     0.085 A 
HETATM   20  C   UNL     1     -44.276  57.663 -54.467  1.00  0.00     0.079 A 
HETATM   21  C   UNL     1     -44.872  58.713 -53.603  1.00  0.00     0.075 C 
HETATM   22  N   UNL     1     -44.572  57.679 -55.776  1.00  0.00    -0.177 NA
HETATM   23  N   UNL     1     -43.946  56.606 -56.269  1.00  0.00    -0.280 N 
HETATM   24  H   UNL     1     -44.030  56.424 -57.263  1.00  0.00     0.189 HD
HETATM   25  C   UNL     1     -43.265  55.884 -55.332  1.00  0.00     0.052 A 
HETATM   26  C   UNL     1     -42.508  54.663 -55.691  1.00  0.00     0.072 C 
ENDBRANCH  16  19
ENDBRANCH  14  15
ENDBRANCH   1  14
TORSDOF 6
ENDMDL
MODEL 4
REMARK VINA RESULT:      -7.1      3.765      5.467
REMARK  6 active torsions:
REMARK  status: ('A' for Active; 'I' for Inactive)
REMARK    1  A    between atoms: C_2  and  C_3 
REMARK    2  A    between atoms: C_3  and  N_4 
REMARK    3  A    between atoms: C_3  and  C_17 
REMARK    4  A    between atoms: N_4  and  C_5 
REMARK    5  A    between atoms: C_5  and  C_6 
REMARK       I    between atoms: C_6  and  N_7 
REMARK    6  A    between atoms: N_7  and  C_8 
ROOT
HETATM    1  N   UNL     1     -42.669  56.146 -53.524  1.00  0.00     0.101 N 
HETATM    2  H   UNL     1     -41.749  56.051 -53.956  1.00  0.00     0.317 HD
ENDROOT
BRANCH   1   3
HETATM    3  C   UNL     1     -42.958  54.927 -52.741  1.00  0.00     0.256 C 
BRANCH   3   4
HETATM    4  C   UNL     1     -43.159  55.298 -51.254  1.00  0.00     0.036 C 
HETATM    5  C   UNL     1     -44.177  54.410 -50.547  1.00  0.00     0.007 C 
ENDBRANCH   3   4
BRANCH   3   6
HETATM    6  C   UNL     1     -41.867  53.874 -52.874  1.00  0.00     0.013 A 
HETATM    7  C   UNL     1     -41.774  53.111 -54.047  1.00  0.00     0.127 A 
HETATM    8  F   UNL     1     -42.657  53.301 -55.039  1.00  0.00    -0.205 F 
HETATM    9  C   UNL     1     -40.777  52.158 -54.223  1.00  0.00     0.085 A 
HETATM   10  C   UNL     1     -39.853  51.959 -53.209  1.00  0.00     0.119 A 
HETATM   11  F   UNL     1     -38.885  51.048 -53.367  1.00  0.00    -0.206 F 
HETATM   12  C   UNL     1     -39.917  52.691 -52.028  1.00  0.00     0.043 A 
HETATM   13  C   UNL     1     -40.921  53.645 -51.857  1.00  0.00     0.015 A 
ENDBRANCH   3   6
ENDBRANCH   1   3
BRANCH   1  14
HETATM   14  C   UNL     1     -43.669  56.357 -54.596  1.00  0.00     0.372 C 
BRANCH  14  15
HETATM   15  C   UNL     1     -42.991  56.320 -55.972  1.00  0.00     0.250 C 
HETATM   16  N   UNL     1     -43.878  56.562 -57.001  1.00  0.00    -0.322 N 
HETATM   17  H   UNL     1     -44.848  56.659 -56.716  1.00  0.00     0.169 HD
HETATM   18  O   UNL     1     -41.803  56.041 -56.076  1.00  0.00    -0.271 OA
BRANCH  16  19
HETATM   19  C   UNL     1     -43.596  56.660 -58.349  1.00  0.00     0.085 A 
HETATM   20  C   UNL     1     -43.806  55.794 -59.463  1.00  0.00     0.079 A 
HETATM   21  C   UNL     1     -44.387  54.430 -59.528  1.00  0.00     0.075 C 
HETATM   22  N   UNL     1     -43.341  56.338 -60.599  1.00  0.00    -0.177 NA
HETATM   23  N   UNL     1     -42.843  57.519 -60.220  1.00  0.00    -0.280 N 
HETATM   24  H   UNL     1     -42.438  58.113 -60.935  1.00  0.00     0.189 HD
HETATM   25  C   UNL     1     -42.953  57.762 -58.881  1.00  0.00     0.052 A 
HETATM   26  C   UNL     1     -42.459  59.020 -58.277  1.00  0.00     0.072 C 
ENDBRANCH  16  19
ENDBRANCH  14  15
ENDBRANCH   1  14
TORSDOF 6
ENDMDL
MODEL 5
REMARK VINA RESULT:      -7.1      1.834      2.464
REMARK  6 active torsions:
REMARK  status: ('A' for Active; 'I' for Inactive)
REMARK    1  A    between atoms: C_2  and  C_3 
REMARK    2  A    between atoms: C_3  and  N_4 
REMARK    3  A    between atoms: C_3  and  C_17 
REMARK    4  A    between atoms: N_4  and  C_5 
REMARK    5  A    between atoms: C_5  and  C_6 
REMARK       I    between atoms: C_6  and  N_7 
REMARK    6  A    between atoms: N_7  and  C_8 
ROOT
HETATM    1  N   UNL     1     -42.036  54.930 -51.483  1.00  0.00     0.101 N 
HETATM    2  H   UNL     1     -42.104  54.701 -52.476  1.00  0.00     0.317 HD
ENDROOT
BRANCH   1   3
HETATM    3  C   UNL     1     -41.283  53.862 -50.795  1.00  0.00     0.256 C 
BRANCH   3   4
HETATM    4  C   UNL     1     -40.209  54.490 -49.879  1.00  0.00     0.036 C 
HETATM    5  C   UNL     1     -40.492  54.283 -48.396  1.00  0.00     0.007 C 
ENDBRANCH   3   4
BRANCH   3   6
HETATM    6  C   UNL     1     -40.637  52.884 -51.766  1.00  0.00     0.013 A 
HETATM    7  C   UNL     1     -40.131  51.664 -51.293  1.00  0.00     0.127 A 
HETATM    8  F   UNL     1     -40.205  51.373 -49.986  1.00  0.00    -0.205 F 
HETATM    9  C   UNL     1     -39.558  50.729 -52.148  1.00  0.00     0.085 A 
HETATM   10  C   UNL     1     -39.484  51.016 -53.502  1.00  0.00     0.119 A 
HETATM   11  F   UNL     1     -38.939  50.122 -54.337  1.00  0.00    -0.206 F 
HETATM   12  C   UNL     1     -39.968  52.218 -54.008  1.00  0.00     0.043 A 
HETATM   13  C   UNL     1     -40.542  53.153 -53.144  1.00  0.00     0.015 A 
ENDBRANCH   3   6
ENDBRANCH   1   3
BRANCH   1  14
HETATM   14  C   UNL     1     -43.408  55.070 -50.942  1.00  0.00     0.372 C 
BRANCH  14  15
HETATM   15  C   UNL     1     -43.861  56.534 -51.006  1.00  0.00     0.250 C 
HETATM   16  N   UNL     1     -42.879  57.365 -51.506  1.00  0.00    -0.322 N 
HETATM   17  H   UNL     1     -41.989  56.913 -51.692  1.00  0.00     0.169 HD
HETATM   18  O   UNL     1     -44.963  56.867 -50.587  1.00  0.00    -0.271 OA
BRANCH  16  19
HETATM   19  C   UNL     1     -42.970  58.721 -51.752  1.00  0.00     0.085 A 
HETATM   20  C   UNL     1     -43.823  59.516 -52.575  1.00  0.00     0.079 A 
HETATM   21  C   UNL     1     -44.911  59.119 -53.503  1.00  0.00     0.075 C 
HETATM   22  N   UNL     1     -43.511  60.819 -52.486  1.00  0.00    -0.177 NA
HETATM   23  N   UNL     1     -42.485  60.855 -51.632  1.00  0.00    -0.280 N 
HETATM   24  H   UNL     1     -42.087  61.761 -51.408  1.00  0.00     0.189 HD
HETATM   25  C   UNL     1     -42.106  59.628 -51.170  1.00  0.00     0.052 A 
HETATM   26  C   UNL     1     -40.987  59.470 -50.213  1.00  0.00     0.072 C 
ENDBRANCH  16  19
ENDBRANCH  14  15
ENDBRANCH   1  14
TORSDOF 6
ENDMDL
MODEL 6
REMARK VINA RESULT:      -6.9      3.869      5.396
REMARK  6 active torsions:
REMARK  status: ('A' for Active; 'I' for Inactive)
REMARK    1  A    between atoms: C_2  and  C_3 
REMARK    2  A    between atoms: C_3  and  N_4 
REMARK    3  A    between atoms: C_3  and  C_17 
REMARK    4  A    between atoms: N_4  and  C_5 
REMARK    5  A    between atoms: C_5  and  C_6 
REMARK       I    between atoms: C_6  and  N_7 
REMARK    6  A    between atoms: N_7  and  C_8 
ROOT
HETATM    1  N   UNL     1     -42.664  54.700 -54.456  1.00  0.00     0.101 N 
HETATM    2  H   UNL     1     -43.468  55.324 -54.378  1.00  0.00     0.317 HD
ENDROOT
BRANCH   1   3
HETATM    3  C   UNL     1     -41.696  55.032 -53.391  1.00  0.00     0.256 C 
BRANCH   3   4
HETATM    4  C   UNL     1     -40.692  56.086 -53.910  1.00  0.00     0.036 C 
HETATM    5  C   UNL     1     -41.051  57.509 -53.498  1.00  0.00     0.007 C 
ENDBRANCH   3   4
BRANCH   3   6
HETATM    6  C   UNL     1     -40.950  53.809 -52.877  1.00  0.00     0.013 A 
HETATM    7  C   UNL     1     -40.670  53.688 -51.507  1.00  0.00     0.127 A 
HETATM    8  F   UNL     1     -41.046  54.658 -50.661  1.00  0.00    -0.205 F 
HETATM    9  C   UNL     1     -40.016  52.575 -50.990  1.00  0.00     0.085 A 
HETATM   10  C   UNL     1     -39.631  51.562 -51.854  1.00  0.00     0.119 A 
HETATM   11  F   UNL     1     -39.005  50.483 -51.368  1.00  0.00    -0.206 F 
HETATM   12  C   UNL     1     -39.885  51.649 -53.218  1.00  0.00     0.043 A 
HETATM   13  C   UNL     1     -40.540  52.769 -53.732  1.00  0.00     0.015 A 
ENDBRANCH   3   6
ENDBRANCH   1   3
BRANCH   1  14
HETATM   14  C   UNL     1     -42.074  54.866 -55.804  1.00  0.00     0.372 C 
BRANCH  14  15
HETATM   15  C   UNL     1     -42.894  55.870 -56.625  1.00  0.00     0.250 C 
HETATM   16  N   UNL     1     -42.611  55.800 -57.974  1.00  0.00    -0.322 N 
HETATM   17  H   UNL     1     -41.865  55.157 -58.223  1.00  0.00     0.169 HD
HETATM   18  O   UNL     1     -43.653  56.656 -56.073  1.00  0.00    -0.271 OA
BRANCH  16  19
HETATM   19  C   UNL     1     -43.206  56.513 -58.996  1.00  0.00     0.085 A 
HETATM   20  C   UNL     1     -43.109  57.866 -59.438  1.00  0.00     0.079 A 
HETATM   21  C   UNL     1     -42.330  59.005 -58.890  1.00  0.00     0.075 C 
HETATM   22  N   UNL     1     -43.907  58.095 -60.492  1.00  0.00    -0.177 NA
HETATM   23  N   UNL     1     -44.502  56.920 -60.716  1.00  0.00    -0.280 N 
HETATM   24  H   UNL     1     -45.156  56.860 -61.489  1.00  0.00     0.189 HD
HETATM   25  C   UNL     1     -44.133  55.937 -59.843  1.00  0.00     0.052 A 
HETATM   26  C   UNL     1     -44.687  54.567 -59.937  1.00  0.00     0.072 C 
ENDBRANCH  16  19
ENDBRANCH  14  15
ENDBRANCH   1  14
TORSDOF 6
ENDMDL
MODEL 7
REMARK VINA RESULT:      -6.9      2.021      2.555
REMARK  6 active torsions:
REMARK  status: ('A' for Active; 'I' for Inactive)
REMARK    1  A    between atoms: C_2  and  C_3 
REMARK    2  A    between atoms: C_3  and  N_4 
REMARK    3  A    between atoms: C_3  and  C_17 
REMARK    4  A    between atoms: N_4  and  C_5 
REMARK    5  A    between atoms: C_5  and  C_6 
REMARK       I    between atoms: C_6  and  N_7 
REMARK    6  A    between atoms: N_7  and  C_8 
ROOT
HETATM    1  N   UNL     1     -40.888  55.897 -53.184  1.00  0.00     0.101 N 
HETATM    2  H   UNL     1     -39.924  55.878 -52.845  1.00  0.00     0.317 HD
ENDROOT
BRANCH   1   3
HETATM    3  C   UNL     1     -41.201  54.596 -53.809  1.00  0.00     0.256 C 
BRANCH   3   4
HETATM    4  C   UNL     1     -42.729  54.460 -53.992  1.00  0.00     0.036 C 
HETATM    5  C   UNL     1     -43.136  54.150 -55.428  1.00  0.00     0.007 C 
ENDBRANCH   3   4
BRANCH   3   6
HETATM    6  C   UNL     1     -40.663  53.418 -53.009  1.00  0.00     0.013 A 
HETATM    7  C   UNL     1     -40.124  52.309 -53.679  1.00  0.00     0.127 A 
HETATM    8  F   UNL     1     -40.101  52.285 -55.019  1.00  0.00    -0.205 F 
HETATM    9  C   UNL     1     -39.597  51.223 -52.988  1.00  0.00     0.085 A 
HETATM   10  C   UNL     1     -39.608  51.241 -51.602  1.00  0.00     0.119 A 
HETATM   11  F   UNL     1     -39.098  50.204 -50.925  1.00  0.00    -0.206 F 
HETATM   12  C   UNL     1     -40.139  52.319 -50.903  1.00  0.00     0.043 A 
HETATM   13  C   UNL     1     -40.669  53.406 -51.602  1.00  0.00     0.015 A 
ENDBRANCH   3   6
ENDBRANCH   1   3
BRANCH   1  14
HETATM   14  C   UNL     1     -41.022  57.014 -54.146  1.00  0.00     0.372 C 
BRANCH  14  15
HETATM   15  C   UNL     1     -41.313  58.325 -53.404  1.00  0.00     0.250 C 
HETATM   16  N   UNL     1     -42.283  58.175 -52.434  1.00  0.00    -0.322 N 
HETATM   17  H   UNL     1     -42.711  57.256 -52.395  1.00  0.00     0.169 HD
HETATM   18  O   UNL     1     -40.751  59.365 -53.728  1.00  0.00    -0.271 OA
BRANCH  16  19
HETATM   19  C   UNL     1     -42.739  59.130 -51.547  1.00  0.00     0.085 A 
HETATM   20  C   UNL     1     -43.980  59.817 -51.393  1.00  0.00     0.079 A 
HETATM   21  C   UNL     1     -45.225  59.751 -52.200  1.00  0.00     0.075 C 
HETATM   22  N   UNL     1     -43.937  60.680 -50.366  1.00  0.00    -0.177 NA
HETATM   23  N   UNL     1     -42.700  60.551 -49.877  1.00  0.00    -0.280 N 
HETATM   24  H   UNL     1     -42.447  61.116 -49.075  1.00  0.00     0.189 HD
HETATM   25  C   UNL     1     -41.930  59.648 -50.553  1.00  0.00     0.052 A 
HETATM   26  C   UNL     1     -40.532  59.369 -50.155  1.00  0.00     0.072 C 
ENDBRANCH  16  19
ENDBRANCH  14  15
ENDBRANCH   1  14
TORSDOF 6
ENDMDL
MODEL 8
REMARK VINA RESULT:      -6.8      3.158      6.920
REMARK  6 active torsions:
REMARK  status: ('A' for Active; 'I' for Inactive)
REMARK    1  A    between atoms: C_2  and  C_3 
REMARK    2  A    between atoms: C_3  and  N_4 
REMARK    3  A    between atoms: C_3  and  C_17 
REMARK    4  A    between atoms: N_4  and  C_5 
REMARK    5  A    between atoms: C_5  and  C_6 
REMARK       I    between atoms: C_6  and  N_7 
REMARK    6  A    between atoms: N_7  and  C_8 
ROOT
HETATM    1  N   UNL     1     -41.588  56.045 -50.200  1.00  0.00     0.101 N 
HETATM    2  H   UNL     1     -42.471  55.667 -50.545  1.00  0.00     0.317 HD
ENDROOT
BRANCH   1   3
HETATM    3  C   UNL     1     -41.121  57.094 -51.130  1.00  0.00     0.256 C 
BRANCH   3   4
HETATM    4  C   UNL     1     -41.154  58.468 -50.424  1.00  0.00     0.036 C 
HETATM    5  C   UNL     1     -39.843  59.236 -50.545  1.00  0.00     0.007 C 
ENDBRANCH   3   4
BRANCH   3   6
HETATM    6  C   UNL     1     -41.939  57.144 -52.413  1.00  0.00     0.013 A 
HETATM    7  C   UNL     1     -41.332  57.551 -53.611  1.00  0.00     0.127 A 
HETATM    8  F   UNL     1     -40.040  57.908 -53.617  1.00  0.00    -0.205 F 
HETATM    9  C   UNL     1     -42.034  57.586 -54.811  1.00  0.00     0.085 A 
HETATM   10  C   UNL     1     -43.368  57.209 -54.818  1.00  0.00     0.119 A 
HETATM   11  F   UNL     1     -44.054  57.233 -55.968  1.00  0.00    -0.206 F 
HETATM   12  C   UNL     1     -44.006  56.807 -53.650  1.00  0.00     0.043 A 
HETATM   13  C   UNL     1     -43.297  56.776 -52.447  1.00  0.00     0.015 A 
ENDBRANCH   3   6
ENDBRANCH   1   3
BRANCH   1  14
HETATM   14  C   UNL     1     -40.614  54.934 -50.095  1.00  0.00     0.372 C 
BRANCH  14  15
HETATM   15  C   UNL     1     -40.998  53.796 -51.050  1.00  0.00     0.250 C 
HETATM   16  N   UNL     1     -39.894  53.153 -51.571  1.00  0.00    -0.322 N 
HETATM   17  H   UNL     1     -39.000  53.558 -51.311  1.00  0.00     0.169 HD
HETATM   18  O   UNL     1     -42.172  53.577 -51.321  1.00  0.00    -0.271 OA
BRANCH  16  19
HETATM   19  C   UNL     1     -39.877  52.056 -52.409  1.00  0.00     0.085 A 
HETATM   20  C   UNL     1     -39.684  50.659 -52.196  1.00  0.00     0.079 A 
HETATM   21  C   UNL     1     -39.385  49.905 -50.953  1.00  0.00     0.075 C 
HETATM   22  N   UNL     1     -39.748  49.975 -53.350  1.00  0.00    -0.177 NA
HETATM   23  N   UNL     1     -39.974  50.911 -54.276  1.00  0.00    -0.280 N 
HETATM   24  H   UNL     1     -40.067  50.610 -55.240  1.00  0.00     0.189 HD
HETATM   25  C   UNL     1     -40.046  52.179 -53.775  1.00  0.00     0.052 A 
HETATM   26  C   UNL     1     -40.292  53.347 -54.651  1.00  0.00     0.072 C 
ENDBRANCH  16  19
ENDBRANCH  14  15
ENDBRANCH   1  14
TORSDOF 6
ENDMDL
MODEL 9
REMARK VINA RESULT:      -6.6      1.929      3.001
REMARK  6 active torsions:
REMARK  status: ('A' for Active; 'I' for Inactive)
REMARK    1  A    between atoms: C_2  and  C_3 
REMARK    2  A    between atoms: C_3  and  N_4 
REMARK    3  A    between atoms: C_3  and  C_17 
REMARK    4  A    between atoms: N_4  and  C_5 
REMARK    5  A    between atoms: C_5  and  C_6 
REMARK       I    between atoms: C_6  and  N_7 
REMARK    6  A    between atoms: N_7  and  C_8 
ROOT
HETATM    1  N   UNL     1     -40.968  55.580 -52.636  1.00  0.00     0.101 N 
HETATM    2  H   UNL     1     -40.049  55.322 -52.999  1.00  0.00     0.317 HD
ENDROOT
BRANCH   1   3
HETATM    3  C   UNL     1     -41.697  54.352 -52.260  1.00  0.00     0.256 C 
BRANCH   3   4
HETATM    4  C   UNL     1     -41.931  54.333 -50.732  1.00  0.00     0.036 C 
HETATM    5  C   UNL     1     -41.193  55.447 -50.000  1.00  0.00     0.007 C 
ENDBRANCH   3   4
BRANCH   3   6
HETATM    6  C   UNL     1     -40.973  53.086 -52.694  1.00  0.00     0.013 A 
HETATM    7  C   UNL     1     -41.176  52.574 -53.984  1.00  0.00     0.127 A 
HETATM    8  F   UNL     1     -42.019  53.194 -54.823  1.00  0.00    -0.205 F 
HETATM    9  C   UNL     1     -40.515  51.436 -54.433  1.00  0.00     0.085 A 
HETATM   10  C   UNL     1     -39.634  50.792 -53.577  1.00  0.00     0.119 A 
HETATM   11  F   UNL     1     -38.986  49.698 -53.998  1.00  0.00    -0.206 F 
HETATM   12  C   UNL     1     -39.412  51.265 -52.288  1.00  0.00     0.043 A 
HETATM   13  C   UNL     1     -40.080  52.407 -51.843  1.00  0.00     0.015 A 
ENDBRANCH   3   6
ENDBRANCH   1   3
BRANCH   1  14
HETATM   14  C   UNL     1     -41.685  56.344 -53.684  1.00  0.00     0.372 C 
BRANCH  14  15
HETATM   15  C   UNL     1     -41.784  57.824 -53.291  1.00  0.00     0.250 C 
HETATM   16  N   UNL     1     -42.557  58.017 -52.165  1.00  0.00    -0.322 N 
HETATM   17  H   UNL     1     -43.001  57.179 -51.801  1.00  0.00     0.169 HD
HETATM   18  O   UNL     1     -41.259  58.690 -53.980  1.00  0.00    -0.271 OA
BRANCH  16  19
HETATM   19  C   UNL     1     -42.804  59.207 -51.508  1.00  0.00     0.085 A 
HETATM   20  C   UNL     1     -42.016  60.048 -50.668  1.00  0.00     0.079 A 
HETATM   21  C   UNL     1     -40.625  59.888 -50.175  1.00  0.00     0.075 C 
HETATM   22  N   UNL     1     -42.714  61.117 -50.253  1.00  0.00    -0.177 NA
HETATM   23  N   UNL     1     -43.918  60.961 -50.810  1.00  0.00    -0.280 N 
HETATM   24  H   UNL     1     -44.618  61.672 -50.632  1.00  0.00     0.189 HD
HETATM   25  C   UNL     1     -44.038  59.827 -51.562  1.00  0.00     0.052 A 
HETATM   26  C   UNL     1     -45.299  59.486 -52.258  1.00  0.00     0.072 C 
ENDBRANCH  16  19
ENDBRANCH  14  15
ENDBRANCH   1  14
TORSDOF 6
ENDMDL
MODEL 10
REMARK VINA RESULT:      -6.6      2.858      3.864
REMARK  6 active torsions:
REMARK  status: ('A' for Active; 'I' for Inactive)
REMARK    1  A    between atoms: C_2  and  C_3 
REMARK    2  A    between atoms: C_3  and  N_4 
REMARK    3  A    between atoms: C_3  and  C_17 
REMARK    4  A    between atoms: N_4  and  C_5 
REMARK    5  A    between atoms: C_5  and  C_6 
REMARK       I    between atoms: C_6  and  N_7 
REMARK    6  A    between atoms: N_7  and  C_8 
ROOT
HETATM    1  N   UNL     1     -40.823  55.622 -53.339  1.00  0.00     0.101 N 
HETATM    2  H   UNL     1     -41.169  55.497 -54.291  1.00  0.00     0.317 HD
ENDROOT
BRANCH   1   3
HETATM    3  C   UNL     1     -41.377  54.553 -52.483  1.00  0.00     0.256 C 
BRANCH   3   4
HETATM    4  C   UNL     1     -41.154  54.909 -50.995  1.00  0.00     0.036 C 
HETATM    5  C   UNL     1     -42.395  54.695 -50.137  1.00  0.00     0.007 C 
ENDBRANCH   3   4
BRANCH   3   6
HETATM    6  C   UNL     1     -40.776  53.188 -52.790  1.00  0.00     0.013 A 
HETATM    7  C   UNL     1     -41.057  52.563 -54.014  1.00  0.00     0.127 A 
HETATM    8  F   UNL     1     -41.865  53.163 -54.900  1.00  0.00    -0.205 F 
HETATM    9  C   UNL     1     -40.509  51.329 -54.348  1.00  0.00     0.085 A 
HETATM   10  C   UNL     1     -39.665  50.704 -53.444  1.00  0.00     0.119 A 
HETATM   11  F   UNL     1     -39.126  49.518 -53.754  1.00  0.00    -0.206 F 
HETATM   12  C   UNL     1     -39.368  51.289 -52.217  1.00  0.00     0.043 A 
HETATM   13  C   UNL     1     -39.923  52.527 -51.887  1.00  0.00     0.015 A 
ENDBRANCH   3   6
ENDBRANCH   1   3
BRANCH   1  14
HETATM   14  C   UNL     1     -41.228  56.966 -52.867  1.00  0.00     0.372 C 
BRANCH  14  15
HETATM   15  C   UNL     1     -41.914  57.743 -53.999  1.00  0.00     0.250 C 
HETATM   16  N   UNL     1     -42.874  56.991 -54.644  1.00  0.00    -0.322 N 
HETATM   17  H   UNL     1     -42.943  56.027 -54.335  1.00  0.00     0.169 HD
HETATM   18  O   UNL     1     -41.559  58.881 -54.281  1.00  0.00    -0.271 OA
BRANCH  16  19
HETATM   19  C   UNL     1     -43.716  57.397 -55.661  1.00  0.00     0.085 A 
HETATM   20  C   UNL     1     -44.715  58.410 -55.765  1.00  0.00     0.079 A 
HETATM   21  C   UNL     1     -45.221  59.374 -54.755  1.00  0.00     0.075 C 
HETATM   22  N   UNL     1     -45.284  58.412 -56.981  1.00  0.00    -0.177 NA
HETATM   23  N   UNL     1     -44.668  57.424 -57.636  1.00  0.00    -0.280 N 
HETATM   24  H   UNL     1     -44.942  57.250 -58.596  1.00  0.00     0.189 HD
HETATM   25  C   UNL     1     -43.729  56.769 -56.892  1.00  0.00     0.052 A 
HETATM   26  C   UNL     1     -42.941  55.646 -57.450  1.00  0.00     0.072 C 
ENDBRANCH  16  19
ENDBRANCH  14  15
ENDBRANCH   1  14
TORSDOF 6
ENDMDL
