MODEL 1
REMARK VINA RESULT:      -9.5      0.000      0.000
REMARK  1 active torsions:
REMARK  status: ('A' for Active; 'I' for Inactive)
REMARK    1  A    between atoms: C_8  and  C_9 
ROOT
HETATM    1  C   UNL     1     -40.433  53.721 -55.187  1.00  0.00     0.049 C 
HETATM    2  C   UNL     1     -40.236  52.810 -54.004  1.00  0.00    -0.050 A 
HETATM    3  C   UNL     1     -40.601  53.182 -52.695  1.00  0.00    -0.002 A 
HETATM    4  C   UNL     1     -40.363  52.294 -51.628  1.00  0.00     0.051 A 
HETATM    5  N   UNL     1     -40.684  52.710 -50.326  1.00  0.00    -0.322 N 
HETATM    6  C   UNL     1     -41.219  53.926 -50.014  1.00  0.00     0.255 A 
HETATM    7  O   UNL     1     -41.424  54.238 -48.843  1.00  0.00    -0.268 OA
HETATM    8  C   UNL     1     -41.569  54.842 -51.136  1.00  0.00     0.048 A 
HETATM    9  C   UNL     1     -41.240  54.470 -52.389  1.00  0.00     0.030 A 
HETATM   10  C   UNL     1     -39.799  51.026 -51.847  1.00  0.00    -0.034 A 
HETATM   11  C   UNL     1     -39.567  50.047 -50.731  1.00  0.00     0.050 C 
HETATM   12  C   UNL     1     -39.458  50.664 -53.155  1.00  0.00     0.009 A 
HETATM   13  C   UNL     1     -39.668  51.545 -54.217  1.00  0.00     0.008 A 
HETATM   14  H   UNL     1     -40.489  52.110 -49.537  1.00  0.00     0.169 HD
ENDROOT
BRANCH   8  15
HETATM   15  C   UNL     1     -42.224  56.150 -50.753  1.00  0.00     0.202 C 
HETATM   16  N   UNL     1     -43.527  56.288 -51.336  1.00  0.00    -0.336 N 
HETATM   17  C   UNL     1     -44.235  57.449 -51.135  1.00  0.00     0.255 C 
HETATM   18  H   UNL     1     -44.129  55.470 -51.269  1.00  0.00     0.164 HD
HETATM   19  O   UNL     1     -45.458  57.477 -51.161  1.00  0.00    -0.268 OA
HETATM   20  C   UNL     1     -43.425  58.665 -50.928  1.00  0.00     0.053 A 
HETATM   21  C   UNL     1     -42.032  58.529 -50.979  1.00  0.00     0.026 A 
HETATM   22  C   UNL     1     -44.027  59.914 -50.753  1.00  0.00     0.019 A 
HETATM   23  N   UNL     1     -41.426  57.277 -51.249  1.00  0.00    -0.266 NA
HETATM   24  C   UNL     1     -41.245  59.680 -50.941  1.00  0.00     0.024 A 
HETATM   25  H   UNL     1     -41.388  57.193 -52.266  1.00  0.00     0.130 HD
HETATM   26  C   UNL     1     -41.837  60.935 -50.769  1.00  0.00     0.002 A 
HETATM   27  C   UNL     1     -43.224  61.051 -50.666  1.00  0.00     0.001 A 
ENDBRANCH   8  15
TORSDOF 1
ENDMDL
MODEL 2
REMARK VINA RESULT:      -9.3      4.374      5.921
REMARK  1 active torsions:
REMARK  status: ('A' for Active; 'I' for Inactive)
REMARK    1  A    between atoms: C_8  and  C_9 
ROOT
HETATM    1  C   UNL     1     -40.234  51.744 -54.348  1.00  0.00     0.049 C 
HETATM    2  C   UNL     1     -40.455  52.684 -53.193  1.00  0.00    -0.050 A 
HETATM    3  C   UNL     1     -41.111  53.922 -53.341  1.00  0.00    -0.002 A 
HETATM    4  C   UNL     1     -41.259  54.768 -52.225  1.00  0.00     0.051 A 
HETATM    5  N   UNL     1     -41.867  56.020 -52.410  1.00  0.00    -0.322 N 
HETATM    6  C   UNL     1     -42.332  56.484 -53.606  1.00  0.00     0.255 A 
HETATM    7  O   UNL     1     -42.805  57.614 -53.699  1.00  0.00    -0.268 OA
HETATM    8  C   UNL     1     -42.274  55.566 -54.779  1.00  0.00     0.048 A 
HETATM    9  C   UNL     1     -41.667  54.372 -54.624  1.00  0.00     0.030 A 
HETATM   10  C   UNL     1     -40.796  54.387 -50.954  1.00  0.00    -0.034 A 
HETATM   11  C   UNL     1     -40.972  55.256 -49.741  1.00  0.00     0.050 C 
HETATM   12  C   UNL     1     -40.162  53.147 -50.819  1.00  0.00     0.009 A 
HETATM   13  C   UNL     1     -39.988  52.310 -51.923  1.00  0.00     0.008 A 
HETATM   14  H   UNL     1     -41.952  56.664 -51.637  1.00  0.00     0.169 HD
ENDROOT
BRANCH   8  15
HETATM   15  C   UNL     1     -42.863  56.090 -56.069  1.00  0.00     0.202 C 
HETATM   16  N   UNL     1     -43.048  55.047 -57.036  1.00  0.00    -0.336 N 
HETATM   17  C   UNL     1     -43.521  55.365 -58.287  1.00  0.00     0.255 C 
HETATM   18  H   UNL     1     -43.472  54.191 -56.686  1.00  0.00     0.164 HD
HETATM   19  O   UNL     1     -44.142  54.563 -58.971  1.00  0.00    -0.268 OA
HETATM   20  C   UNL     1     -43.194  56.721 -58.769  1.00  0.00     0.053 A 
HETATM   21  C   UNL     1     -42.424  57.536 -57.930  1.00  0.00     0.026 A 
HETATM   22  C   UNL     1     -43.583  57.150 -60.041  1.00  0.00     0.019 A 
HETATM   23  N   UNL     1     -41.953  57.065 -56.679  1.00  0.00    -0.266 NA
HETATM   24  C   UNL     1     -41.971  58.762 -58.418  1.00  0.00     0.024 A 
HETATM   25  H   UNL     1     -41.076  56.578 -56.871  1.00  0.00     0.130 HD
HETATM   26  C   UNL     1     -42.352  59.200 -59.690  1.00  0.00     0.002 A 
HETATM   27  C   UNL     1     -43.164  58.400 -60.496  1.00  0.00     0.001 A 
ENDBRANCH   8  15
TORSDOF 1
ENDMDL
MODEL 3
REMARK VINA RESULT:      -9.3      2.588      3.548
REMARK  1 active torsions:
REMARK  status: ('A' for Active; 'I' for Inactive)
REMARK    1  A    between atoms: C_8  and  C_9 
ROOT
HETATM    1  C   UNL     1     -40.467  52.865 -49.552  1.00  0.00     0.049 C 
HETATM    2  C   UNL     1     -40.228  52.170 -50.866  1.00  0.00    -0.050 A 
HETATM    3  C   UNL     1     -40.466  52.795 -52.106  1.00  0.00    -0.002 A 
HETATM    4  C   UNL     1     -40.249  52.078 -53.299  1.00  0.00     0.051 A 
HETATM    5  N   UNL     1     -40.546  52.704 -54.520  1.00  0.00    -0.322 N 
HETATM    6  C   UNL     1     -41.035  53.973 -54.638  1.00  0.00     0.255 A 
HETATM    7  O   UNL     1     -41.321  54.434 -55.741  1.00  0.00    -0.268 OA
HETATM    8  C   UNL     1     -41.179  54.783 -53.396  1.00  0.00     0.048 A 
HETATM    9  C   UNL     1     -40.926  54.186 -52.214  1.00  0.00     0.030 A 
HETATM   10  C   UNL     1     -39.765  50.759 -53.280  1.00  0.00    -0.034 A 
HETATM   11  C   UNL     1     -39.493  49.985 -54.538  1.00  0.00     0.050 C 
HETATM   12  C   UNL     1     -39.516  50.158 -52.040  1.00  0.00     0.009 A 
HETATM   13  C   UNL     1     -39.751  50.851 -50.851  1.00  0.00     0.008 A 
HETATM   14  H   UNL     1     -40.438  52.202 -55.390  1.00  0.00     0.169 HD
ENDROOT
BRANCH   8  15
HETATM   15  C   UNL     1     -41.656  56.206 -53.576  1.00  0.00     0.202 C 
HETATM   16  N   UNL     1     -40.678  57.158 -53.137  1.00  0.00    -0.336 N 
HETATM   17  C   UNL     1     -40.978  58.499 -53.177  1.00  0.00     0.255 C 
HETATM   18  H   UNL     1     -39.723  56.983 -53.443  1.00  0.00     0.164 HD
HETATM   19  O   UNL     1     -40.113  59.356 -53.293  1.00  0.00    -0.268 OA
HETATM   20  C   UNL     1     -42.407  58.840 -53.031  1.00  0.00     0.053 A 
HETATM   21  C   UNL     1     -43.306  57.783 -52.842  1.00  0.00     0.026 A 
HETATM   22  C   UNL     1     -42.836  60.169 -53.014  1.00  0.00     0.019 A 
HETATM   23  N   UNL     1     -42.857  56.441 -52.766  1.00  0.00    -0.266 NA
HETATM   24  C   UNL     1     -44.638  58.080 -52.548  1.00  0.00     0.024 A 
HETATM   25  H   UNL     1     -42.597  56.283 -51.792  1.00  0.00     0.130 HD
HETATM   26  C   UNL     1     -45.076  59.407 -52.527  1.00  0.00     0.002 A 
HETATM   27  C   UNL     1     -44.179  60.450 -52.769  1.00  0.00     0.001 A 
ENDBRANCH   8  15
TORSDOF 1
ENDMDL
MODEL 4
REMARK VINA RESULT:      -9.2      3.838      5.461
REMARK  1 active torsions:
REMARK  status: ('A' for Active; 'I' for Inactive)
REMARK    1  A    between atoms: C_8  and  C_9 
ROOT
HETATM    1  C   UNL     1     -40.197  51.719 -54.351  1.00  0.00     0.049 C 
HETATM    2  C   UNL     1     -40.307  52.518 -53.080  1.00  0.00    -0.050 A 
HETATM    3  C   UNL     1     -40.834  53.824 -53.052  1.00  0.00    -0.002 A 
HETATM    4  C   UNL     1     -40.882  54.529 -51.834  1.00  0.00     0.051 A 
HETATM    5  N   UNL     1     -41.359  55.849 -51.842  1.00  0.00    -0.322 N 
HETATM    6  C   UNL     1     -41.787  56.509 -52.957  1.00  0.00     0.255 A 
HETATM    7  O   UNL     1     -42.143  57.683 -52.893  1.00  0.00    -0.268 OA
HETATM    8  C   UNL     1     -41.837  55.750 -54.239  1.00  0.00     0.048 A 
HETATM    9  C   UNL     1     -41.355  54.492 -54.254  1.00  0.00     0.030 A 
HETATM   10  C   UNL     1     -40.447  53.941 -50.634  1.00  0.00    -0.034 A 
HETATM   11  C   UNL     1     -40.520  54.658 -49.316  1.00  0.00     0.050 C 
HETATM   12  C   UNL     1     -39.943  52.636 -50.675  1.00  0.00     0.009 A 
HETATM   13  C   UNL     1     -39.868  51.937 -51.881  1.00  0.00     0.008 A 
HETATM   14  H   UNL     1     -41.370  56.392 -50.990  1.00  0.00     0.169 HD
ENDROOT
BRANCH   8  15
HETATM   15  C   UNL     1     -42.383  56.494 -55.437  1.00  0.00     0.202 C 
HETATM   16  N   UNL     1     -43.694  57.020 -55.189  1.00  0.00    -0.336 N 
HETATM   17  C   UNL     1     -44.360  57.674 -56.198  1.00  0.00     0.255 C 
HETATM   18  H   UNL     1     -43.818  57.492 -54.295  1.00  0.00     0.164 HD
HETATM   19  O   UNL     1     -45.203  58.531 -55.972  1.00  0.00    -0.268 OA
HETATM   20  C   UNL     1     -44.021  57.247 -57.570  1.00  0.00     0.053 A 
HETATM   21  C   UNL     1     -43.086  56.214 -57.711  1.00  0.00     0.026 A 
HETATM   22  C   UNL     1     -44.658  57.807 -58.680  1.00  0.00     0.019 A 
HETATM   23  N   UNL     1     -42.510  55.584 -56.580  1.00  0.00    -0.266 NA
HETATM   24  C   UNL     1     -42.859  55.685 -58.983  1.00  0.00     0.024 A 
HETATM   25  H   UNL     1     -43.159  54.845 -56.305  1.00  0.00     0.130 HD
HETATM   26  C   UNL     1     -43.494  56.236 -60.100  1.00  0.00     0.002 A 
HETATM   27  C   UNL     1     -44.384  57.301 -59.950  1.00  0.00     0.001 A 
ENDBRANCH   8  15
TORSDOF 1
ENDMDL
MODEL 5
REMARK VINA RESULT:      -9.2      1.518      2.136
REMARK  1 active torsions:
REMARK  status: ('A' for Active; 'I' for Inactive)
REMARK    1  A    between atoms: C_8  and  C_9 
ROOT
HETATM    1  C   UNL     1     -40.213  53.719 -55.313  1.00  0.00     0.049 C 
HETATM    2  C   UNL     1     -40.221  53.070 -53.955  1.00  0.00    -0.050 A 
HETATM    3  C   UNL     1     -40.615  53.760 -52.790  1.00  0.00    -0.002 A 
HETATM    4  C   UNL     1     -40.571  53.103 -51.545  1.00  0.00     0.051 A 
HETATM    5  N   UNL     1     -40.914  53.827 -50.394  1.00  0.00    -0.322 N 
HETATM    6  C   UNL     1     -41.294  55.138 -50.391  1.00  0.00     0.255 A 
HETATM    7  O   UNL     1     -41.530  55.720 -49.334  1.00  0.00    -0.268 OA
HETATM    8  C   UNL     1     -41.442  55.824 -51.705  1.00  0.00     0.048 A 
HETATM    9  C   UNL     1     -41.088  55.151 -52.818  1.00  0.00     0.030 A 
HETATM   10  C   UNL     1     -40.175  51.758 -51.444  1.00  0.00    -0.034 A 
HETATM   11  C   UNL     1     -40.153  51.025 -50.133  1.00  0.00     0.050 C 
HETATM   12  C   UNL     1     -39.804  51.082 -52.611  1.00  0.00     0.009 A 
HETATM   13  C   UNL     1     -39.820  51.730 -53.847  1.00  0.00     0.008 A 
HETATM   14  H   UNL     1     -40.856  53.395 -49.483  1.00  0.00     0.169 HD
ENDROOT
BRANCH   8  15
HETATM   15  C   UNL     1     -41.933  57.254 -51.664  1.00  0.00     0.202 C 
HETATM   16  N   UNL     1     -41.116  58.076 -50.821  1.00  0.00    -0.336 N 
HETATM   17  C   UNL     1     -41.460  59.393 -50.626  1.00  0.00     0.255 C 
HETATM   18  H   UNL     1     -40.110  57.970 -50.941  1.00  0.00     0.164 HD
HETATM   19  O   UNL     1     -40.629  60.249 -50.355  1.00  0.00    -0.268 OA
HETATM   20  C   UNL     1     -42.901  59.698 -50.724  1.00  0.00     0.053 A 
HETATM   21  C   UNL     1     -43.771  58.630 -50.977  1.00  0.00     0.026 A 
HETATM   22  C   UNL     1     -43.383  60.991 -50.506  1.00  0.00     0.019 A 
HETATM   23  N   UNL     1     -43.288  57.304 -51.106  1.00  0.00    -0.266 NA
HETATM   24  C   UNL     1     -45.147  58.860 -50.923  1.00  0.00     0.024 A 
HETATM   25  H   UNL     1     -43.237  56.928 -50.158  1.00  0.00     0.130 HD
HETATM   26  C   UNL     1     -45.639  60.150 -50.704  1.00  0.00     0.002 A 
HETATM   27  C   UNL     1     -44.759  61.215 -50.505  1.00  0.00     0.001 A 
ENDBRANCH   8  15
TORSDOF 1
ENDMDL
MODEL 6
REMARK VINA RESULT:      -9.0      1.897      7.541
REMARK  1 active torsions:
REMARK  status: ('A' for Active; 'I' for Inactive)
REMARK    1  A    between atoms: C_8  and  C_9 
ROOT
HETATM    1  C   UNL     1     -39.788  59.706 -50.450  1.00  0.00     0.049 C 
HETATM    2  C   UNL     1     -41.268  59.514 -50.654  1.00  0.00    -0.050 A 
HETATM    3  C   UNL     1     -41.820  58.290 -51.080  1.00  0.00    -0.002 A 
HETATM    4  C   UNL     1     -43.210  58.186 -51.279  1.00  0.00     0.051 A 
HETATM    5  N   UNL     1     -43.729  56.972 -51.757  1.00  0.00    -0.322 N 
HETATM    6  C   UNL     1     -42.977  55.871 -52.045  1.00  0.00     0.255 A 
HETATM    7  O   UNL     1     -43.498  54.860 -52.510  1.00  0.00    -0.268 OA
HETATM    8  C   UNL     1     -41.517  55.926 -51.749  1.00  0.00     0.048 A 
HETATM    9  C   UNL     1     -40.999  57.094 -51.317  1.00  0.00     0.030 A 
HETATM   10  C   UNL     1     -44.066  59.271 -51.027  1.00  0.00    -0.034 A 
HETATM   11  C   UNL     1     -45.555  59.176 -51.199  1.00  0.00     0.050 C 
HETATM   12  C   UNL     1     -43.504  60.475 -50.588  1.00  0.00     0.009 A 
HETATM   13  C   UNL     1     -42.125  60.597 -50.410  1.00  0.00     0.008 A 
HETATM   14  H   UNL     1     -44.717  56.880 -51.946  1.00  0.00     0.169 HD
ENDROOT
BRANCH   8  15
HETATM   15  C   UNL     1     -40.731  54.663 -52.015  1.00  0.00     0.202 C 
HETATM   16  N   UNL     1     -40.957  54.160 -53.339  1.00  0.00    -0.336 N 
HETATM   17  C   UNL     1     -40.362  52.982 -53.723  1.00  0.00     0.255 C 
HETATM   18  H   UNL     1     -40.926  54.852 -54.085  1.00  0.00     0.164 HD
HETATM   19  O   UNL     1     -40.100  52.737 -54.892  1.00  0.00    -0.268 OA
HETATM   20  C   UNL     1     -40.099  52.016 -52.638  1.00  0.00     0.053 A 
HETATM   21  C   UNL     1     -40.496  52.374 -51.344  1.00  0.00     0.026 A 
HETATM   22  C   UNL     1     -39.535  50.765 -52.905  1.00  0.00     0.019 A 
HETATM   23  N   UNL     1     -41.152  53.604 -51.091  1.00  0.00    -0.266 NA
HETATM   24  C   UNL     1     -40.401  51.423 -50.327  1.00  0.00     0.024 A 
HETATM   25  H   UNL     1     -42.145  53.436 -51.259  1.00  0.00     0.130 HD
HETATM   26  C   UNL     1     -39.840  50.168 -50.584  1.00  0.00     0.002 A 
HETATM   27  C   UNL     1     -39.400  49.843 -51.868  1.00  0.00     0.001 A 
ENDBRANCH   8  15
TORSDOF 1
ENDMDL
MODEL 7
REMARK VINA RESULT:      -8.9      3.422      7.778
REMARK  1 active torsions:
REMARK  status: ('A' for Active; 'I' for Inactive)
REMARK    1  A    between atoms: C_8  and  C_9 
ROOT
HETATM    1  C   UNL     1     -40.728  59.162 -53.171  1.00  0.00     0.049 C 
HETATM    2  C   UNL     1     -41.717  58.881 -54.270  1.00  0.00    -0.050 A 
HETATM    3  C   UNL     1     -42.148  57.576 -54.584  1.00  0.00    -0.002 A 
HETATM    4  C   UNL     1     -43.053  57.379 -55.645  1.00  0.00     0.051 A 
HETATM    5  N   UNL     1     -43.424  56.066 -55.974  1.00  0.00    -0.322 N 
HETATM    6  C   UNL     1     -42.966  54.951 -55.333  1.00  0.00     0.255 A 
HETATM    7  O   UNL     1     -43.296  53.830 -55.714  1.00  0.00    -0.268 OA
HETATM    8  C   UNL     1     -42.085  55.141 -54.147  1.00  0.00     0.048 A 
HETATM    9  C   UNL     1     -41.697  56.394 -53.836  1.00  0.00     0.030 A 
HETATM   10  C   UNL     1     -43.567  58.463 -56.376  1.00  0.00    -0.034 A 
HETATM   11  C   UNL     1     -44.560  58.283 -57.489  1.00  0.00     0.050 C 
HETATM   12  C   UNL     1     -43.143  59.754 -56.041  1.00  0.00     0.009 A 
HETATM   13  C   UNL     1     -42.227  59.960 -55.008  1.00  0.00     0.008 A 
HETATM   14  H   UNL     1     -44.041  55.891 -56.754  1.00  0.00     0.169 HD
ENDROOT
BRANCH   8  15
HETATM   15  C   UNL     1     -41.657  53.885 -53.422  1.00  0.00     0.202 C 
HETATM   16  N   UNL     1     -40.777  54.172 -52.327  1.00  0.00    -0.336 N 
HETATM   17  C   UNL     1     -40.248  53.134 -51.598  1.00  0.00     0.255 C 
HETATM   18  H   UNL     1     -41.061  54.942 -51.723  1.00  0.00     0.164 HD
HETATM   19  O   UNL     1     -39.915  53.263 -50.428  1.00  0.00    -0.268 OA
HETATM   20  C   UNL     1     -40.068  51.865 -52.331  1.00  0.00     0.053 A 
HETATM   21  C   UNL     1     -40.425  51.846 -53.684  1.00  0.00     0.026 A 
HETATM   22  C   UNL     1     -39.502  50.747 -51.713  1.00  0.00     0.019 A 
HETATM   23  N   UNL     1     -40.913  53.008 -54.333  1.00  0.00    -0.266 NA
HETATM   24  C   UNL     1     -40.125  50.711 -54.440  1.00  0.00     0.024 A 
HETATM   25  H   UNL     1     -40.090  53.526 -54.644  1.00  0.00     0.130 HD
HETATM   26  C   UNL     1     -39.556  49.588 -53.832  1.00  0.00     0.002 A 
HETATM   27  C   UNL     1     -39.254  49.602 -52.470  1.00  0.00     0.001 A 
ENDBRANCH   8  15
TORSDOF 1
ENDMDL
MODEL 8
REMARK VINA RESULT:      -8.8      4.302      7.372
REMARK  1 active torsions:
REMARK  status: ('A' for Active; 'I' for Inactive)
REMARK    1  A    between atoms: C_8  and  C_9 
ROOT
HETATM    1  C   UNL     1     -44.614  54.015 -59.467  1.00  0.00     0.049 C 
HETATM    2  C   UNL     1     -43.956  55.365 -59.366  1.00  0.00    -0.050 A 
HETATM    3  C   UNL     1     -43.302  55.801 -58.196  1.00  0.00    -0.002 A 
HETATM    4  C   UNL     1     -42.732  57.088 -58.157  1.00  0.00     0.051 A 
HETATM    5  N   UNL     1     -42.135  57.520 -56.962  1.00  0.00    -0.322 N 
HETATM    6  C   UNL     1     -42.064  56.775 -55.821  1.00  0.00     0.255 A 
HETATM    7  O   UNL     1     -41.571  57.243 -54.797  1.00  0.00    -0.268 OA
HETATM    8  C   UNL     1     -42.573  55.375 -55.870  1.00  0.00     0.048 A 
HETATM    9  C   UNL     1     -43.175  54.956 -57.000  1.00  0.00     0.030 A 
HETATM   10  C   UNL     1     -42.770  57.937 -59.276  1.00  0.00    -0.034 A 
HETATM   11  C   UNL     1     -42.140  59.301 -59.272  1.00  0.00     0.050 C 
HETATM   12  C   UNL     1     -43.407  57.483 -60.436  1.00  0.00     0.009 A 
HETATM   13  C   UNL     1     -43.997  56.219 -60.478  1.00  0.00     0.008 A 
HETATM   14  H   UNL     1     -41.752  58.452 -56.892  1.00  0.00     0.169 HD
ENDROOT
BRANCH   8  15
HETATM   15  C   UNL     1     -42.412  54.560 -54.607  1.00  0.00     0.202 C 
HETATM   16  N   UNL     1     -42.651  55.343 -53.429  1.00  0.00    -0.336 N 
HETATM   17  C   UNL     1     -42.488  54.766 -52.192  1.00  0.00     0.255 C 
HETATM   18  H   UNL     1     -43.477  55.937 -53.455  1.00  0.00     0.164 HD
HETATM   19  O   UNL     1     -43.099  55.156 -51.207  1.00  0.00    -0.268 OA
HETATM   20  C   UNL     1     -41.498  53.673 -52.122  1.00  0.00     0.053 A 
HETATM   21  C   UNL     1     -40.811  53.348 -53.298  1.00  0.00     0.026 A 
HETATM   22  C   UNL     1     -41.212  53.033 -50.913  1.00  0.00     0.019 A 
HETATM   23  N   UNL     1     -41.037  54.061 -54.502  1.00  0.00    -0.266 NA
HETATM   24  C   UNL     1     -39.764  52.428 -53.230  1.00  0.00     0.024 A 
HETATM   25  H   UNL     1     -40.424  54.876 -54.468  1.00  0.00     0.130 HD
HETATM   26  C   UNL     1     -39.468  51.784 -52.025  1.00  0.00     0.002 A 
HETATM   27  C   UNL     1     -40.196  52.079 -50.871  1.00  0.00     0.001 A 
ENDBRANCH   8  15
TORSDOF 1
ENDMDL
MODEL 9
REMARK VINA RESULT:      -8.8      4.281      6.714
REMARK  1 active torsions:
REMARK  status: ('A' for Active; 'I' for Inactive)
REMARK    1  A    between atoms: C_8  and  C_9 
ROOT
HETATM    1  C   UNL     1     -41.730  59.402 -57.742  1.00  0.00     0.049 C 
HETATM    2  C   UNL     1     -42.390  58.175 -58.313  1.00  0.00    -0.050 A 
HETATM    3  C   UNL     1     -42.683  57.041 -57.530  1.00  0.00    -0.002 A 
HETATM    4  C   UNL     1     -43.274  55.914 -58.132  1.00  0.00     0.051 A 
HETATM    5  N   UNL     1     -43.505  54.776 -57.343  1.00  0.00    -0.322 N 
HETATM    6  C   UNL     1     -43.196  54.681 -56.017  1.00  0.00     0.255 A 
HETATM    7  O   UNL     1     -43.381  53.632 -55.404  1.00  0.00    -0.268 OA
HETATM    8  C   UNL     1     -42.660  55.894 -55.337  1.00  0.00     0.048 A 
HETATM    9  C   UNL     1     -42.406  56.984 -56.088  1.00  0.00     0.030 A 
HETATM   10  C   UNL     1     -43.613  55.909 -59.496  1.00  0.00    -0.034 A 
HETATM   11  C   UNL     1     -44.276  54.733 -60.155  1.00  0.00     0.050 C 
HETATM   12  C   UNL     1     -43.331  57.049 -60.257  1.00  0.00     0.009 A 
HETATM   13  C   UNL     1     -42.723  58.163 -59.676  1.00  0.00     0.008 A 
HETATM   14  H   UNL     1     -43.893  53.940 -57.755  1.00  0.00     0.169 HD
ENDROOT
BRANCH   8  15
HETATM   15  C   UNL     1     -42.397  55.769 -53.853  1.00  0.00     0.202 C 
HETATM   16  N   UNL     1     -41.835  56.969 -53.306  1.00  0.00    -0.336 N 
HETATM   17  C   UNL     1     -41.481  57.003 -51.978  1.00  0.00     0.255 C 
HETATM   18  H   UNL     1     -42.284  57.837 -53.592  1.00  0.00     0.164 HD
HETATM   19  O   UNL     1     -41.461  58.044 -51.336  1.00  0.00    -0.268 OA
HETATM   20  C   UNL     1     -41.085  55.708 -51.389  1.00  0.00     0.053 A 
HETATM   21  C   UNL     1     -41.084  54.590 -52.232  1.00  0.00     0.026 A 
HETATM   22  C   UNL     1     -40.665  55.617 -50.060  1.00  0.00     0.019 A 
HETATM   23  N   UNL     1     -41.422  54.702 -53.603  1.00  0.00    -0.266 NA
HETATM   24  C   UNL     1     -40.570  53.386 -51.746  1.00  0.00     0.024 A 
HETATM   25  H   UNL     1     -40.562  54.963 -54.087  1.00  0.00     0.130 HD
HETATM   26  C   UNL     1     -40.145  53.285 -50.418  1.00  0.00     0.002 A 
HETATM   27  C   UNL     1     -40.200  54.395 -49.574  1.00  0.00     0.001 A 
ENDBRANCH   8  15
TORSDOF 1
ENDMDL
MODEL 10
REMARK VINA RESULT:      -8.7      5.215      6.478
REMARK  1 active torsions:
REMARK  status: ('A' for Active; 'I' for Inactive)
REMARK    1  A    between atoms: C_8  and  C_9 
ROOT
HETATM    1  C   UNL     1     -39.975  53.397 -54.718  1.00  0.00     0.049 C 
HETATM    2  C   UNL     1     -41.018  53.776 -53.700  1.00  0.00    -0.050 A 
HETATM    3  C   UNL     1     -42.069  54.668 -53.992  1.00  0.00    -0.002 A 
HETATM    4  C   UNL     1     -42.995  55.004 -52.986  1.00  0.00     0.051 A 
HETATM    5  N   UNL     1     -44.000  55.936 -53.285  1.00  0.00    -0.322 N 
HETATM    6  C   UNL     1     -44.150  56.550 -54.495  1.00  0.00     0.255 A 
HETATM    7  O   UNL     1     -45.024  57.396 -54.665  1.00  0.00    -0.268 OA
HETATM    8  C   UNL     1     -43.242  56.136 -55.602  1.00  0.00     0.048 A 
HETATM    9  C   UNL     1     -42.253  55.263 -55.323  1.00  0.00     0.030 A 
HETATM   10  C   UNL     1     -42.914  54.438 -51.702  1.00  0.00    -0.034 A 
HETATM   11  C   UNL     1     -43.909  54.753 -50.621  1.00  0.00     0.050 C 
HETATM   12  C   UNL     1     -41.875  53.541 -51.433  1.00  0.00     0.009 A 
HETATM   13  C   UNL     1     -40.937  53.219 -52.415  1.00  0.00     0.008 A 
HETATM   14  H   UNL     1     -44.656  56.226 -52.573  1.00  0.00     0.169 HD
ENDROOT
BRANCH   8  15
HETATM   15  C   UNL     1     -43.484  56.786 -56.946  1.00  0.00     0.202 C 
HETATM   16  N   UNL     1     -42.624  56.253 -57.962  1.00  0.00    -0.336 N 
HETATM   17  C   UNL     1     -42.675  56.778 -59.231  1.00  0.00     0.255 C 
HETATM   18  H   UNL     1     -42.543  55.239 -57.983  1.00  0.00     0.164 HD
HETATM   19  O   UNL     1     -42.375  56.122 -60.219  1.00  0.00    -0.268 OA
HETATM   20  C   UNL     1     -43.076  58.196 -59.321  1.00  0.00     0.053 A 
HETATM   21  C   UNL     1     -43.339  58.870 -58.122  1.00  0.00     0.026 A 
HETATM   22  C   UNL     1     -43.127  58.857 -60.551  1.00  0.00     0.019 A 
HETATM   23  N   UNL     1     -43.196  58.222 -56.869  1.00  0.00    -0.266 NA
HETATM   24  C   UNL     1     -43.569  60.246 -58.163  1.00  0.00     0.024 A 
HETATM   25  H   UNL     1     -42.213  58.318 -56.610  1.00  0.00     0.130 HD
HETATM   26  C   UNL     1     -43.620  60.917 -59.388  1.00  0.00     0.002 A 
HETATM   27  C   UNL     1     -43.409  60.222 -60.581  1.00  0.00     0.001 A 
ENDBRANCH   8  15
TORSDOF 1
ENDMDL
