MODEL 1
REMARK VINA RESULT:      -7.6      0.000      0.000
REMARK  9 active torsions:
REMARK  status: ('A' for Active; 'I' for Inactive)
REMARK    1  A    between atoms: C_2  and  N_3 
REMARK    2  A    between atoms: C_4  and  S_5 
REMARK    3  A    between atoms: S_5  and  C_6 
REMARK    4  A    between atoms: C_6  and  C_7 
REMARK       I    between atoms: C_7  and  N_8 
REMARK    5  A    between atoms: N_8  and  C_9 
REMARK    6  A    between atoms: C_9  and  C_10 
REMARK    7  A    between atoms: C_10  and  O_11 
REMARK    8  A    between atoms: O_11  and  C_12 
REMARK    9  A    between atoms: C_21  and  C_22 
ROOT
HETATM    1  S   UNL     1     -43.563  57.222 -52.914  1.00  0.00    -0.081 SA
ENDROOT
BRANCH   1   2
HETATM    2  C   UNL     1     -42.268  56.136 -53.281  1.00  0.00     0.192 A 
HETATM    3  N   UNL     1     -42.212  54.827 -52.878  1.00  0.00    -0.308 N 
HETATM    4  C   UNL     1     -41.035  54.327 -53.403  1.00  0.00     0.165 A 
HETATM    5  N   UNL     1     -40.437  55.296 -54.074  1.00  0.00    -0.128 NA
HETATM    6  N   UNL     1     -41.205  56.429 -53.990  1.00  0.00    -0.122 NA
BRANCH   3   7
HETATM    7  C   UNL     1     -43.217  54.090 -52.139  1.00  0.00     0.128 C 
HETATM    8  C   UNL     1     -43.241  54.435 -50.658  1.00  0.00     0.027 C 
ENDBRANCH   3   7
BRANCH   4   9
HETATM    9  C   UNL     1     -40.548  52.951 -53.286  1.00  0.00     0.018 A 
HETATM   10  C   UNL     1     -39.929  52.489 -52.104  1.00  0.00    -0.048 A 
HETATM   11  C   UNL     1     -39.770  53.372 -50.895  1.00  0.00     0.049 C 
HETATM   12  C   UNL     1     -39.484  51.157 -52.036  1.00  0.00     0.007 A 
HETATM   13  C   UNL     1     -39.643  50.294 -53.121  1.00  0.00     0.001 A 
HETATM   14  C   UNL     1     -40.265  50.745 -54.280  1.00  0.00     0.001 A 
HETATM   15  C   UNL     1     -40.721  52.061 -54.360  1.00  0.00     0.016 A 
ENDBRANCH   4   9
ENDBRANCH   1   2
BRANCH   1  16
HETATM   16  C   UNL     1     -44.588  57.005 -54.401  1.00  0.00     0.185 C 
BRANCH  16  17
HETATM   17  C   UNL     1     -44.296  58.125 -55.386  1.00  0.00     0.227 C 
HETATM   18  N   UNL     1     -43.034  58.089 -55.946  1.00  0.00    -0.358 N 
HETATM   19  H   UNL     1     -42.396  57.344 -55.696  1.00  0.00     0.162 HD
HETATM   20  O   UNL     1     -45.123  58.989 -55.666  1.00  0.00    -0.273 OA
BRANCH  18  21
HETATM   21  C   UNL     1     -42.618  59.041 -56.961  1.00  0.00     0.149 C 
BRANCH  21  22
HETATM   22  C   UNL     1     -42.598  58.458 -58.377  1.00  0.00     0.195 C 
BRANCH  22  23
HETATM   23  O   UNL     1     -43.948  58.409 -58.842  1.00  0.00    -0.350 OA
BRANCH  23  24
HETATM   24  C   UNL     1     -44.408  57.222 -59.339  1.00  0.00     0.068 A 
HETATM   25  C   UNL     1     -45.532  57.046 -60.148  1.00  0.00     0.037 A 
HETATM   26  C   UNL     1     -45.878  55.766 -60.598  1.00  0.00     0.003 A 
HETATM   27  C   UNL     1     -45.108  54.660 -60.239  1.00  0.00     0.000 A 
HETATM   28  C   UNL     1     -43.987  54.831 -59.430  1.00  0.00     0.003 A 
HETATM   29  C   UNL     1     -43.642  56.107 -58.985  1.00  0.00     0.037 A 
ENDBRANCH  23  24
ENDBRANCH  22  23
ENDBRANCH  21  22
ENDBRANCH  18  21
ENDBRANCH  16  17
ENDBRANCH   1  16
TORSDOF 9
ENDMDL
MODEL 2
REMARK VINA RESULT:      -7.5      1.552      2.092
REMARK  9 active torsions:
REMARK  status: ('A' for Active; 'I' for Inactive)
REMARK    1  A    between atoms: C_2  and  N_3 
REMARK    2  A    between atoms: C_4  and  S_5 
REMARK    3  A    between atoms: S_5  and  C_6 
REMARK    4  A    between atoms: C_6  and  C_7 
REMARK       I    between atoms: C_7  and  N_8 
REMARK    5  A    between atoms: N_8  and  C_9 
REMARK    6  A    between atoms: C_9  and  C_10 
REMARK    7  A    between atoms: C_10  and  O_11 
REMARK    8  A    between atoms: O_11  and  C_12 
REMARK    9  A    between atoms: C_21  and  C_22 
ROOT
HETATM    1  S   UNL     1     -43.724  57.068 -52.976  1.00  0.00    -0.081 SA
ENDROOT
BRANCH   1   2
HETATM    2  C   UNL     1     -42.400  56.014 -53.337  1.00  0.00     0.192 A 
HETATM    3  N   UNL     1     -42.299  54.717 -52.907  1.00  0.00    -0.308 N 
HETATM    4  C   UNL     1     -41.114  54.242 -53.437  1.00  0.00     0.165 A 
HETATM    5  N   UNL     1     -40.554  55.214 -54.137  1.00  0.00    -0.128 NA
HETATM    6  N   UNL     1     -41.356  56.324 -54.066  1.00  0.00    -0.122 NA
BRANCH   3   7
HETATM    7  C   UNL     1     -43.271  53.965 -52.139  1.00  0.00     0.128 C 
HETATM    8  C   UNL     1     -43.304  54.360 -50.671  1.00  0.00     0.027 C 
ENDBRANCH   3   7
BRANCH   4   9
HETATM    9  C   UNL     1     -40.583  52.885 -53.298  1.00  0.00     0.018 A 
HETATM   10  C   UNL     1     -39.929  52.469 -52.118  1.00  0.00    -0.048 A 
HETATM   11  C   UNL     1     -39.775  53.385 -50.932  1.00  0.00     0.049 C 
HETATM   12  C   UNL     1     -39.442  51.153 -52.028  1.00  0.00     0.007 A 
HETATM   13  C   UNL     1     -39.593  50.261 -53.089  1.00  0.00     0.001 A 
HETATM   14  C   UNL     1     -40.250  50.665 -54.247  1.00  0.00     0.001 A 
HETATM   15  C   UNL     1     -40.747  51.965 -54.348  1.00  0.00     0.016 A 
ENDBRANCH   4   9
ENDBRANCH   1   2
BRANCH   1  16
HETATM   16  C   UNL     1     -42.868  58.317 -51.969  1.00  0.00     0.185 C 
BRANCH  16  17
HETATM   17  C   UNL     1     -42.578  59.542 -52.820  1.00  0.00     0.227 C 
HETATM   18  N   UNL     1     -42.298  59.274 -54.145  1.00  0.00    -0.358 N 
HETATM   19  H   UNL     1     -42.311  58.317 -54.476  1.00  0.00     0.162 HD
HETATM   20  O   UNL     1     -42.600  60.683 -52.363  1.00  0.00    -0.273 OA
BRANCH  18  21
HETATM   21  C   UNL     1     -42.070  60.334 -55.111  1.00  0.00     0.149 C 
BRANCH  21  22
HETATM   22  C   UNL     1     -42.241  59.885 -56.565  1.00  0.00     0.195 C 
BRANCH  22  23
HETATM   23  O   UNL     1     -43.008  58.679 -56.557  1.00  0.00    -0.350 OA
BRANCH  23  24
HETATM   24  C   UNL     1     -42.848  57.815 -57.604  1.00  0.00     0.068 A 
HETATM   25  C   UNL     1     -43.277  56.488 -57.651  1.00  0.00     0.037 A 
HETATM   26  C   UNL     1     -43.058  55.721 -58.802  1.00  0.00     0.003 A 
HETATM   27  C   UNL     1     -42.407  56.275 -59.904  1.00  0.00     0.000 A 
HETATM   28  C   UNL     1     -41.975  57.598 -59.860  1.00  0.00     0.003 A 
HETATM   29  C   UNL     1     -42.197  58.362 -58.715  1.00  0.00     0.037 A 
ENDBRANCH  23  24
ENDBRANCH  22  23
ENDBRANCH  21  22
ENDBRANCH  18  21
ENDBRANCH  16  17
ENDBRANCH   1  16
TORSDOF 9
ENDMDL
MODEL 3
REMARK VINA RESULT:      -7.4      2.728      7.518
REMARK  9 active torsions:
REMARK  status: ('A' for Active; 'I' for Inactive)
REMARK    1  A    between atoms: C_2  and  N_3 
REMARK    2  A    between atoms: C_4  and  S_5 
REMARK    3  A    between atoms: S_5  and  C_6 
REMARK    4  A    between atoms: C_6  and  C_7 
REMARK       I    between atoms: C_7  and  N_8 
REMARK    5  A    between atoms: N_8  and  C_9 
REMARK    6  A    between atoms: C_9  and  C_10 
REMARK    7  A    between atoms: C_10  and  O_11 
REMARK    8  A    between atoms: O_11  and  C_12 
REMARK    9  A    between atoms: C_21  and  C_22 
ROOT
HETATM    1  S   UNL     1     -43.904  57.012 -52.490  1.00  0.00    -0.081 SA
ENDROOT
BRANCH   1   2
HETATM    2  C   UNL     1     -44.066  57.398 -54.168  1.00  0.00     0.192 A 
HETATM    3  N   UNL     1     -43.193  57.000 -55.146  1.00  0.00    -0.308 N 
HETATM    4  C   UNL     1     -43.706  57.500 -56.328  1.00  0.00     0.165 A 
HETATM    5  N   UNL     1     -44.819  58.157 -56.051  1.00  0.00    -0.128 NA
HETATM    6  N   UNL     1     -45.038  58.100 -54.698  1.00  0.00    -0.122 NA
BRANCH   3   7
HETATM    7  C   UNL     1     -42.027  56.153 -54.994  1.00  0.00     0.128 C 
HETATM    8  C   UNL     1     -42.340  54.673 -55.150  1.00  0.00     0.027 C 
ENDBRANCH   3   7
BRANCH   4   9
HETATM    9  C   UNL     1     -43.152  57.301 -57.669  1.00  0.00     0.018 A 
HETATM   10  C   UNL     1     -42.332  58.276 -58.276  1.00  0.00    -0.048 A 
HETATM   11  C   UNL     1     -41.958  59.551 -57.568  1.00  0.00     0.049 C 
HETATM   12  C   UNL     1     -41.816  58.038 -59.563  1.00  0.00     0.007 A 
HETATM   13  C   UNL     1     -42.109  56.855 -60.242  1.00  0.00     0.001 A 
HETATM   14  C   UNL     1     -42.905  55.887 -59.638  1.00  0.00     0.001 A 
HETATM   15  C   UNL     1     -43.416  56.105 -58.358  1.00  0.00     0.016 A 
ENDBRANCH   4   9
ENDBRANCH   1   2
BRANCH   1  16
HETATM   16  C   UNL     1     -42.532  58.117 -52.042  1.00  0.00     0.185 C 
BRANCH  16  17
HETATM   17  C   UNL     1     -41.522  57.356 -51.199  1.00  0.00     0.227 C 
HETATM   18  N   UNL     1     -41.703  55.988 -51.174  1.00  0.00    -0.358 N 
HETATM   19  H   UNL     1     -42.458  55.572 -51.705  1.00  0.00     0.162 HD
HETATM   20  O   UNL     1     -40.611  57.917 -50.595  1.00  0.00    -0.273 OA
BRANCH  18  21
HETATM   21  C   UNL     1     -40.784  55.105 -50.477  1.00  0.00     0.149 C 
BRANCH  21  22
HETATM   22  C   UNL     1     -41.079  53.618 -50.694  1.00  0.00     0.195 C 
BRANCH  22  23
HETATM   23  O   UNL     1     -39.851  52.982 -51.058  1.00  0.00    -0.350 OA
BRANCH  23  24
HETATM   24  C   UNL     1     -39.885  52.058 -52.063  1.00  0.00     0.068 A 
HETATM   25  C   UNL     1     -40.196  52.305 -53.401  1.00  0.00     0.037 A 
HETATM   26  C   UNL     1     -40.177  51.258 -54.331  1.00  0.00     0.003 A 
HETATM   27  C   UNL     1     -39.853  49.963 -53.926  1.00  0.00     0.000 A 
HETATM   28  C   UNL     1     -39.544  49.711 -52.592  1.00  0.00     0.003 A 
HETATM   29  C   UNL     1     -39.561  50.756 -51.668  1.00  0.00     0.037 A 
ENDBRANCH  23  24
ENDBRANCH  22  23
ENDBRANCH  21  22
ENDBRANCH  18  21
ENDBRANCH  16  17
ENDBRANCH   1  16
TORSDOF 9
ENDMDL
MODEL 4
REMARK VINA RESULT:      -7.2      2.668      7.660
REMARK  9 active torsions:
REMARK  status: ('A' for Active; 'I' for Inactive)
REMARK    1  A    between atoms: C_2  and  N_3 
REMARK    2  A    between atoms: C_4  and  S_5 
REMARK    3  A    between atoms: S_5  and  C_6 
REMARK    4  A    between atoms: C_6  and  C_7 
REMARK       I    between atoms: C_7  and  N_8 
REMARK    5  A    between atoms: N_8  and  C_9 
REMARK    6  A    between atoms: C_9  and  C_10 
REMARK    7  A    between atoms: C_10  and  O_11 
REMARK    8  A    between atoms: O_11  and  C_12 
REMARK    9  A    between atoms: C_21  and  C_22 
ROOT
HETATM    1  S   UNL     1     -40.961  57.977 -52.805  1.00  0.00    -0.081 SA
ENDROOT
BRANCH   1   2
HETATM    2  C   UNL     1     -41.553  58.512 -54.340  1.00  0.00     0.192 A 
HETATM    3  N   UNL     1     -41.998  57.681 -55.334  1.00  0.00    -0.308 N 
HETATM    4  C   UNL     1     -42.397  58.513 -56.363  1.00  0.00     0.165 A 
HETATM    5  N   UNL     1     -42.192  59.764 -55.986  1.00  0.00    -0.128 NA
HETATM    6  N   UNL     1     -41.656  59.761 -54.724  1.00  0.00    -0.122 NA
BRANCH   3   7
HETATM    7  C   UNL     1     -42.117  56.237 -55.288  1.00  0.00     0.128 C 
HETATM    8  C   UNL     1     -43.465  55.766 -54.765  1.00  0.00     0.027 C 
ENDBRANCH   3   7
BRANCH   4   9
HETATM    9  C   UNL     1     -42.992  58.098 -57.635  1.00  0.00     0.018 A 
HETATM   10  C   UNL     1     -44.390  57.963 -57.781  1.00  0.00    -0.048 A 
HETATM   11  C   UNL     1     -45.339  58.271 -56.654  1.00  0.00     0.049 C 
HETATM   12  C   UNL     1     -44.916  57.569 -59.024  1.00  0.00     0.007 A 
HETATM   13  C   UNL     1     -44.075  57.307 -60.106  1.00  0.00     0.001 A 
HETATM   14  C   UNL     1     -42.699  57.453 -59.966  1.00  0.00     0.001 A 
HETATM   15  C   UNL     1     -42.162  57.853 -58.742  1.00  0.00     0.016 A 
ENDBRANCH   4   9
ENDBRANCH   1   2
BRANCH   1  16
HETATM   16  C   UNL     1     -42.524  57.871 -51.883  1.00  0.00     0.185 C 
BRANCH  16  17
HETATM   17  C   UNL     1     -42.513  56.628 -51.008  1.00  0.00     0.227 C 
HETATM   18  N   UNL     1     -41.337  56.417 -50.316  1.00  0.00    -0.358 N 
HETATM   19  H   UNL     1     -40.576  57.078 -50.409  1.00  0.00     0.162 HD
HETATM   20  O   UNL     1     -43.481  55.876 -50.918  1.00  0.00    -0.273 OA
BRANCH  18  21
HETATM   21  C   UNL     1     -41.184  55.318 -49.380  1.00  0.00     0.149 C 
BRANCH  21  22
HETATM   22  C   UNL     1     -40.032  54.371 -49.729  1.00  0.00     0.195 C 
BRANCH  22  23
HETATM   23  O   UNL     1     -40.604  53.123 -50.128  1.00  0.00    -0.350 OA
BRANCH  23  24
HETATM   24  C   UNL     1     -40.384  52.703 -51.409  1.00  0.00     0.068 A 
HETATM   25  C   UNL     1     -39.610  51.608 -51.797  1.00  0.00     0.037 A 
HETATM   26  C   UNL     1     -39.485  51.283 -53.153  1.00  0.00     0.003 A 
HETATM   27  C   UNL     1     -40.127  52.051 -54.124  1.00  0.00     0.000 A 
HETATM   28  C   UNL     1     -40.899  53.145 -53.742  1.00  0.00     0.003 A 
HETATM   29  C   UNL     1     -41.025  53.466 -52.391  1.00  0.00     0.037 A 
ENDBRANCH  23  24
ENDBRANCH  22  23
ENDBRANCH  21  22
ENDBRANCH  18  21
ENDBRANCH  16  17
ENDBRANCH   1  16
TORSDOF 9
ENDMDL
MODEL 5
REMARK VINA RESULT:      -7.0      1.391      2.022
REMARK  9 active torsions:
REMARK  status: ('A' for Active; 'I' for Inactive)
REMARK    1  A    between atoms: C_2  and  N_3 
REMARK    2  A    between atoms: C_4  and  S_5 
REMARK    3  A    between atoms: S_5  and  C_6 
REMARK    4  A    between atoms: C_6  and  C_7 
REMARK       I    between atoms: C_7  and  N_8 
REMARK    5  A    between atoms: N_8  and  C_9 
REMARK    6  A    between atoms: C_9  and  C_10 
REMARK    7  A    between atoms: C_10  and  O_11 
REMARK    8  A    between atoms: O_11  and  C_12 
REMARK    9  A    between atoms: C_21  and  C_22 
ROOT
HETATM    1  S   UNL     1     -42.927  58.339 -52.555  1.00  0.00    -0.081 SA
ENDROOT
BRANCH   1   2
HETATM    2  C   UNL     1     -42.665  56.661 -52.231  1.00  0.00     0.192 A 
HETATM    3  N   UNL     1     -41.810  55.856 -52.938  1.00  0.00    -0.308 N 
HETATM    4  C   UNL     1     -41.888  54.614 -52.337  1.00  0.00     0.165 A 
HETATM    5  N   UNL     1     -42.744  54.692 -51.333  1.00  0.00    -0.128 NA
HETATM    6  N   UNL     1     -43.236  55.971 -51.274  1.00  0.00    -0.122 NA
BRANCH   3   7
HETATM    7  C   UNL     1     -40.936  56.242 -54.027  1.00  0.00     0.128 C 
HETATM    8  C   UNL     1     -41.609  56.165 -55.389  1.00  0.00     0.027 C 
ENDBRANCH   3   7
BRANCH   4   9
HETATM    9  C   UNL     1     -41.121  53.422 -52.705  1.00  0.00     0.018 A 
HETATM   10  C   UNL     1     -40.119  52.903 -51.856  1.00  0.00    -0.048 A 
HETATM   11  C   UNL     1     -39.812  53.523 -50.519  1.00  0.00     0.049 C 
HETATM   12  C   UNL     1     -39.413  51.751 -52.249  1.00  0.00     0.007 A 
HETATM   13  C   UNL     1     -39.689  51.124 -53.463  1.00  0.00     0.001 A 
HETATM   14  C   UNL     1     -40.686  51.627 -54.294  1.00  0.00     0.001 A 
HETATM   15  C   UNL     1     -41.401  52.763 -53.913  1.00  0.00     0.016 A 
ENDBRANCH   4   9
ENDBRANCH   1   2
BRANCH   1  16
HETATM   16  C   UNL     1     -44.733  58.343 -52.762  1.00  0.00     0.185 C 
BRANCH  16  17
HETATM   17  C   UNL     1     -45.079  58.014 -54.205  1.00  0.00     0.227 C 
HETATM   18  N   UNL     1     -45.418  59.103 -54.982  1.00  0.00    -0.358 N 
HETATM   19  H   UNL     1     -45.408  60.031 -54.577  1.00  0.00     0.162 HD
HETATM   20  O   UNL     1     -45.050  56.867 -54.646  1.00  0.00    -0.273 OA
BRANCH  18  21
HETATM   21  C   UNL     1     -45.704  58.975 -56.401  1.00  0.00     0.149 C 
BRANCH  21  22
HETATM   22  C   UNL     1     -44.454  58.784 -57.263  1.00  0.00     0.195 C 
BRANCH  22  23
HETATM   23  O   UNL     1     -44.886  58.579 -58.611  1.00  0.00    -0.350 OA
BRANCH  23  24
HETATM   24  C   UNL     1     -44.894  57.301 -59.091  1.00  0.00     0.068 A 
HETATM   25  C   UNL     1     -45.878  56.728 -59.897  1.00  0.00     0.037 A 
HETATM   26  C   UNL     1     -45.747  55.402 -60.330  1.00  0.00     0.003 A 
HETATM   27  C   UNL     1     -44.636  54.646 -59.956  1.00  0.00     0.000 A 
HETATM   28  C   UNL     1     -43.653  55.213 -59.149  1.00  0.00     0.003 A 
HETATM   29  C   UNL     1     -43.783  56.534 -58.722  1.00  0.00     0.037 A 
ENDBRANCH  23  24
ENDBRANCH  22  23
ENDBRANCH  21  22
ENDBRANCH  18  21
ENDBRANCH  16  17
ENDBRANCH   1  16
TORSDOF 9
ENDMDL
MODEL 6
REMARK VINA RESULT:      -7.0      1.841      2.709
REMARK  9 active torsions:
REMARK  status: ('A' for Active; 'I' for Inactive)
REMARK    1  A    between atoms: C_2  and  N_3 
REMARK    2  A    between atoms: C_4  and  S_5 
REMARK    3  A    between atoms: S_5  and  C_6 
REMARK    4  A    between atoms: C_6  and  C_7 
REMARK       I    between atoms: C_7  and  N_8 
REMARK    5  A    between atoms: N_8  and  C_9 
REMARK    6  A    between atoms: C_9  and  C_10 
REMARK    7  A    between atoms: C_10  and  O_11 
REMARK    8  A    between atoms: O_11  and  C_12 
REMARK    9  A    between atoms: C_21  and  C_22 
ROOT
HETATM    1  S   UNL     1     -43.895  59.830 -53.016  1.00  0.00    -0.081 SA
ENDROOT
BRANCH   1   2
HETATM    2  C   UNL     1     -43.646  58.249 -53.672  1.00  0.00     0.192 A 
HETATM    3  N   UNL     1     -42.553  57.465 -53.417  1.00  0.00    -0.308 N 
HETATM    4  C   UNL     1     -42.769  56.290 -54.112  1.00  0.00     0.165 A 
HETATM    5  N   UNL     1     -43.927  56.388 -54.741  1.00  0.00    -0.128 NA
HETATM    6  N   UNL     1     -44.471  57.617 -54.471  1.00  0.00    -0.122 NA
BRANCH   3   7
HETATM    7  C   UNL     1     -41.445  57.759 -52.531  1.00  0.00     0.128 C 
HETATM    8  C   UNL     1     -41.721  57.381 -51.084  1.00  0.00     0.027 C 
ENDBRANCH   3   7
BRANCH   4   9
HETATM    9  C   UNL     1     -41.898  55.112 -54.120  1.00  0.00     0.018 A 
HETATM   10  C   UNL     1     -42.054  54.077 -53.172  1.00  0.00    -0.048 A 
HETATM   11  C   UNL     1     -43.141  54.113 -52.131  1.00  0.00     0.049 C 
HETATM   12  C   UNL     1     -41.199  52.963 -53.223  1.00  0.00     0.007 A 
HETATM   13  C   UNL     1     -40.200  52.872 -54.193  1.00  0.00     0.001 A 
HETATM   14  C   UNL     1     -40.055  53.885 -55.136  1.00  0.00     0.001 A 
HETATM   15  C   UNL     1     -40.902  54.993 -55.104  1.00  0.00     0.016 A 
ENDBRANCH   4   9
ENDBRANCH   1   2
BRANCH   1  16
HETATM   16  C   UNL     1     -42.603  60.749 -53.905  1.00  0.00     0.185 C 
BRANCH  16  17
HETATM   17  C   UNL     1     -42.653  60.394 -55.382  1.00  0.00     0.227 C 
HETATM   18  N   UNL     1     -43.887  60.564 -55.976  1.00  0.00    -0.358 N 
HETATM   19  H   UNL     1     -44.663  60.915 -55.429  1.00  0.00     0.162 HD
HETATM   20  O   UNL     1     -41.668  59.995 -55.999  1.00  0.00    -0.273 OA
BRANCH  18  21
HETATM   21  C   UNL     1     -44.092  60.341 -57.397  1.00  0.00     0.149 C 
BRANCH  21  22
HETATM   22  C   UNL     1     -44.969  59.124 -57.706  1.00  0.00     0.195 C 
BRANCH  22  23
HETATM   23  O   UNL     1     -44.102  58.001 -57.879  1.00  0.00    -0.350 OA
BRANCH  23  24
HETATM   24  C   UNL     1     -44.526  56.988 -58.691  1.00  0.00     0.068 A 
HETATM   25  C   UNL     1     -45.688  56.981 -59.465  1.00  0.00     0.037 A 
HETATM   26  C   UNL     1     -45.991  55.874 -60.267  1.00  0.00     0.003 A 
HETATM   27  C   UNL     1     -45.138  54.770 -60.295  1.00  0.00     0.000 A 
HETATM   28  C   UNL     1     -43.980  54.771 -59.523  1.00  0.00     0.003 A 
HETATM   29  C   UNL     1     -43.678  55.876 -58.727  1.00  0.00     0.037 A 
ENDBRANCH  23  24
ENDBRANCH  22  23
ENDBRANCH  21  22
ENDBRANCH  18  21
ENDBRANCH  16  17
ENDBRANCH   1  16
TORSDOF 9
ENDMDL
MODEL 7
REMARK VINA RESULT:      -6.7      2.997      7.260
REMARK  9 active torsions:
REMARK  status: ('A' for Active; 'I' for Inactive)
REMARK    1  A    between atoms: C_2  and  N_3 
REMARK    2  A    between atoms: C_4  and  S_5 
REMARK    3  A    between atoms: S_5  and  C_6 
REMARK    4  A    between atoms: C_6  and  C_7 
REMARK       I    between atoms: C_7  and  N_8 
REMARK    5  A    between atoms: N_8  and  C_9 
REMARK    6  A    between atoms: C_9  and  C_10 
REMARK    7  A    between atoms: C_10  and  O_11 
REMARK    8  A    between atoms: O_11  and  C_12 
REMARK    9  A    between atoms: C_21  and  C_22 
ROOT
HETATM    1  S   UNL     1     -43.145  59.723 -51.798  1.00  0.00    -0.081 SA
ENDROOT
BRANCH   1   2
HETATM    2  C   UNL     1     -42.599  59.474 -53.420  1.00  0.00     0.192 A 
HETATM    3  N   UNL     1     -43.241  58.696 -54.347  1.00  0.00    -0.308 N 
HETATM    4  C   UNL     1     -42.487  58.794 -55.501  1.00  0.00     0.165 A 
HETATM    5  N   UNL     1     -41.458  59.588 -55.257  1.00  0.00    -0.128 NA
HETATM    6  N   UNL     1     -41.525  60.006 -53.953  1.00  0.00    -0.122 NA
BRANCH   3   7
HETATM    7  C   UNL     1     -44.497  57.991 -54.186  1.00  0.00     0.128 C 
HETATM    8  C   UNL     1     -45.586  58.492 -55.121  1.00  0.00     0.027 C 
ENDBRANCH   3   7
BRANCH   4   9
HETATM    9  C   UNL     1     -42.791  58.174 -56.792  1.00  0.00     0.018 A 
HETATM   10  C   UNL     1     -42.654  56.782 -56.988  1.00  0.00    -0.048 A 
HETATM   11  C   UNL     1     -42.225  55.863 -55.876  1.00  0.00     0.049 C 
HETATM   12  C   UNL     1     -42.965  56.230 -58.244  1.00  0.00     0.007 A 
HETATM   13  C   UNL     1     -43.399  57.040 -59.292  1.00  0.00     0.001 A 
HETATM   14  C   UNL     1     -43.548  58.409 -59.096  1.00  0.00     0.001 A 
HETATM   15  C   UNL     1     -43.253  58.971 -57.853  1.00  0.00     0.016 A 
ENDBRANCH   4   9
ENDBRANCH   1   2
BRANCH   1  16
HETATM   16  C   UNL     1     -41.556  60.049 -50.976  1.00  0.00     0.185 C 
BRANCH  16  17
HETATM   17  C   UNL     1     -40.867  58.731 -50.664  1.00  0.00     0.227 C 
HETATM   18  N   UNL     1     -41.721  57.687 -50.368  1.00  0.00    -0.358 N 
HETATM   19  H   UNL     1     -42.722  57.838 -50.386  1.00  0.00     0.162 HD
HETATM   20  O   UNL     1     -39.645  58.605 -50.682  1.00  0.00    -0.273 OA
BRANCH  18  21
HETATM   21  C   UNL     1     -41.231  56.343 -50.118  1.00  0.00     0.149 C 
BRANCH  21  22
HETATM   22  C   UNL     1     -41.272  55.436 -51.352  1.00  0.00     0.195 C 
BRANCH  22  23
HETATM   23  O   UNL     1     -40.517  54.261 -51.049  1.00  0.00    -0.350 OA
BRANCH  23  24
HETATM   24  C   UNL     1     -40.344  53.340 -52.043  1.00  0.00     0.068 A 
HETATM   25  C   UNL     1     -40.673  53.508 -53.389  1.00  0.00     0.037 A 
HETATM   26  C   UNL     1     -40.425  52.478 -54.305  1.00  0.00     0.003 A 
HETATM   27  C   UNL     1     -39.853  51.279 -53.879  1.00  0.00     0.000 A 
HETATM   28  C   UNL     1     -39.526  51.106 -52.537  1.00  0.00     0.003 A 
HETATM   29  C   UNL     1     -39.771  52.134 -51.627  1.00  0.00     0.037 A 
ENDBRANCH  23  24
ENDBRANCH  22  23
ENDBRANCH  21  22
ENDBRANCH  18  21
ENDBRANCH  16  17
ENDBRANCH   1  16
TORSDOF 9
ENDMDL
MODEL 8
REMARK VINA RESULT:      -6.7      2.515      7.790
REMARK  9 active torsions:
REMARK  status: ('A' for Active; 'I' for Inactive)
REMARK    1  A    between atoms: C_2  and  N_3 
REMARK    2  A    between atoms: C_4  and  S_5 
REMARK    3  A    between atoms: S_5  and  C_6 
REMARK    4  A    between atoms: C_6  and  C_7 
REMARK       I    between atoms: C_7  and  N_8 
REMARK    5  A    between atoms: N_8  and  C_9 
REMARK    6  A    between atoms: C_9  and  C_10 
REMARK    7  A    between atoms: C_10  and  O_11 
REMARK    8  A    between atoms: O_11  and  C_12 
REMARK    9  A    between atoms: C_21  and  C_22 
ROOT
HETATM    1  S   UNL     1     -41.987  60.092 -55.029  1.00  0.00    -0.081 SA
ENDROOT
BRANCH   1   2
HETATM    2  C   UNL     1     -43.013  58.878 -55.710  1.00  0.00     0.192 A 
HETATM    3  N   UNL     1     -43.083  58.577 -57.044  1.00  0.00    -0.308 N 
HETATM    4  C   UNL     1     -43.997  57.545 -57.144  1.00  0.00     0.165 A 
HETATM    5  N   UNL     1     -44.437  57.262 -55.931  1.00  0.00    -0.128 NA
HETATM    6  N   UNL     1     -43.827  58.102 -55.035  1.00  0.00    -0.122 NA
BRANCH   3   7
HETATM    7  C   UNL     1     -42.298  59.151 -58.119  1.00  0.00     0.128 C 
HETATM    8  C   UNL     1     -43.003  60.298 -58.826  1.00  0.00     0.027 C 
ENDBRANCH   3   7
BRANCH   4   9
HETATM    9  C   UNL     1     -44.382  56.843 -58.370  1.00  0.00     0.018 A 
HETATM   10  C   UNL     1     -45.501  57.250 -59.129  1.00  0.00    -0.048 A 
HETATM   11  C   UNL     1     -46.332  58.444 -58.739  1.00  0.00     0.049 C 
HETATM   12  C   UNL     1     -45.829  56.549 -60.303  1.00  0.00     0.007 A 
HETATM   13  C   UNL     1     -45.066  55.459 -60.721  1.00  0.00     0.001 A 
HETATM   14  C   UNL     1     -43.955  55.065 -59.981  1.00  0.00     0.001 A 
HETATM   15  C   UNL     1     -43.612  55.757 -58.819  1.00  0.00     0.016 A 
ENDBRANCH   4   9
ENDBRANCH   1   2
BRANCH   1  16
HETATM   16  C   UNL     1     -42.554  60.055 -53.302  1.00  0.00     0.185 C 
BRANCH  16  17
HETATM   17  C   UNL     1     -41.666  59.121 -52.496  1.00  0.00     0.227 C 
HETATM   18  N   UNL     1     -42.216  57.882 -52.235  1.00  0.00    -0.358 N 
HETATM   19  H   UNL     1     -43.138  57.658 -52.587  1.00  0.00     0.162 HD
HETATM   20  O   UNL     1     -40.543  59.444 -52.116  1.00  0.00    -0.273 OA
BRANCH  18  21
HETATM   21  C   UNL     1     -41.473  56.844 -51.540  1.00  0.00     0.149 C 
BRANCH  21  22
HETATM   22  C   UNL     1     -41.092  55.661 -52.434  1.00  0.00     0.195 C 
BRANCH  22  23
HETATM   23  O   UNL     1     -40.923  54.519 -51.591  1.00  0.00    -0.350 OA
BRANCH  23  24
HETATM   24  C   UNL     1     -40.485  53.361 -52.166  1.00  0.00     0.068 A 
HETATM   25  C   UNL     1     -39.816  52.320 -51.521  1.00  0.00     0.037 A 
HETATM   26  C   UNL     1     -39.438  51.178 -52.237  1.00  0.00     0.003 A 
HETATM   27  C   UNL     1     -39.721  51.075 -53.599  1.00  0.00     0.000 A 
HETATM   28  C   UNL     1     -40.385  52.112 -54.248  1.00  0.00     0.003 A 
HETATM   29  C   UNL     1     -40.765  53.247 -53.532  1.00  0.00     0.037 A 
ENDBRANCH  23  24
ENDBRANCH  22  23
ENDBRANCH  21  22
ENDBRANCH  18  21
ENDBRANCH  16  17
ENDBRANCH   1  16
TORSDOF 9
ENDMDL
MODEL 9
REMARK VINA RESULT:      -6.7     15.205     17.599
REMARK  9 active torsions:
REMARK  status: ('A' for Active; 'I' for Inactive)
REMARK    1  A    between atoms: C_2  and  N_3 
REMARK    2  A    between atoms: C_4  and  S_5 
REMARK    3  A    between atoms: S_5  and  C_6 
REMARK    4  A    between atoms: C_6  and  C_7 
REMARK       I    between atoms: C_7  and  N_8 
REMARK    5  A    between atoms: N_8  and  C_9 
REMARK    6  A    between atoms: C_9  and  C_10 
REMARK    7  A    between atoms: C_10  and  O_11 
REMARK    8  A    between atoms: O_11  and  C_12 
REMARK    9  A    between atoms: C_21  and  C_22 
ROOT
HETATM    1  S   UNL     1     -35.404  39.884 -50.782  1.00  0.00    -0.081 SA
ENDROOT
BRANCH   1   2
HETATM    2  C   UNL     1     -34.704  39.277 -52.243  1.00  0.00     0.192 A 
HETATM    3  N   UNL     1     -33.476  39.642 -52.727  1.00  0.00    -0.308 N 
HETATM    4  C   UNL     1     -33.301  38.909 -53.886  1.00  0.00     0.165 A 
HETATM    5  N   UNL     1     -34.374  38.159 -54.067  1.00  0.00    -0.128 NA
HETATM    6  N   UNL     1     -35.254  38.396 -53.042  1.00  0.00    -0.122 NA
BRANCH   3   7
HETATM    7  C   UNL     1     -32.516  40.535 -52.110  1.00  0.00     0.128 C 
HETATM    8  C   UNL     1     -31.702  39.870 -51.011  1.00  0.00     0.027 C 
ENDBRANCH   3   7
BRANCH   4   9
HETATM    9  C   UNL     1     -32.117  38.915 -54.747  1.00  0.00     0.018 A 
HETATM   10  C   UNL     1     -31.068  37.988 -54.559  1.00  0.00    -0.048 A 
HETATM   11  C   UNL     1     -31.128  36.928 -53.491  1.00  0.00     0.049 C 
HETATM   12  C   UNL     1     -29.953  38.028 -55.415  1.00  0.00     0.007 A 
HETATM   13  C   UNL     1     -29.872  38.971 -56.439  1.00  0.00     0.001 A 
HETATM   14  C   UNL     1     -30.911  39.875 -56.634  1.00  0.00     0.001 A 
HETATM   15  C   UNL     1     -32.028  39.842 -55.798  1.00  0.00     0.016 A 
ENDBRANCH   4   9
ENDBRANCH   1   2
BRANCH   1  16
HETATM   16  C   UNL     1     -36.857  40.741 -51.461  1.00  0.00     0.185 C 
BRANCH  16  17
HETATM   17  C   UNL     1     -36.434  41.598 -52.643  1.00  0.00     0.227 C 
HETATM   18  N   UNL     1     -36.913  41.174 -53.866  1.00  0.00    -0.358 N 
HETATM   19  H   UNL     1     -37.508  40.356 -53.915  1.00  0.00     0.162 HD
HETATM   20  O   UNL     1     -35.728  42.596 -52.515  1.00  0.00    -0.273 OA
BRANCH  18  21
HETATM   21  C   UNL     1     -36.664  41.920 -55.088  1.00  0.00     0.149 C 
BRANCH  21  22
HETATM   22  C   UNL     1     -35.337  41.563 -55.764  1.00  0.00     0.195 C 
BRANCH  22  23
HETATM   23  O   UNL     1     -35.328  42.184 -57.051  1.00  0.00    -0.350 OA
BRANCH  23  24
HETATM   24  C   UNL     1     -36.036  41.583 -58.053  1.00  0.00     0.068 A 
HETATM   25  C   UNL     1     -36.939  42.208 -58.915  1.00  0.00     0.037 A 
HETATM   26  C   UNL     1     -37.585  41.466 -59.912  1.00  0.00     0.003 A 
HETATM   27  C   UNL     1     -37.336  40.100 -60.047  1.00  0.00     0.000 A 
HETATM   28  C   UNL     1     -36.439  39.473 -59.187  1.00  0.00     0.003 A 
HETATM   29  C   UNL     1     -35.793  40.213 -58.197  1.00  0.00     0.037 A 
ENDBRANCH  23  24
ENDBRANCH  22  23
ENDBRANCH  21  22
ENDBRANCH  18  21
ENDBRANCH  16  17
ENDBRANCH   1  16
TORSDOF 9
ENDMDL
MODEL 10
REMARK VINA RESULT:      -6.6      3.077      7.332
REMARK  9 active torsions:
REMARK  status: ('A' for Active; 'I' for Inactive)
REMARK    1  A    between atoms: C_2  and  N_3 
REMARK    2  A    between atoms: C_4  and  S_5 
REMARK    3  A    between atoms: S_5  and  C_6 
REMARK    4  A    between atoms: C_6  and  C_7 
REMARK       I    between atoms: C_7  and  N_8 
REMARK    5  A    between atoms: N_8  and  C_9 
REMARK    6  A    between atoms: C_9  and  C_10 
REMARK    7  A    between atoms: C_10  and  O_11 
REMARK    8  A    between atoms: O_11  and  C_12 
REMARK    9  A    between atoms: C_21  and  C_22 
ROOT
HETATM    1  S   UNL     1     -43.995  58.272 -57.549  1.00  0.00    -0.081 SA
ENDROOT
BRANCH   1   2
HETATM    2  C   UNL     1     -43.077  59.022 -56.289  1.00  0.00     0.192 A 
HETATM    3  N   UNL     1     -43.443  59.046 -54.969  1.00  0.00    -0.308 N 
HETATM    4  C   UNL     1     -42.426  59.716 -54.314  1.00  0.00     0.165 A 
HETATM    5  N   UNL     1     -41.517  60.066 -55.209  1.00  0.00    -0.128 NA
HETATM    6  N   UNL     1     -41.930  59.638 -56.444  1.00  0.00    -0.122 NA
BRANCH   3   7
HETATM    7  C   UNL     1     -44.602  58.421 -54.364  1.00  0.00     0.128 C 
HETATM    8  C   UNL     1     -44.332  57.005 -53.881  1.00  0.00     0.027 C 
ENDBRANCH   3   7
BRANCH   4   9
HETATM    9  C   UNL     1     -42.333  59.960 -52.873  1.00  0.00     0.018 A 
HETATM   10  C   UNL     1     -41.626  59.080 -52.024  1.00  0.00    -0.048 A 
HETATM   11  C   UNL     1     -40.905  57.872 -52.558  1.00  0.00     0.049 C 
HETATM   12  C   UNL     1     -41.559  59.359 -50.648  1.00  0.00     0.007 A 
HETATM   13  C   UNL     1     -42.183  60.487 -50.115  1.00  0.00     0.001 A 
HETATM   14  C   UNL     1     -42.868  61.361 -50.953  1.00  0.00     0.001 A 
HETATM   15  C   UNL     1     -42.936  61.104 -52.323  1.00  0.00     0.016 A 
ENDBRANCH   4   9
ENDBRANCH   1   2
BRANCH   1  16
HETATM   16  C   UNL     1     -42.751  57.118 -58.202  1.00  0.00     0.185 C 
BRANCH  16  17
HETATM   17  C   UNL     1     -42.886  55.777 -57.500  1.00  0.00     0.227 C 
HETATM   18  N   UNL     1     -42.096  55.628 -56.378  1.00  0.00    -0.358 N 
HETATM   19  H   UNL     1     -41.500  56.390 -56.080  1.00  0.00     0.162 HD
HETATM   20  O   UNL     1     -43.648  54.898 -57.897  1.00  0.00    -0.273 OA
BRANCH  18  21
HETATM   21  C   UNL     1     -42.157  54.437 -55.549  1.00  0.00     0.149 C 
BRANCH  21  22
HETATM   22  C   UNL     1     -41.090  54.400 -54.450  1.00  0.00     0.195 C 
BRANCH  22  23
HETATM   23  O   UNL     1     -41.582  53.565 -53.399  1.00  0.00    -0.350 OA
BRANCH  23  24
HETATM   24  C   UNL     1     -41.401  53.987 -52.112  1.00  0.00     0.068 A 
HETATM   25  C   UNL     1     -40.256  53.800 -51.336  1.00  0.00     0.037 A 
HETATM   26  C   UNL     1     -40.205  54.303 -50.030  1.00  0.00     0.003 A 
HETATM   27  C   UNL     1     -41.296  54.988 -49.495  1.00  0.00     0.000 A 
HETATM   28  C   UNL     1     -42.441  55.174 -50.265  1.00  0.00     0.003 A 
HETATM   29  C   UNL     1     -42.489  54.676 -51.567  1.00  0.00     0.037 A 
ENDBRANCH  23  24
ENDBRANCH  22  23
ENDBRANCH  21  22
ENDBRANCH  18  21
ENDBRANCH  16  17
ENDBRANCH   1  16
TORSDOF 9
ENDMDL
