MODEL 1
REMARK VINA RESULT:      -9.0      0.000      0.000
REMARK  7 active torsions:
REMARK  status: ('A' for Active; 'I' for Inactive)
REMARK    1  A    between atoms: C_2  and  O_3 
REMARK    2  A    between atoms: O_3  and  C_4 
REMARK    3  A    between atoms: C_7  and  C_8 
REMARK    4  A    between atoms: N_9  and  N_10 
REMARK    5  A    between atoms: C_21  and  C_22 
REMARK       I    between atoms: C_22  and  N_23 
REMARK    6  A    between atoms: N_23  and  C_24 
REMARK    7  A    between atoms: C_31  and  N_32 
ROOT
HETATM    1  N   UNL     1     -43.415  55.417 -55.126  1.00  0.00    -0.197 N 
HETATM    2  C   UNL     1     -42.560  54.584 -54.414  1.00  0.00     0.183 A 
HETATM    3  C   UNL     1     -42.533  55.057 -53.109  1.00  0.00     0.125 A 
HETATM    4  N   UNL     1     -41.678  54.554 -52.180  1.00  0.00    -0.242 NA
HETATM    5  C   UNL     1     -40.946  53.517 -52.608  1.00  0.00     0.086 A 
HETATM    6  C   UNL     1     -41.010  53.021 -53.939  1.00  0.00     0.088 A 
HETATM    7  N   UNL     1     -41.796  53.570 -54.887  1.00  0.00    -0.225 NA
HETATM    8  C   UNL     1     -40.106  52.900 -51.690  1.00  0.00     0.034 A 
HETATM    9  C   UNL     1     -39.335  51.791 -52.038  1.00  0.00     0.002 A 
HETATM   10  C   UNL     1     -39.405  51.294 -53.332  1.00  0.00     0.002 A 
HETATM   11  C   UNL     1     -40.236  51.915 -54.269  1.00  0.00     0.034 A 
HETATM   12  C   UNL     1     -43.479  56.098 -52.985  1.00  0.00     0.110 C 
HETATM   13  C   UNL     1     -44.180  56.134 -54.180  1.00  0.00     0.143 C 
ENDROOT
BRANCH   1  14
HETATM   14  N   UNL     1     -43.142  55.871 -56.400  1.00  0.00    -0.176 NA
HETATM   15  C   UNL     1     -43.313  54.997 -57.334  1.00  0.00     0.150 C 
BRANCH  15  16
HETATM   16  C   UNL     1     -43.891  55.382 -58.638  1.00  0.00    -0.017 A 
HETATM   17  C   UNL     1     -44.523  56.627 -58.757  1.00  0.00     0.016 A 
HETATM   18  C   UNL     1     -45.404  56.863 -59.812  1.00  0.00     0.037 A 
HETATM   19  C   UNL     1     -45.654  55.853 -60.742  1.00  0.00     0.068 A 
HETATM   20  C   UNL     1     -44.942  54.652 -60.682  1.00  0.00     0.037 A 
HETATM   21  C   UNL     1     -44.071  54.404 -59.617  1.00  0.00     0.016 A 
BRANCH  19  22
HETATM   22  O   UNL     1     -46.596  55.955 -61.730  1.00  0.00    -0.352 OA
BRANCH  22  23
HETATM   23  C   UNL     1     -47.719  56.765 -61.353  1.00  0.00     0.171 C 
HETATM   24  C   UNL     1     -48.681  56.825 -62.526  1.00  0.00     0.034 C 
ENDBRANCH  22  23
ENDBRANCH  19  22
ENDBRANCH  15  16
ENDBRANCH   1  14
BRANCH  13  25
HETATM   25  N   UNL     1     -45.267  56.899 -54.489  1.00  0.00    -0.383 N 
HETATM   26  H   UNL     1     -45.972  57.080 -53.779  1.00  0.00     0.157 HD
HETATM   27  H   UNL     1     -45.073  57.759 -55.014  1.00  0.00     0.157 HD
ENDBRANCH  13  25
BRANCH  12  28
HETATM   28  C   UNL     1     -43.692  56.990 -51.861  1.00  0.00     0.258 C 
HETATM   29  N   UNL     1     -43.387  58.299 -52.151  1.00  0.00    -0.352 N 
HETATM   30  H   UNL     1     -42.863  58.468 -53.004  1.00  0.00     0.163 HD
HETATM   31  O   UNL     1     -44.177  56.619 -50.797  1.00  0.00    -0.267 OA
BRANCH  29  32
HETATM   32  C   UNL     1     -43.532  59.389 -51.203  1.00  0.00     0.084 C 
HETATM   33  C   UNL     1     -42.539  60.507 -51.529  1.00  0.00     0.025 C 
HETATM   34  C   UNL     1     -42.889  61.224 -52.832  1.00  0.00     0.002 C 
HETATM   35  C   UNL     1     -44.323  61.746 -52.823  1.00  0.00     0.000 C 
HETATM   36  C   UNL     1     -45.334  60.649 -52.497  1.00  0.00     0.002 C 
HETATM   37  C   UNL     1     -44.976  59.909 -51.208  1.00  0.00     0.025 C 
ENDBRANCH  29  32
ENDBRANCH  12  28
TORSDOF 7
ENDMDL
MODEL 2
REMARK VINA RESULT:      -8.9      1.826      2.418
REMARK  7 active torsions:
REMARK  status: ('A' for Active; 'I' for Inactive)
REMARK    1  A    between atoms: C_2  and  O_3 
REMARK    2  A    between atoms: O_3  and  C_4 
REMARK    3  A    between atoms: C_7  and  C_8 
REMARK    4  A    between atoms: N_9  and  N_10 
REMARK    5  A    between atoms: C_21  and  C_22 
REMARK       I    between atoms: C_22  and  N_23 
REMARK    6  A    between atoms: N_23  and  C_24 
REMARK    7  A    between atoms: C_31  and  N_32 
ROOT
HETATM    1  N   UNL     1     -43.121  55.487 -54.960  1.00  0.00    -0.197 N 
HETATM    2  C   UNL     1     -42.398  54.625 -54.143  1.00  0.00     0.183 A 
HETATM    3  C   UNL     1     -42.633  55.021 -52.833  1.00  0.00     0.125 A 
HETATM    4  N   UNL     1     -41.961  54.477 -51.786  1.00  0.00    -0.242 NA
HETATM    5  C   UNL     1     -41.136  53.476 -52.121  1.00  0.00     0.086 A 
HETATM    6  C   UNL     1     -40.932  53.057 -53.464  1.00  0.00     0.088 A 
HETATM    7  N   UNL     1     -41.534  53.650 -54.514  1.00  0.00    -0.225 NA
HETATM    8  C   UNL     1     -40.472  52.817 -51.093  1.00  0.00     0.034 A 
HETATM    9  C   UNL     1     -39.624  51.741 -51.345  1.00  0.00     0.002 A 
HETATM   10  C   UNL     1     -39.432  51.319 -52.653  1.00  0.00     0.002 A 
HETATM   11  C   UNL     1     -40.083  51.982 -53.698  1.00  0.00     0.034 A 
HETATM   12  C   UNL     1     -43.610  56.042 -52.838  1.00  0.00     0.110 C 
HETATM   13  C   UNL     1     -44.070  56.137 -54.142  1.00  0.00     0.143 C 
ENDROOT
BRANCH   1  14
HETATM   14  N   UNL     1     -42.619  56.017 -56.132  1.00  0.00    -0.176 NA
HETATM   15  C   UNL     1     -43.110  55.505 -57.211  1.00  0.00     0.150 C 
BRANCH  15  16
HETATM   16  C   UNL     1     -43.402  56.350 -58.387  1.00  0.00    -0.017 A 
HETATM   17  C   UNL     1     -42.523  56.317 -59.478  1.00  0.00     0.016 A 
HETATM   18  C   UNL     1     -42.533  57.354 -60.411  1.00  0.00     0.037 A 
HETATM   19  C   UNL     1     -43.416  58.421 -60.248  1.00  0.00     0.068 A 
HETATM   20  C   UNL     1     -44.362  58.398 -59.220  1.00  0.00     0.037 A 
HETATM   21  C   UNL     1     -44.346  57.371 -58.273  1.00  0.00     0.016 A 
BRANCH  19  22
HETATM   22  O   UNL     1     -43.404  59.537 -61.041  1.00  0.00    -0.352 OA
BRANCH  22  23
HETATM   23  C   UNL     1     -42.085  60.058 -61.258  1.00  0.00     0.171 C 
HETATM   24  C   UNL     1     -41.742  60.988 -60.109  1.00  0.00     0.034 C 
ENDBRANCH  22  23
ENDBRANCH  19  22
ENDBRANCH  15  16
ENDBRANCH   1  14
BRANCH  13  25
HETATM   25  N   UNL     1     -45.096  56.904 -54.613  1.00  0.00    -0.383 N 
HETATM   26  H   UNL     1     -45.489  56.711 -55.530  1.00  0.00     0.157 HD
HETATM   27  H   UNL     1     -45.851  57.097 -53.944  1.00  0.00     0.157 HD
ENDBRANCH  13  25
BRANCH  12  28
HETATM   28  C   UNL     1     -44.056  56.864 -51.730  1.00  0.00     0.258 C 
HETATM   29  N   UNL     1     -43.854  58.207 -51.944  1.00  0.00    -0.352 N 
HETATM   30  H   UNL     1     -43.246  58.460 -52.717  1.00  0.00     0.163 HD
HETATM   31  O   UNL     1     -44.632  56.406 -50.748  1.00  0.00    -0.267 OA
BRANCH  29  32
HETATM   32  C   UNL     1     -44.231  59.240 -50.996  1.00  0.00     0.084 C 
HETATM   33  C   UNL     1     -43.267  60.425 -51.095  1.00  0.00     0.025 C 
HETATM   34  C   UNL     1     -43.425  61.184 -52.412  1.00  0.00     0.002 C 
HETATM   35  C   UNL     1     -44.867  61.627 -52.639  1.00  0.00     0.000 C 
HETATM   36  C   UNL     1     -45.850  60.463 -52.542  1.00  0.00     0.002 C 
HETATM   37  C   UNL     1     -45.681  59.682 -51.239  1.00  0.00     0.025 C 
ENDBRANCH  29  32
ENDBRANCH  12  28
TORSDOF 7
ENDMDL
MODEL 3
REMARK VINA RESULT:      -8.7      2.322      7.565
REMARK  7 active torsions:
REMARK  status: ('A' for Active; 'I' for Inactive)
REMARK    1  A    between atoms: C_2  and  O_3 
REMARK    2  A    between atoms: O_3  and  C_4 
REMARK    3  A    between atoms: C_7  and  C_8 
REMARK    4  A    between atoms: N_9  and  N_10 
REMARK    5  A    between atoms: C_21  and  C_22 
REMARK       I    between atoms: C_22  and  N_23 
REMARK    6  A    between atoms: N_23  and  C_24 
REMARK    7  A    between atoms: C_31  and  N_32 
ROOT
HETATM    1  N   UNL     1     -42.328  56.586 -53.486  1.00  0.00    -0.197 N 
HETATM    2  C   UNL     1     -41.656  55.369 -53.467  1.00  0.00     0.183 A 
HETATM    3  C   UNL     1     -41.774  54.825 -54.739  1.00  0.00     0.125 A 
HETATM    4  N   UNL     1     -41.351  53.565 -55.024  1.00  0.00    -0.242 NA
HETATM    5  C   UNL     1     -40.737  52.947 -54.006  1.00  0.00     0.086 A 
HETATM    6  C   UNL     1     -40.593  53.531 -52.718  1.00  0.00     0.088 A 
HETATM    7  N   UNL     1     -41.084  54.748 -52.408  1.00  0.00    -0.225 NA
HETATM    8  C   UNL     1     -40.208  51.685 -54.246  1.00  0.00     0.034 A 
HETATM    9  C   UNL     1     -39.520  50.983 -53.257  1.00  0.00     0.002 A 
HETATM   10  C   UNL     1     -39.363  51.555 -52.002  1.00  0.00     0.002 A 
HETATM   11  C   UNL     1     -39.904  52.819 -51.745  1.00  0.00     0.034 A 
HETATM   12  C   UNL     1     -42.401  55.771 -55.579  1.00  0.00     0.110 C 
HETATM   13  C   UNL     1     -42.510  56.939 -54.841  1.00  0.00     0.143 C 
ENDROOT
BRANCH   1  14
HETATM   14  N   UNL     1     -43.146  57.016 -52.461  1.00  0.00    -0.176 NA
HETATM   15  C   UNL     1     -42.715  58.053 -51.824  1.00  0.00     0.150 C 
BRANCH  15  16
HETATM   16  C   UNL     1     -43.647  59.106 -51.371  1.00  0.00    -0.017 A 
HETATM   17  C   UNL     1     -43.129  60.226 -50.706  1.00  0.00     0.016 A 
HETATM   18  C   UNL     1     -43.970  61.025 -49.931  1.00  0.00     0.037 A 
HETATM   19  C   UNL     1     -45.322  60.700 -49.820  1.00  0.00     0.068 A 
HETATM   20  C   UNL     1     -45.855  59.648 -50.568  1.00  0.00     0.037 A 
HETATM   21  C   UNL     1     -45.014  58.834 -51.332  1.00  0.00     0.016 A 
BRANCH  19  22
HETATM   22  O   UNL     1     -46.187  61.352 -48.982  1.00  0.00    -0.352 OA
BRANCH  22  23
HETATM   23  C   UNL     1     -45.624  61.617 -47.688  1.00  0.00     0.171 C 
HETATM   24  C   UNL     1     -45.914  60.430 -46.788  1.00  0.00     0.034 C 
ENDBRANCH  22  23
ENDBRANCH  19  22
ENDBRANCH  15  16
ENDBRANCH   1  14
BRANCH  13  25
HETATM   25  N   UNL     1     -42.946  58.160 -55.268  1.00  0.00    -0.383 N 
HETATM   26  H   UNL     1     -43.740  58.217 -55.900  1.00  0.00     0.157 HD
HETATM   27  H   UNL     1     -43.024  58.883 -54.544  1.00  0.00     0.157 HD
ENDBRANCH  13  25
BRANCH  12  28
HETATM   28  C   UNL     1     -42.873  55.592 -56.939  1.00  0.00     0.258 C 
HETATM   29  N   UNL     1     -42.414  56.563 -57.798  1.00  0.00    -0.352 N 
HETATM   30  H   UNL     1     -41.994  57.385 -57.376  1.00  0.00     0.163 HD
HETATM   31  O   UNL     1     -43.540  54.625 -57.293  1.00  0.00    -0.267 OA
BRANCH  29  32
HETATM   32  C   UNL     1     -42.727  56.598 -59.215  1.00  0.00     0.084 C 
HETATM   33  C   UNL     1     -44.200  56.963 -59.421  1.00  0.00     0.025 C 
HETATM   34  C   UNL     1     -44.491  58.413 -59.035  1.00  0.00     0.002 C 
HETATM   35  C   UNL     1     -43.574  59.388 -59.768  1.00  0.00     0.000 C 
HETATM   36  C   UNL     1     -42.099  59.044 -59.580  1.00  0.00     0.002 C 
HETATM   37  C   UNL     1     -41.804  57.587 -59.939  1.00  0.00     0.025 C 
ENDBRANCH  29  32
ENDBRANCH  12  28
TORSDOF 7
ENDMDL
MODEL 4
REMARK VINA RESULT:      -8.6      3.217      7.148
REMARK  7 active torsions:
REMARK  status: ('A' for Active; 'I' for Inactive)
REMARK    1  A    between atoms: C_2  and  O_3 
REMARK    2  A    between atoms: O_3  and  C_4 
REMARK    3  A    between atoms: C_7  and  C_8 
REMARK    4  A    between atoms: N_9  and  N_10 
REMARK    5  A    between atoms: C_21  and  C_22 
REMARK       I    between atoms: C_22  and  N_23 
REMARK    6  A    between atoms: N_23  and  C_24 
REMARK    7  A    between atoms: C_31  and  N_32 
ROOT
HETATM    1  N   UNL     1     -41.956  58.060 -52.283  1.00  0.00    -0.197 N 
HETATM    2  C   UNL     1     -42.693  58.106 -53.461  1.00  0.00     0.183 A 
HETATM    3  C   UNL     1     -43.935  58.635 -53.138  1.00  0.00     0.125 A 
HETATM    4  N   UNL     1     -44.952  58.683 -54.038  1.00  0.00    -0.242 NA
HETATM    5  C   UNL     1     -44.620  58.265 -55.267  1.00  0.00     0.086 A 
HETATM    6  C   UNL     1     -43.333  57.757 -55.591  1.00  0.00     0.088 A 
HETATM    7  N   UNL     1     -42.346  57.631 -54.682  1.00  0.00    -0.225 NA
HETATM    8  C   UNL     1     -45.587  58.357 -56.260  1.00  0.00     0.034 A 
HETATM    9  C   UNL     1     -45.319  57.981 -57.576  1.00  0.00     0.002 A 
HETATM   10  C   UNL     1     -44.059  57.498 -57.901  1.00  0.00     0.002 A 
HETATM   11  C   UNL     1     -43.082  57.387 -56.907  1.00  0.00     0.034 A 
HETATM   12  C   UNL     1     -43.914  59.044 -51.787  1.00  0.00     0.110 C 
HETATM   13  C   UNL     1     -42.605  58.902 -51.354  1.00  0.00     0.143 C 
ENDROOT
BRANCH   1  14
HETATM   14  N   UNL     1     -41.160  56.990 -51.929  1.00  0.00    -0.176 NA
HETATM   15  C   UNL     1     -41.799  55.972 -51.459  1.00  0.00     0.150 C 
BRANCH  15  16
HETATM   16  C   UNL     1     -41.390  54.594 -51.801  1.00  0.00    -0.017 A 
HETATM   17  C   UNL     1     -40.706  53.834 -50.842  1.00  0.00     0.016 A 
HETATM   18  C   UNL     1     -39.971  52.717 -51.235  1.00  0.00     0.037 A 
HETATM   19  C   UNL     1     -39.918  52.364 -52.584  1.00  0.00     0.068 A 
HETATM   20  C   UNL     1     -40.687  53.059 -53.521  1.00  0.00     0.037 A 
HETATM   21  C   UNL     1     -41.411  54.190 -53.136  1.00  0.00     0.016 A 
BRANCH  19  22
HETATM   22  O   UNL     1     -39.121  51.363 -53.071  1.00  0.00    -0.352 OA
BRANCH  22  23
HETATM   23  C   UNL     1     -39.816  50.116 -53.224  1.00  0.00     0.171 C 
HETATM   24  C   UNL     1     -39.809  49.742 -54.695  1.00  0.00     0.034 C 
ENDBRANCH  22  23
ENDBRANCH  19  22
ENDBRANCH  15  16
ENDBRANCH   1  14
BRANCH  13  25
HETATM   25  N   UNL     1     -42.076  59.279 -50.154  1.00  0.00    -0.383 N 
HETATM   26  H   UNL     1     -41.754  60.234 -50.024  1.00  0.00     0.157 HD
HETATM   27  H   UNL     1     -42.592  58.970 -49.323  1.00  0.00     0.157 HD
ENDBRANCH  13  25
BRANCH  12  28
HETATM   28  C   UNL     1     -45.021  59.506 -50.970  1.00  0.00     0.258 C 
HETATM   29  N   UNL     1     -45.086  60.876 -50.880  1.00  0.00    -0.352 N 
HETATM   30  H   UNL     1     -44.271  61.394 -51.194  1.00  0.00     0.163 HD
HETATM   31  O   UNL     1     -45.856  58.747 -50.487  1.00  0.00    -0.267 OA
BRANCH  29  32
HETATM   32  C   UNL     1     -46.111  61.587 -50.138  1.00  0.00     0.084 C 
HETATM   33  C   UNL     1     -45.652  61.821 -48.696  1.00  0.00     0.025 C 
HETATM   34  C   UNL     1     -44.503  62.826 -48.616  1.00  0.00     0.002 C 
HETATM   35  C   UNL     1     -44.854  64.142 -49.303  1.00  0.00     0.000 C 
HETATM   36  C   UNL     1     -45.318  63.936 -50.742  1.00  0.00     0.002 C 
HETATM   37  C   UNL     1     -46.450  62.912 -50.835  1.00  0.00     0.025 C 
ENDBRANCH  29  32
ENDBRANCH  12  28
TORSDOF 7
ENDMDL
MODEL 5
REMARK VINA RESULT:      -8.6      3.154      8.573
REMARK  7 active torsions:
REMARK  status: ('A' for Active; 'I' for Inactive)
REMARK    1  A    between atoms: C_2  and  O_3 
REMARK    2  A    between atoms: O_3  and  C_4 
REMARK    3  A    between atoms: C_7  and  C_8 
REMARK    4  A    between atoms: N_9  and  N_10 
REMARK    5  A    between atoms: C_21  and  C_22 
REMARK       I    between atoms: C_22  and  N_23 
REMARK    6  A    between atoms: N_23  and  C_24 
REMARK    7  A    between atoms: C_31  and  N_32 
ROOT
HETATM    1  N   UNL     1     -42.513  58.918 -53.164  1.00  0.00    -0.197 N 
HETATM    2  C   UNL     1     -42.040  57.640 -53.442  1.00  0.00     0.183 A 
HETATM    3  C   UNL     1     -41.833  57.578 -54.813  1.00  0.00     0.125 A 
HETATM    4  N   UNL     1     -41.507  56.416 -55.439  1.00  0.00    -0.242 NA
HETATM    5  C   UNL     1     -41.317  55.379 -54.612  1.00  0.00     0.086 A 
HETATM    6  C   UNL     1     -41.500  55.467 -53.205  1.00  0.00     0.088 A 
HETATM    7  N   UNL     1     -41.904  56.596 -52.589  1.00  0.00    -0.225 NA
HETATM    8  C   UNL     1     -40.906  54.177 -55.173  1.00  0.00     0.034 A 
HETATM    9  C   UNL     1     -40.648  53.056 -54.385  1.00  0.00     0.002 A 
HETATM   10  C   UNL     1     -40.811  53.140 -53.009  1.00  0.00     0.002 A 
HETATM   11  C   UNL     1     -41.238  54.341 -52.435  1.00  0.00     0.034 A 
HETATM   12  C   UNL     1     -42.047  58.862 -55.361  1.00  0.00     0.110 C 
HETATM   13  C   UNL     1     -42.226  59.721 -54.289  1.00  0.00     0.143 C 
ENDROOT
BRANCH   1  14
HETATM   14  N   UNL     1     -43.543  59.168 -52.280  1.00  0.00    -0.176 NA
HETATM   15  C   UNL     1     -43.180  59.705 -51.164  1.00  0.00     0.150 C 
BRANCH  15  16
HETATM   16  C   UNL     1     -44.004  60.749 -50.520  1.00  0.00    -0.017 A 
HETATM   17  C   UNL     1     -43.427  61.999 -50.256  1.00  0.00     0.016 A 
HETATM   18  C   UNL     1     -44.013  62.852 -49.322  1.00  0.00     0.037 A 
HETATM   19  C   UNL     1     -45.170  62.453 -48.652  1.00  0.00     0.068 A 
HETATM   20  C   UNL     1     -45.801  61.255 -48.995  1.00  0.00     0.037 A 
HETATM   21  C   UNL     1     -45.209  60.388 -49.917  1.00  0.00     0.016 A 
BRANCH  19  22
HETATM   22  O   UNL     1     -45.736  63.171 -47.633  1.00  0.00    -0.352 OA
BRANCH  22  23
HETATM   23  C   UNL     1     -46.137  62.353 -46.525  1.00  0.00     0.171 C 
HETATM   24  C   UNL     1     -45.149  62.562 -45.392  1.00  0.00     0.034 C 
ENDBRANCH  22  23
ENDBRANCH  19  22
ENDBRANCH  15  16
ENDBRANCH   1  14
BRANCH  13  25
HETATM   25  N   UNL     1     -42.351  61.079 -54.318  1.00  0.00    -0.383 N 
HETATM   26  H   UNL     1     -42.490  61.590 -53.450  1.00  0.00     0.157 HD
HETATM   27  H   UNL     1     -41.676  61.576 -54.910  1.00  0.00     0.157 HD
ENDBRANCH  13  25
BRANCH  12  28
HETATM   28  C   UNL     1     -42.100  59.245 -56.760  1.00  0.00     0.258 C 
HETATM   29  N   UNL     1     -42.880  58.404 -57.517  1.00  0.00    -0.352 N 
HETATM   30  H   UNL     1     -43.149  57.522 -57.090  1.00  0.00     0.163 HD
HETATM   31  O   UNL     1     -41.570  60.263 -57.193  1.00  0.00    -0.267 OA
BRANCH  29  32
HETATM   32  C   UNL     1     -43.110  58.580 -58.939  1.00  0.00     0.084 C 
HETATM   33  C   UNL     1     -42.128  57.724 -59.743  1.00  0.00     0.025 C 
HETATM   34  C   UNL     1     -42.418  56.230 -59.598  1.00  0.00     0.002 C 
HETATM   35  C   UNL     1     -43.863  55.897 -59.958  1.00  0.00     0.000 C 
HETATM   36  C   UNL     1     -44.863  56.741 -59.171  1.00  0.00     0.002 C 
HETATM   37  C   UNL     1     -44.564  58.235 -59.290  1.00  0.00     0.025 C 
ENDBRANCH  29  32
ENDBRANCH  12  28
TORSDOF 7
ENDMDL
MODEL 6
REMARK VINA RESULT:      -8.6      2.609      8.152
REMARK  7 active torsions:
REMARK  status: ('A' for Active; 'I' for Inactive)
REMARK    1  A    between atoms: C_2  and  O_3 
REMARK    2  A    between atoms: O_3  and  C_4 
REMARK    3  A    between atoms: C_7  and  C_8 
REMARK    4  A    between atoms: N_9  and  N_10 
REMARK    5  A    between atoms: C_21  and  C_22 
REMARK       I    between atoms: C_22  and  N_23 
REMARK    6  A    between atoms: N_23  and  C_24 
REMARK    7  A    between atoms: C_31  and  N_32 
ROOT
HETATM    1  N   UNL     1     -43.490  57.301 -52.864  1.00  0.00    -0.197 N 
HETATM    2  C   UNL     1     -43.550  58.658 -52.566  1.00  0.00     0.183 A 
HETATM    3  C   UNL     1     -44.139  59.282 -53.658  1.00  0.00     0.125 A 
HETATM    4  N   UNL     1     -44.218  60.635 -53.755  1.00  0.00    -0.242 NA
HETATM    5  C   UNL     1     -43.768  61.293 -52.678  1.00  0.00     0.086 A 
HETATM    6  C   UNL     1     -43.199  60.637 -51.552  1.00  0.00     0.088 A 
HETATM    7  N   UNL     1     -43.043  59.300 -51.487  1.00  0.00    -0.225 NA
HETATM    8  C   UNL     1     -43.888  62.677 -52.672  1.00  0.00     0.034 A 
HETATM    9  C   UNL     1     -43.481  63.439 -51.578  1.00  0.00     0.002 A 
HETATM   10  C   UNL     1     -42.939  62.803 -50.470  1.00  0.00     0.002 A 
HETATM   11  C   UNL     1     -42.800  61.412 -50.470  1.00  0.00     0.034 A 
HETATM   12  C   UNL     1     -44.566  58.292 -54.569  1.00  0.00     0.110 C 
HETATM   13  C   UNL     1     -44.373  57.072 -53.941  1.00  0.00     0.143 C 
ENDROOT
BRANCH   1  14
HETATM   14  N   UNL     1     -42.391  56.514 -52.586  1.00  0.00    -0.176 NA
HETATM   15  C   UNL     1     -42.633  55.492 -51.835  1.00  0.00     0.150 C 
BRANCH  15  16
HETATM   16  C   UNL     1     -41.973  54.194 -52.083  1.00  0.00    -0.017 A 
HETATM   17  C   UNL     1     -41.226  53.608 -51.052  1.00  0.00     0.016 A 
HETATM   18  C   UNL     1     -40.286  52.620 -51.349  1.00  0.00     0.037 A 
HETATM   19  C   UNL     1     -40.094  52.225 -52.673  1.00  0.00     0.068 A 
HETATM   20  C   UNL     1     -40.914  52.733 -53.683  1.00  0.00     0.037 A 
HETATM   21  C   UNL     1     -41.845  53.736 -53.394  1.00  0.00     0.016 A 
BRANCH  19  22
HETATM   22  O   UNL     1     -39.109  51.359 -53.065  1.00  0.00    -0.352 OA
BRANCH  22  23
HETATM   23  C   UNL     1     -39.570  50.006 -53.198  1.00  0.00     0.171 C 
HETATM   24  C   UNL     1     -39.833  49.732 -54.667  1.00  0.00     0.034 C 
ENDBRANCH  22  23
ENDBRANCH  19  22
ENDBRANCH  15  16
ENDBRANCH   1  14
BRANCH  13  25
HETATM   25  N   UNL     1     -44.744  55.835 -54.384  1.00  0.00    -0.383 N 
HETATM   26  H   UNL     1     -44.890  55.085 -53.715  1.00  0.00     0.157 HD
HETATM   27  H   UNL     1     -45.487  55.820 -55.092  1.00  0.00     0.157 HD
ENDBRANCH  13  25
BRANCH  12  28
HETATM   28  C   UNL     1     -45.088  58.470 -55.911  1.00  0.00     0.258 C 
HETATM   29  N   UNL     1     -44.158  58.983 -56.784  1.00  0.00    -0.352 N 
HETATM   30  H   UNL     1     -43.313  59.370 -56.375  1.00  0.00     0.163 HD
HETATM   31  O   UNL     1     -46.215  58.116 -56.242  1.00  0.00    -0.267 OA
BRANCH  29  32
HETATM   32  C   UNL     1     -44.424  59.236 -58.188  1.00  0.00     0.084 C 
HETATM   33  C   UNL     1     -43.434  60.267 -58.735  1.00  0.00     0.025 C 
HETATM   34  C   UNL     1     -42.013  59.711 -58.818  1.00  0.00     0.002 C 
HETATM   35  C   UNL     1     -41.959  58.415 -59.621  1.00  0.00     0.000 C 
HETATM   36  C   UNL     1     -42.941  57.370 -59.097  1.00  0.00     0.002 C 
HETATM   37  C   UNL     1     -44.360  57.927 -58.986  1.00  0.00     0.025 C 
ENDBRANCH  29  32
ENDBRANCH  12  28
TORSDOF 7
ENDMDL
MODEL 7
REMARK VINA RESULT:      -8.2      2.661      7.145
REMARK  7 active torsions:
REMARK  status: ('A' for Active; 'I' for Inactive)
REMARK    1  A    between atoms: C_2  and  O_3 
REMARK    2  A    between atoms: O_3  and  C_4 
REMARK    3  A    between atoms: C_7  and  C_8 
REMARK    4  A    between atoms: N_9  and  N_10 
REMARK    5  A    between atoms: C_21  and  C_22 
REMARK       I    between atoms: C_22  and  N_23 
REMARK    6  A    between atoms: N_23  and  C_24 
REMARK    7  A    between atoms: C_31  and  N_32 
ROOT
HETATM    1  N   UNL     1     -41.896  58.039 -55.169  1.00  0.00    -0.197 N 
HETATM    2  C   UNL     1     -42.644  57.695 -56.289  1.00  0.00     0.183 A 
HETATM    3  C   UNL     1     -43.769  58.509 -56.286  1.00  0.00     0.125 A 
HETATM    4  N   UNL     1     -44.786  58.333 -57.170  1.00  0.00    -0.242 NA
HETATM    5  C   UNL     1     -44.563  57.379 -58.085  1.00  0.00     0.086 A 
HETATM    6  C   UNL     1     -43.389  56.576 -58.095  1.00  0.00     0.088 A 
HETATM    7  N   UNL     1     -42.416  56.693 -57.171  1.00  0.00    -0.225 NA
HETATM    8  C   UNL     1     -45.525  57.194 -59.070  1.00  0.00     0.034 A 
HETATM    9  C   UNL     1     -45.359  56.251 -60.083  1.00  0.00     0.002 A 
HETATM   10  C   UNL     1     -44.208  55.475 -60.107  1.00  0.00     0.002 A 
HETATM   11  C   UNL     1     -43.239  55.642 -59.113  1.00  0.00     0.034 A 
HETATM   12  C   UNL     1     -43.645  59.449 -55.240  1.00  0.00     0.110 C 
HETATM   13  C   UNL     1     -42.368  59.293 -54.723  1.00  0.00     0.143 C 
ENDROOT
BRANCH   1  14
HETATM   14  N   UNL     1     -41.286  57.110 -54.352  1.00  0.00    -0.176 NA
HETATM   15  C   UNL     1     -42.086  56.249 -53.818  1.00  0.00     0.150 C 
BRANCH  15  16
HETATM   16  C   UNL     1     -41.690  54.834 -53.670  1.00  0.00    -0.017 A 
HETATM   17  C   UNL     1     -41.604  54.287 -52.382  1.00  0.00     0.016 A 
HETATM   18  C   UNL     1     -40.874  53.118 -52.170  1.00  0.00     0.037 A 
HETATM   19  C   UNL     1     -40.229  52.503 -53.242  1.00  0.00     0.068 A 
HETATM   20  C   UNL     1     -40.404  52.989 -54.540  1.00  0.00     0.037 A 
HETATM   21  C   UNL     1     -41.120  54.170 -54.756  1.00  0.00     0.016 A 
BRANCH  19  22
HETATM   22  O   UNL     1     -39.390  51.429 -53.102  1.00  0.00    -0.352 OA
BRANCH  22  23
HETATM   23  C   UNL     1     -39.336  50.931 -51.757  1.00  0.00     0.171 C 
HETATM   24  C   UNL     1     -39.651  49.447 -51.783  1.00  0.00     0.034 C 
ENDBRANCH  22  23
ENDBRANCH  19  22
ENDBRANCH  15  16
ENDBRANCH   1  14
BRANCH  13  25
HETATM   25  N   UNL     1     -41.752  60.056 -53.774  1.00  0.00    -0.383 N 
HETATM   26  H   UNL     1     -42.309  60.523 -53.065  1.00  0.00     0.157 HD
HETATM   27  H   UNL     1     -40.917  59.642 -53.343  1.00  0.00     0.157 HD
ENDBRANCH  13  25
BRANCH  12  28
HETATM   28  C   UNL     1     -44.635  60.392 -54.756  1.00  0.00     0.258 C 
HETATM   29  N   UNL     1     -44.951  60.205 -53.431  1.00  0.00    -0.352 N 
HETATM   30  H   UNL     1     -44.641  59.337 -53.006  1.00  0.00     0.163 HD
HETATM   31  O   UNL     1     -45.074  61.311 -55.441  1.00  0.00    -0.267 OA
BRANCH  29  32
HETATM   32  C   UNL     1     -45.900  61.029 -52.705  1.00  0.00     0.084 C 
HETATM   33  C   UNL     1     -46.601  60.199 -51.626  1.00  0.00     0.025 C 
HETATM   34  C   UNL     1     -45.650  59.807 -50.495  1.00  0.00     0.002 C 
HETATM   35  C   UNL     1     -44.957  61.025 -49.890  1.00  0.00     0.000 C 
HETATM   36  C   UNL     1     -44.252  61.872 -50.947  1.00  0.00     0.002 C 
HETATM   37  C   UNL     1     -45.190  62.246 -52.095  1.00  0.00     0.025 C 
ENDBRANCH  29  32
ENDBRANCH  12  28
TORSDOF 7
ENDMDL
MODEL 8
REMARK VINA RESULT:      -8.1      3.409      7.653
REMARK  7 active torsions:
REMARK  status: ('A' for Active; 'I' for Inactive)
REMARK    1  A    between atoms: C_2  and  O_3 
REMARK    2  A    between atoms: O_3  and  C_4 
REMARK    3  A    between atoms: C_7  and  C_8 
REMARK    4  A    between atoms: N_9  and  N_10 
REMARK    5  A    between atoms: C_21  and  C_22 
REMARK       I    between atoms: C_22  and  N_23 
REMARK    6  A    between atoms: N_23  and  C_24 
REMARK    7  A    between atoms: C_31  and  N_32 
ROOT
HETATM    1  N   UNL     1     -42.408  58.257 -56.119  1.00  0.00    -0.197 N 
HETATM    2  C   UNL     1     -43.146  57.679 -57.146  1.00  0.00     0.183 A 
HETATM    3  C   UNL     1     -44.237  58.508 -57.371  1.00  0.00     0.125 A 
HETATM    4  N   UNL     1     -45.242  58.159 -58.216  1.00  0.00    -0.242 NA
HETATM    5  C   UNL     1     -45.039  57.007 -58.869  1.00  0.00     0.086 A 
HETATM    6  C   UNL     1     -43.899  56.185 -58.653  1.00  0.00     0.088 A 
HETATM    7  N   UNL     1     -42.940  56.487 -57.755  1.00  0.00    -0.225 NA
HETATM    8  C   UNL     1     -45.987  56.623 -59.809  1.00  0.00     0.034 A 
HETATM    9  C   UNL     1     -45.839  55.459 -60.561  1.00  0.00     0.002 A 
HETATM   10  C   UNL     1     -44.721  54.661 -60.365  1.00  0.00     0.002 A 
HETATM   11  C   UNL     1     -43.766  55.029 -59.412  1.00  0.00     0.034 A 
HETATM   12  C   UNL     1     -44.096  59.667 -56.577  1.00  0.00     0.110 C 
HETATM   13  C   UNL     1     -42.837  59.596 -56.001  1.00  0.00     0.143 C 
ENDROOT
BRANCH   1  14
HETATM   14  N   UNL     1     -41.851  57.530 -55.086  1.00  0.00    -0.176 NA
HETATM   15  C   UNL     1     -42.692  56.826 -54.406  1.00  0.00     0.150 C 
BRANCH  15  16
HETATM   16  C   UNL     1     -42.336  55.477 -53.921  1.00  0.00    -0.017 A 
HETATM   17  C   UNL     1     -41.647  55.355 -52.706  1.00  0.00     0.016 A 
HETATM   18  C   UNL     1     -40.958  54.179 -52.412  1.00  0.00     0.037 A 
HETATM   19  C   UNL     1     -40.956  53.131 -53.333  1.00  0.00     0.068 A 
HETATM   20  C   UNL     1     -41.731  53.214 -54.493  1.00  0.00     0.037 A 
HETATM   21  C   UNL     1     -42.408  54.397 -54.801  1.00  0.00     0.016 A 
BRANCH  19  22
HETATM   22  O   UNL     1     -40.205  51.996 -53.182  1.00  0.00    -0.352 OA
BRANCH  22  23
HETATM   23  C   UNL     1     -40.235  51.144 -54.336  1.00  0.00     0.171 C 
HETATM   24  C   UNL     1     -39.698  49.781 -53.940  1.00  0.00     0.034 C 
ENDBRANCH  22  23
ENDBRANCH  19  22
ENDBRANCH  15  16
ENDBRANCH   1  14
BRANCH  13  25
HETATM   25  N   UNL     1     -42.210  60.543 -55.244  1.00  0.00    -0.383 N 
HETATM   26  H   UNL     1     -41.673  60.260 -54.429  1.00  0.00     0.157 HD
HETATM   27  H   UNL     1     -41.697  61.262 -55.766  1.00  0.00     0.157 HD
ENDBRANCH  13  25
BRANCH  12  28
HETATM   28  C   UNL     1     -45.057  60.732 -56.362  1.00  0.00     0.258 C 
HETATM   29  N   UNL     1     -45.935  60.881 -57.409  1.00  0.00    -0.352 N 
HETATM   30  H   UNL     1     -45.700  60.405 -58.275  1.00  0.00     0.163 HD
HETATM   31  O   UNL     1     -45.125  61.368 -55.315  1.00  0.00    -0.267 OA
BRANCH  29  32
HETATM   32  C   UNL     1     -47.004  61.863 -57.431  1.00  0.00     0.084 C 
HETATM   33  C   UNL     1     -46.819  62.818 -58.613  1.00  0.00     0.025 C 
HETATM   34  C   UNL     1     -47.053  62.122 -59.954  1.00  0.00     0.002 C 
HETATM   35  C   UNL     1     -48.416  61.438 -60.006  1.00  0.00     0.000 C 
HETATM   36  C   UNL     1     -48.627  60.482 -58.835  1.00  0.00     0.002 C 
HETATM   37  C   UNL     1     -48.369  61.163 -57.490  1.00  0.00     0.025 C 
ENDBRANCH  29  32
ENDBRANCH  12  28
TORSDOF 7
ENDMDL
MODEL 9
REMARK VINA RESULT:      -7.9     16.106     20.365
REMARK  7 active torsions:
REMARK  status: ('A' for Active; 'I' for Inactive)
REMARK    1  A    between atoms: C_2  and  O_3 
REMARK    2  A    between atoms: O_3  and  C_4 
REMARK    3  A    between atoms: C_7  and  C_8 
REMARK    4  A    between atoms: N_9  and  N_10 
REMARK    5  A    between atoms: C_21  and  C_22 
REMARK       I    between atoms: C_22  and  N_23 
REMARK    6  A    between atoms: N_23  and  C_24 
REMARK    7  A    between atoms: C_31  and  N_32 
ROOT
HETATM    1  N   UNL     1     -35.896  39.233 -50.647  1.00  0.00    -0.197 N 
HETATM    2  C   UNL     1     -37.266  39.193 -50.877  1.00  0.00     0.183 A 
HETATM    3  C   UNL     1     -37.534  40.125 -51.871  1.00  0.00     0.125 A 
HETATM    4  N   UNL     1     -38.804  40.444 -52.234  1.00  0.00    -0.242 NA
HETATM    5  C   UNL     1     -39.751  39.720 -51.621  1.00  0.00     0.086 A 
HETATM    6  C   UNL     1     -39.459  38.744 -50.629  1.00  0.00     0.088 A 
HETATM    7  N   UNL     1     -38.205  38.484 -50.207  1.00  0.00    -0.225 NA
HETATM    8  C   UNL     1     -41.070  39.936 -51.998  1.00  0.00     0.034 A 
HETATM    9  C   UNL     1     -42.117  39.203 -51.441  1.00  0.00     0.002 A 
HETATM   10  C   UNL     1     -41.836  38.238 -50.483  1.00  0.00     0.002 A 
HETATM   11  C   UNL     1     -40.513  38.022 -50.085  1.00  0.00     0.034 A 
HETATM   12  C   UNL     1     -36.309  40.640 -52.349  1.00  0.00     0.110 C 
HETATM   13  C   UNL     1     -35.308  39.893 -51.748  1.00  0.00     0.143 C 
ENDROOT
BRANCH   1  14
HETATM   14  N   UNL     1     -35.338  39.192 -49.385  1.00  0.00    -0.176 NA
HETATM   15  C   UNL     1     -34.735  38.088 -49.096  1.00  0.00     0.150 C 
BRANCH  15  16
HETATM   16  C   UNL     1     -33.477  38.090 -48.321  1.00  0.00    -0.017 A 
HETATM   17  C   UNL     1     -33.424  37.376 -47.116  1.00  0.00     0.016 A 
HETATM   18  C   UNL     1     -32.431  37.663 -46.180  1.00  0.00     0.037 A 
HETATM   19  C   UNL     1     -31.498  38.664 -46.449  1.00  0.00     0.068 A 
HETATM   20  C   UNL     1     -31.488  39.299 -47.693  1.00  0.00     0.037 A 
HETATM   21  C   UNL     1     -32.492  39.028 -48.627  1.00  0.00     0.016 A 
BRANCH  19  22
HETATM   22  O   UNL     1     -30.572  39.095 -45.537  1.00  0.00    -0.352 OA
BRANCH  22  23
HETATM   23  C   UNL     1     -30.091  40.420 -45.808  1.00  0.00     0.171 C 
HETATM   24  C   UNL     1     -29.988  41.171 -44.493  1.00  0.00     0.034 C 
ENDBRANCH  22  23
ENDBRANCH  19  22
ENDBRANCH  15  16
ENDBRANCH   1  14
BRANCH  13  25
HETATM   25  N   UNL     1     -33.966  39.948 -51.988  1.00  0.00    -0.383 N 
HETATM   26  H   UNL     1     -33.601  40.630 -52.647  1.00  0.00     0.157 HD
HETATM   27  H   UNL     1     -33.363  39.908 -51.158  1.00  0.00     0.157 HD
ENDBRANCH  13  25
BRANCH  12  28
HETATM   28  C   UNL     1     -36.095  41.742 -53.269  1.00  0.00     0.258 C 
HETATM   29  N   UNL     1     -36.563  41.483 -54.535  1.00  0.00    -0.352 N 
HETATM   30  H   UNL     1     -36.800  40.518 -54.746  1.00  0.00     0.163 HD
HETATM   31  O   UNL     1     -35.624  42.820 -52.920  1.00  0.00    -0.267 OA
BRANCH  29  32
HETATM   32  C   UNL     1     -36.487  42.430 -55.632  1.00  0.00     0.084 C 
HETATM   33  C   UNL     1     -35.098  42.383 -56.274  1.00  0.00     0.025 C 
HETATM   34  C   UNL     1     -34.856  41.072 -57.022  1.00  0.00     0.002 C 
HETATM   35  C   UNL     1     -35.949  40.798 -58.051  1.00  0.00     0.000 C 
HETATM   36  C   UNL     1     -37.345  40.842 -57.435  1.00  0.00     0.002 C 
HETATM   37  C   UNL     1     -37.586  42.140 -56.663  1.00  0.00     0.025 C 
ENDBRANCH  29  32
ENDBRANCH  12  28
TORSDOF 7
ENDMDL
MODEL 10
REMARK VINA RESULT:      -7.9      2.878      7.511
REMARK  7 active torsions:
REMARK  status: ('A' for Active; 'I' for Inactive)
REMARK    1  A    between atoms: C_2  and  O_3 
REMARK    2  A    between atoms: O_3  and  C_4 
REMARK    3  A    between atoms: C_7  and  C_8 
REMARK    4  A    between atoms: N_9  and  N_10 
REMARK    5  A    between atoms: C_21  and  C_22 
REMARK       I    between atoms: C_22  and  N_23 
REMARK    6  A    between atoms: N_23  and  C_24 
REMARK    7  A    between atoms: C_31  and  N_32 
ROOT
HETATM    1  N   UNL     1     -43.152  58.577 -53.778  1.00  0.00    -0.197 N 
HETATM    2  C   UNL     1     -42.493  57.353 -53.801  1.00  0.00     0.183 A 
HETATM    3  C   UNL     1     -42.135  57.115 -55.122  1.00  0.00     0.125 A 
HETATM    4  N   UNL     1     -41.600  55.931 -55.519  1.00  0.00    -0.242 NA
HETATM    5  C   UNL     1     -41.368  55.068 -54.521  1.00  0.00     0.086 A 
HETATM    6  C   UNL     1     -41.708  55.340 -53.168  1.00  0.00     0.088 A 
HETATM    7  N   UNL     1     -42.315  56.480 -52.781  1.00  0.00    -0.225 NA
HETATM    8  C   UNL     1     -40.749  53.866 -54.840  1.00  0.00     0.034 A 
HETATM    9  C   UNL     1     -40.436  52.925 -53.861  1.00  0.00     0.002 A 
HETATM   10  C   UNL     1     -40.752  53.191 -52.536  1.00  0.00     0.002 A 
HETATM   11  C   UNL     1     -41.388  54.391 -52.204  1.00  0.00     0.034 A 
HETATM   12  C   UNL     1     -42.452  58.258 -55.889  1.00  0.00     0.110 C 
HETATM   13  C   UNL     1     -42.851  59.234 -54.990  1.00  0.00     0.143 C 
ENDROOT
BRANCH   1  14
HETATM   14  N   UNL     1     -44.293  58.808 -53.037  1.00  0.00    -0.176 NA
HETATM   15  C   UNL     1     -44.138  59.617 -52.043  1.00  0.00     0.150 C 
BRANCH  15  16
HETATM   16  C   UNL     1     -45.184  60.601 -51.695  1.00  0.00    -0.017 A 
HETATM   17  C   UNL     1     -46.477  60.422 -52.206  1.00  0.00     0.016 A 
HETATM   18  C   UNL     1     -47.367  61.495 -52.237  1.00  0.00     0.037 A 
HETATM   19  C   UNL     1     -46.962  62.743 -51.762  1.00  0.00     0.068 A 
HETATM   20  C   UNL     1     -45.712  62.891 -51.156  1.00  0.00     0.037 A 
HETATM   21  C   UNL     1     -44.810  61.824 -51.138  1.00  0.00     0.016 A 
BRANCH  19  22
HETATM   22  O   UNL     1     -47.724  63.875 -51.872  1.00  0.00    -0.352 OA
BRANCH  22  23
HETATM   23  C   UNL     1     -49.134  63.609 -51.838  1.00  0.00     0.171 C 
HETATM   24  C   UNL     1     -49.785  64.319 -53.010  1.00  0.00     0.034 C 
ENDBRANCH  22  23
ENDBRANCH  19  22
ENDBRANCH  15  16
ENDBRANCH   1  14
BRANCH  13  25
HETATM   25  N   UNL     1     -43.145  60.541 -55.252  1.00  0.00    -0.383 N 
HETATM   26  H   UNL     1     -43.243  60.851 -56.215  1.00  0.00     0.157 HD
HETATM   27  H   UNL     1     -43.887  60.955 -54.676  1.00  0.00     0.157 HD
ENDBRANCH  13  25
BRANCH  12  28
HETATM   28  C   UNL     1     -42.404  58.414 -57.330  1.00  0.00     0.258 C 
HETATM   29  N   UNL     1     -43.122  57.451 -57.998  1.00  0.00    -0.352 N 
HETATM   30  H   UNL     1     -43.417  56.643 -57.457  1.00  0.00     0.163 HD
HETATM   31  O   UNL     1     -41.851  59.360 -57.881  1.00  0.00    -0.267 OA
BRANCH  29  32
HETATM   32  C   UNL     1     -43.249  57.397 -59.443  1.00  0.00     0.084 C 
HETATM   33  C   UNL     1     -42.982  55.975 -59.943  1.00  0.00     0.025 C 
HETATM   34  C   UNL     1     -44.088  55.004 -59.531  1.00  0.00     0.002 C 
HETATM   35  C   UNL     1     -45.464  55.494 -59.972  1.00  0.00     0.000 C 
HETATM   36  C   UNL     1     -45.754  56.912 -59.488  1.00  0.00     0.002 C 
HETATM   37  C   UNL     1     -44.639  57.885 -59.874  1.00  0.00     0.025 C 
ENDBRANCH  29  32
ENDBRANCH  12  28
TORSDOF 7
ENDMDL
