MODEL 1
REMARK VINA RESULT:      -7.2      0.000      0.000
REMARK  2 active torsions:
REMARK  status: ('A' for Active; 'I' for Inactive)
REMARK    1  A    between atoms: C_2  and  C_3 
REMARK       I    between atoms: C_3  and  N_4 
REMARK    2  A    between atoms: N_4  and  C_5 
ROOT
HETATM    1  C   UNL     1     -41.028  55.118 -54.927  1.00  0.00     0.174 A 
HETATM    2  S   UNL     1     -41.186  55.459 -53.270  1.00  0.00    -0.050 SA
HETATM    3  C   UNL     1     -40.680  53.859 -52.883  1.00  0.00     0.040 A 
HETATM    4  C   UNL     1     -40.415  53.173 -54.078  1.00  0.00     0.079 A 
HETATM    5  N   UNL     1     -40.616  53.912 -55.233  1.00  0.00    -0.223 NA
HETATM    6  C   UNL     1     -40.533  53.261 -51.617  1.00  0.00     0.061 A 
HETATM    7  C   UNL     1     -40.111  51.946 -51.621  1.00  0.00     0.106 A 
HETATM    8  C   UNL     1     -39.846  51.257 -52.778  1.00  0.00     0.107 A 
HETATM    9  O   UNL     1     -39.448  49.977 -52.541  1.00  0.00    -0.323 OA
HETATM   10  C   UNL     1     -39.500  49.936 -51.100  1.00  0.00     0.352 A 
HETATM   11  O   UNL     1     -39.914  51.185 -50.509  1.00  0.00    -0.323 OA
HETATM   12  C   UNL     1     -39.981  51.830 -54.028  1.00  0.00     0.073 A 
ENDROOT
BRANCH   1  13
HETATM   13  N   UNL     1     -41.314  56.024 -55.912  1.00  0.00    -0.301 N 
HETATM   14  C   UNL     1     -42.540  56.548 -56.253  1.00  0.00     0.264 C 
HETATM   15  O   UNL     1     -43.597  56.296 -55.686  1.00  0.00    -0.267 OA
HETATM   16  H   UNL     1     -40.503  56.307 -56.445  1.00  0.00     0.171 HD
BRANCH  14  17
HETATM   17  C   UNL     1     -42.509  57.470 -57.392  1.00  0.00     0.074 A 
HETATM   18  C   UNL     1     -42.647  57.134 -58.730  1.00  0.00     0.027 A 
HETATM   19  C   UNL     1     -42.561  58.263 -59.596  1.00  0.00     0.033 A 
HETATM   20  C   UNL     1     -42.363  59.414 -58.880  1.00  0.00     0.075 A 
HETATM   21  S   UNL     1     -42.280  59.165 -57.210  1.00  0.00    -0.072 SA
HETATM   22 CL   UNL     1     -42.200  61.000 -59.514  1.00  0.00    -0.076 Cl
ENDBRANCH  14  17
ENDBRANCH   1  13
TORSDOF 2
ENDMDL
MODEL 2
REMARK VINA RESULT:      -7.1      1.954      2.847
REMARK  2 active torsions:
REMARK  status: ('A' for Active; 'I' for Inactive)
REMARK    1  A    between atoms: C_2  and  C_3 
REMARK       I    between atoms: C_3  and  N_4 
REMARK    2  A    between atoms: N_4  and  C_5 
ROOT
HETATM    1  C   UNL     1     -41.392  55.404 -54.576  1.00  0.00     0.174 A 
HETATM    2  S   UNL     1     -40.944  53.791 -54.291  1.00  0.00    -0.050 SA
HETATM    3  C   UNL     1     -40.912  54.089 -52.595  1.00  0.00     0.040 A 
HETATM    4  C   UNL     1     -41.263  55.430 -52.372  1.00  0.00     0.079 A 
HETATM    5  N   UNL     1     -41.537  56.162 -53.516  1.00  0.00    -0.223 NA
HETATM    6  C   UNL     1     -40.597  53.203 -51.548  1.00  0.00     0.061 A 
HETATM    7  C   UNL     1     -40.652  53.736 -50.275  1.00  0.00     0.106 A 
HETATM    8  C   UNL     1     -40.993  55.043 -50.034  1.00  0.00     0.107 A 
HETATM    9  O   UNL     1     -40.978  55.348 -48.707  1.00  0.00    -0.323 OA
HETATM   10  C   UNL     1     -40.581  54.083 -48.140  1.00  0.00     0.352 A 
HETATM   11  O   UNL     1     -40.378  53.053 -49.129  1.00  0.00    -0.323 OA
HETATM   12  C   UNL     1     -41.309  55.925 -51.049  1.00  0.00     0.073 A 
ENDROOT
BRANCH   1  13
HETATM   13  N   UNL     1     -41.590  55.921 -55.828  1.00  0.00    -0.301 N 
HETATM   14  C   UNL     1     -42.740  56.470 -56.348  1.00  0.00     0.264 C 
HETATM   15  O   UNL     1     -43.793  56.610 -55.736  1.00  0.00    -0.267 OA
HETATM   16  H   UNL     1     -40.774  55.859 -56.421  1.00  0.00     0.171 HD
BRANCH  14  17
HETATM   17  C   UNL     1     -42.631  56.895 -57.746  1.00  0.00     0.074 A 
HETATM   18  C   UNL     1     -42.933  56.136 -58.866  1.00  0.00     0.027 A 
HETATM   19  C   UNL     1     -42.709  56.837 -60.087  1.00  0.00     0.033 A 
HETATM   20  C   UNL     1     -42.247  58.104 -59.845  1.00  0.00     0.075 A 
HETATM   21  S   UNL     1     -42.079  58.460 -58.201  1.00  0.00    -0.072 SA
HETATM   22 CL   UNL     1     -41.845  59.290 -61.019  1.00  0.00    -0.076 Cl
ENDBRANCH  14  17
ENDBRANCH   1  13
TORSDOF 2
ENDMDL
MODEL 3
REMARK VINA RESULT:      -7.1      2.960      3.469
REMARK  2 active torsions:
REMARK  status: ('A' for Active; 'I' for Inactive)
REMARK    1  A    between atoms: C_2  and  C_3 
REMARK       I    between atoms: C_3  and  N_4 
REMARK    2  A    between atoms: N_4  and  C_5 
ROOT
HETATM    1  C   UNL     1     -42.962  55.299 -55.517  1.00  0.00     0.174 A 
HETATM    2  S   UNL     1     -43.110  56.555 -54.383  1.00  0.00    -0.050 SA
HETATM    3  C   UNL     1     -42.126  55.681 -53.272  1.00  0.00     0.040 A 
HETATM    4  C   UNL     1     -41.745  54.471 -53.872  1.00  0.00     0.079 A 
HETATM    5  N   UNL     1     -42.229  54.274 -55.155  1.00  0.00    -0.223 NA
HETATM    6  C   UNL     1     -41.729  56.043 -51.971  1.00  0.00     0.061 A 
HETATM    7  C   UNL     1     -40.935  55.125 -51.312  1.00  0.00     0.106 A 
HETATM    8  C   UNL     1     -40.549  53.936 -51.879  1.00  0.00     0.107 A 
HETATM    9  O   UNL     1     -39.773  53.190 -51.045  1.00  0.00    -0.323 OA
HETATM   10  C   UNL     1     -39.720  54.043 -49.884  1.00  0.00     0.352 A 
HETATM   11  O   UNL     1     -40.450  55.276 -50.048  1.00  0.00    -0.323 OA
HETATM   12  C   UNL     1     -40.928  53.568 -53.155  1.00  0.00     0.073 A 
ENDROOT
BRANCH   1  13
HETATM   13  N   UNL     1     -43.567  55.318 -56.745  1.00  0.00    -0.301 N 
HETATM   14  C   UNL     1     -43.323  56.169 -57.799  1.00  0.00     0.264 C 
HETATM   15  O   UNL     1     -42.474  57.054 -57.808  1.00  0.00    -0.267 OA
HETATM   16  H   UNL     1     -44.288  54.617 -56.848  1.00  0.00     0.171 HD
BRANCH  14  17
HETATM   17  C   UNL     1     -44.179  55.948 -58.967  1.00  0.00     0.074 A 
HETATM   18  C   UNL     1     -43.965  55.031 -59.985  1.00  0.00     0.027 A 
HETATM   19  C   UNL     1     -44.980  55.069 -60.987  1.00  0.00     0.033 A 
HETATM   20  C   UNL     1     -45.926  56.014 -60.688  1.00  0.00     0.075 A 
HETATM   21  S   UNL     1     -45.620  56.844 -59.246  1.00  0.00    -0.072 SA
HETATM   22 CL   UNL     1     -47.318  56.400 -61.614  1.00  0.00    -0.076 Cl
ENDBRANCH  14  17
ENDBRANCH   1  13
TORSDOF 2
ENDMDL
MODEL 4
REMARK VINA RESULT:      -7.0      4.142      4.707
REMARK  2 active torsions:
REMARK  status: ('A' for Active; 'I' for Inactive)
REMARK    1  A    between atoms: C_2  and  C_3 
REMARK       I    between atoms: C_3  and  N_4 
REMARK    2  A    between atoms: N_4  and  C_5 
ROOT
HETATM    1  C   UNL     1     -41.352  56.071 -51.885  1.00  0.00     0.174 A 
HETATM    2  S   UNL     1     -40.815  55.122 -50.583  1.00  0.00    -0.050 SA
HETATM    3  C   UNL     1     -40.530  53.801 -51.650  1.00  0.00     0.040 A 
HETATM    4  C   UNL     1     -40.868  54.200 -52.953  1.00  0.00     0.079 A 
HETATM    5  N   UNL     1     -41.331  55.500 -53.065  1.00  0.00    -0.223 NA
HETATM    6  C   UNL     1     -40.047  52.513 -51.353  1.00  0.00     0.061 A 
HETATM    7  C   UNL     1     -39.927  51.655 -52.429  1.00  0.00     0.106 A 
HETATM    8  C   UNL     1     -40.250  52.024 -53.710  1.00  0.00     0.107 A 
HETATM    9  O   UNL     1     -40.055  51.017 -54.605  1.00  0.00    -0.323 OA
HETATM   10  C   UNL     1     -39.578  49.968 -53.739  1.00  0.00     0.352 A 
HETATM   11  O   UNL     1     -39.487  50.368 -52.356  1.00  0.00    -0.323 OA
HETATM   12  C   UNL     1     -40.722  53.285 -54.020  1.00  0.00     0.073 A 
ENDROOT
BRANCH   1  13
HETATM   13  N   UNL     1     -41.797  57.358 -51.745  1.00  0.00    -0.301 N 
HETATM   14  C   UNL     1     -41.170  58.520 -52.134  1.00  0.00     0.264 C 
HETATM   15  O   UNL     1     -40.090  58.578 -52.712  1.00  0.00    -0.267 OA
HETATM   16  H   UNL     1     -42.693  57.424 -51.281  1.00  0.00     0.171 HD
BRANCH  14  17
HETATM   17  C   UNL     1     -41.902  59.744 -51.799  1.00  0.00     0.074 A 
HETATM   18  C   UNL     1     -42.040  60.305 -50.539  1.00  0.00     0.027 A 
HETATM   19  C   UNL     1     -42.823  61.496 -50.545  1.00  0.00     0.033 A 
HETATM   20  C   UNL     1     -43.248  61.794 -51.813  1.00  0.00     0.075 A 
HETATM   21  S   UNL     1     -42.729  60.684 -52.978  1.00  0.00    -0.072 SA
HETATM   22 CL   UNL     1     -44.213  63.133 -52.283  1.00  0.00    -0.076 Cl
ENDBRANCH  14  17
ENDBRANCH   1  13
TORSDOF 2
ENDMDL
MODEL 5
REMARK VINA RESULT:      -7.0      2.674      3.277
REMARK  2 active torsions:
REMARK  status: ('A' for Active; 'I' for Inactive)
REMARK    1  A    between atoms: C_2  and  C_3 
REMARK       I    between atoms: C_3  and  N_4 
REMARK    2  A    between atoms: N_4  and  C_5 
ROOT
HETATM    1  C   UNL     1     -42.678  54.776 -55.019  1.00  0.00     0.174 A 
HETATM    2  S   UNL     1     -41.206  53.936 -54.911  1.00  0.00    -0.050 SA
HETATM    3  C   UNL     1     -41.290  53.990 -53.192  1.00  0.00     0.040 A 
HETATM    4  C   UNL     1     -42.470  54.655 -52.824  1.00  0.00     0.079 A 
HETATM    5  N   UNL     1     -43.250  55.092 -53.882  1.00  0.00    -0.223 NA
HETATM    6  C   UNL     1     -40.378  53.484 -52.247  1.00  0.00     0.061 A 
HETATM    7  C   UNL     1     -40.716  53.685 -50.922  1.00  0.00     0.106 A 
HETATM    8  C   UNL     1     -41.864  54.331 -50.540  1.00  0.00     0.107 A 
HETATM    9  O   UNL     1     -41.987  54.416 -49.187  1.00  0.00    -0.323 OA
HETATM   10  C   UNL     1     -40.779  53.754 -48.760  1.00  0.00     0.352 A 
HETATM   11  O   UNL     1     -39.970  53.281 -49.856  1.00  0.00    -0.323 OA
HETATM   12  C   UNL     1     -42.771  54.831 -51.455  1.00  0.00     0.073 A 
ENDROOT
BRANCH   1  13
HETATM   13  N   UNL     1     -43.259  55.128 -56.208  1.00  0.00    -0.301 N 
HETATM   14  C   UNL     1     -43.015  56.244 -56.975  1.00  0.00     0.264 C 
HETATM   15  O   UNL     1     -42.188  57.111 -56.714  1.00  0.00    -0.267 OA
HETATM   16  H   UNL     1     -43.960  54.470 -56.521  1.00  0.00     0.171 HD
BRANCH  14  17
HETATM   17  C   UNL     1     -43.842  56.344 -58.180  1.00  0.00     0.074 A 
HETATM   18  C   UNL     1     -43.762  55.538 -59.305  1.00  0.00     0.027 A 
HETATM   19  C   UNL     1     -44.702  55.900 -60.314  1.00  0.00     0.033 A 
HETATM   20  C   UNL     1     -45.461  56.968 -59.914  1.00  0.00     0.075 A 
HETATM   21  S   UNL     1     -45.069  57.534 -58.369  1.00  0.00    -0.072 SA
HETATM   22 CL   UNL     1     -46.708  57.733 -60.811  1.00  0.00    -0.076 Cl
ENDBRANCH  14  17
ENDBRANCH   1  13
TORSDOF 2
ENDMDL
MODEL 6
REMARK VINA RESULT:      -6.9      5.211      8.575
REMARK  2 active torsions:
REMARK  status: ('A' for Active; 'I' for Inactive)
REMARK    1  A    between atoms: C_2  and  C_3 
REMARK       I    between atoms: C_3  and  N_4 
REMARK    2  A    between atoms: N_4  and  C_5 
ROOT
HETATM    1  C   UNL     1     -42.261  56.034 -52.170  1.00  0.00     0.174 A 
HETATM    2  S   UNL     1     -41.519  57.483 -52.653  1.00  0.00    -0.050 SA
HETATM    3  C   UNL     1     -42.879  58.379 -52.093  1.00  0.00     0.040 A 
HETATM    4  C   UNL     1     -43.815  57.479 -51.559  1.00  0.00     0.079 A 
HETATM    5  N   UNL     1     -43.441  56.146 -51.609  1.00  0.00    -0.223 NA
HETATM    6  C   UNL     1     -43.096  59.769 -52.127  1.00  0.00     0.061 A 
HETATM    7  C   UNL     1     -44.299  60.200 -51.602  1.00  0.00     0.106 A 
HETATM    8  C   UNL     1     -45.228  59.339 -51.075  1.00  0.00     0.107 A 
HETATM    9  O   UNL     1     -46.336  59.985 -50.620  1.00  0.00    -0.323 OA
HETATM   10  C   UNL     1     -46.001  61.354 -50.928  1.00  0.00     0.352 A 
HETATM   11  O   UNL     1     -44.706  61.498 -51.546  1.00  0.00    -0.323 OA
HETATM   12  C   UNL     1     -45.029  57.973 -51.030  1.00  0.00     0.073 A 
ENDROOT
BRANCH   1  13
HETATM   13  N   UNL     1     -41.694  54.801 -52.349  1.00  0.00    -0.301 N 
HETATM   14  C   UNL     1     -40.799  54.152 -51.530  1.00  0.00     0.264 C 
HETATM   15  O   UNL     1     -40.380  54.584 -50.461  1.00  0.00    -0.267 OA
HETATM   16  H   UNL     1     -41.979  54.349 -53.207  1.00  0.00     0.171 HD
BRANCH  14  17
HETATM   17  C   UNL     1     -40.350  52.851 -52.033  1.00  0.00     0.074 A 
HETATM   18  C   UNL     1     -39.815  51.816 -51.282  1.00  0.00     0.027 A 
HETATM   19  C   UNL     1     -39.466  50.681 -52.073  1.00  0.00     0.033 A 
HETATM   20  C   UNL     1     -39.752  50.901 -53.394  1.00  0.00     0.075 A 
HETATM   21  S   UNL     1     -40.423  52.423 -53.697  1.00  0.00    -0.072 SA
HETATM   22 CL   UNL     1     -39.495  49.809 -54.694  1.00  0.00    -0.076 Cl
ENDBRANCH  14  17
ENDBRANCH   1  13
TORSDOF 2
ENDMDL
MODEL 7
REMARK VINA RESULT:      -6.9      5.723      8.670
REMARK  2 active torsions:
REMARK  status: ('A' for Active; 'I' for Inactive)
REMARK    1  A    between atoms: C_2  and  C_3 
REMARK       I    between atoms: C_3  and  N_4 
REMARK    2  A    between atoms: N_4  and  C_5 
ROOT
HETATM    1  C   UNL     1     -42.120  56.375 -51.568  1.00  0.00     0.174 A 
HETATM    2  S   UNL     1     -41.251  57.834 -51.578  1.00  0.00    -0.050 SA
HETATM    3  C   UNL     1     -42.710  58.716 -51.334  1.00  0.00     0.040 A 
HETATM    4  C   UNL     1     -43.774  57.804 -51.254  1.00  0.00     0.079 A 
HETATM    5  N   UNL     1     -43.415  56.472 -51.386  1.00  0.00    -0.223 NA
HETATM    6  C   UNL     1     -42.894  60.107 -51.226  1.00  0.00     0.061 A 
HETATM    7  C   UNL     1     -44.197  60.526 -51.037  1.00  0.00     0.106 A 
HETATM    8  C   UNL     1     -45.251  59.652 -50.955  1.00  0.00     0.107 A 
HETATM    9  O   UNL     1     -46.441  60.288 -50.772  1.00  0.00    -0.323 OA
HETATM   10  C   UNL     1     -46.015  61.666 -50.754  1.00  0.00     0.352 A 
HETATM   11  O   UNL     1     -44.590  61.824 -50.915  1.00  0.00    -0.323 OA
HETATM   12  C   UNL     1     -45.088  58.284 -51.056  1.00  0.00     0.073 A 
ENDROOT
BRANCH   1  13
HETATM   13  N   UNL     1     -41.536  55.149 -51.746  1.00  0.00    -0.301 N 
HETATM   14  C   UNL     1     -40.915  54.661 -52.872  1.00  0.00     0.264 C 
HETATM   15  O   UNL     1     -40.760  55.283 -53.918  1.00  0.00    -0.267 OA
HETATM   16  H   UNL     1     -41.603  54.552 -50.933  1.00  0.00     0.171 HD
BRANCH  14  17
HETATM   17  C   UNL     1     -40.427  53.285 -52.747  1.00  0.00     0.074 A 
HETATM   18  C   UNL     1     -40.175  52.401 -53.785  1.00  0.00     0.027 A 
HETATM   19  C   UNL     1     -39.716  51.129 -53.330  1.00  0.00     0.033 A 
HETATM   20  C   UNL     1     -39.638  51.099 -51.963  1.00  0.00     0.075 A 
HETATM   21  S   UNL     1     -40.097  52.550 -51.227  1.00  0.00    -0.072 SA
HETATM   22 CL   UNL     1     -39.137  49.774 -50.994  1.00  0.00    -0.076 Cl
ENDBRANCH  14  17
ENDBRANCH   1  13
TORSDOF 2
ENDMDL
MODEL 8
REMARK VINA RESULT:      -6.9      4.075      4.659
REMARK  2 active torsions:
REMARK  status: ('A' for Active; 'I' for Inactive)
REMARK    1  A    between atoms: C_2  and  C_3 
REMARK       I    between atoms: C_3  and  N_4 
REMARK    2  A    between atoms: N_4  and  C_5 
ROOT
HETATM    1  C   UNL     1     -41.403  55.985 -52.774  1.00  0.00     0.174 A 
HETATM    2  S   UNL     1     -41.169  55.351 -54.332  1.00  0.00    -0.050 SA
HETATM    3  C   UNL     1     -40.670  53.848 -53.656  1.00  0.00     0.040 A 
HETATM    4  C   UNL     1     -40.730  53.946 -52.257  1.00  0.00     0.079 A 
HETATM    5  N   UNL     1     -41.154  55.174 -51.775  1.00  0.00    -0.223 NA
HETATM    6  C   UNL     1     -40.256  52.676 -54.317  1.00  0.00     0.061 A 
HETATM    7  C   UNL     1     -39.905  51.619 -53.498  1.00  0.00     0.106 A 
HETATM    8  C   UNL     1     -39.958  51.694 -52.130  1.00  0.00     0.107 A 
HETATM    9  O   UNL     1     -39.565  50.536 -51.531  1.00  0.00    -0.323 OA
HETATM   10  C   UNL     1     -39.253  49.725 -52.681  1.00  0.00     0.352 A 
HETATM   11  O   UNL     1     -39.473  50.404 -53.934  1.00  0.00    -0.323 OA
HETATM   12  C   UNL     1     -40.365  52.835 -51.466  1.00  0.00     0.073 A 
ENDROOT
BRANCH   1  13
HETATM   13  N   UNL     1     -41.817  57.268 -52.538  1.00  0.00    -0.301 N 
HETATM   14  C   UNL     1     -41.117  58.436 -52.736  1.00  0.00     0.264 C 
HETATM   15  O   UNL     1     -39.983  58.509 -53.198  1.00  0.00    -0.267 OA
HETATM   16  H   UNL     1     -42.751  57.324 -52.157  1.00  0.00     0.171 HD
BRANCH  14  17
HETATM   17  C   UNL     1     -41.837  59.650 -52.342  1.00  0.00     0.074 A 
HETATM   18  C   UNL     1     -42.451  60.558 -53.191  1.00  0.00     0.027 A 
HETATM   19  C   UNL     1     -43.061  61.643 -52.493  1.00  0.00     0.033 A 
HETATM   20  C   UNL     1     -42.887  61.513 -51.141  1.00  0.00     0.075 A 
HETATM   21  S   UNL     1     -42.018  60.131 -50.700  1.00  0.00    -0.072 SA
HETATM   22 CL   UNL     1     -43.452  62.587 -49.927  1.00  0.00    -0.076 Cl
ENDBRANCH  14  17
ENDBRANCH   1  13
TORSDOF 2
ENDMDL
MODEL 9
REMARK VINA RESULT:      -6.9      4.343      4.843
REMARK  2 active torsions:
REMARK  status: ('A' for Active; 'I' for Inactive)
REMARK    1  A    between atoms: C_2  and  C_3 
REMARK       I    between atoms: C_3  and  N_4 
REMARK    2  A    between atoms: N_4  and  C_5 
ROOT
HETATM    1  C   UNL     1     -41.392  56.125 -51.865  1.00  0.00     0.174 A 
HETATM    2  S   UNL     1     -40.843  55.180 -50.565  1.00  0.00    -0.050 SA
HETATM    3  C   UNL     1     -40.549  53.862 -51.634  1.00  0.00     0.040 A 
HETATM    4  C   UNL     1     -40.894  54.259 -52.936  1.00  0.00     0.079 A 
HETATM    5  N   UNL     1     -41.369  55.556 -53.046  1.00  0.00    -0.223 NA
HETATM    6  C   UNL     1     -40.054  52.578 -51.339  1.00  0.00     0.061 A 
HETATM    7  C   UNL     1     -39.930  51.722 -52.416  1.00  0.00     0.106 A 
HETATM    8  C   UNL     1     -40.260  52.089 -53.695  1.00  0.00     0.107 A 
HETATM    9  O   UNL     1     -40.060  51.085 -54.592  1.00  0.00    -0.323 OA
HETATM   10  C   UNL     1     -39.571  50.039 -53.728  1.00  0.00     0.352 A 
HETATM   11  O   UNL     1     -39.479  50.439 -52.345  1.00  0.00    -0.323 OA
HETATM   12  C   UNL     1     -40.744  53.346 -54.003  1.00  0.00     0.073 A 
ENDROOT
BRANCH   1  13
HETATM   13  N   UNL     1     -41.847  57.408 -51.723  1.00  0.00    -0.301 N 
HETATM   14  C   UNL     1     -43.116  57.827 -51.395  1.00  0.00     0.264 C 
HETATM   15  O   UNL     1     -44.060  57.086 -51.142  1.00  0.00    -0.267 OA
HETATM   16  H   UNL     1     -41.140  58.107 -51.906  1.00  0.00     0.171 HD
BRANCH  14  17
HETATM   17  C   UNL     1     -43.285  59.282 -51.366  1.00  0.00     0.074 A 
HETATM   18  C   UNL     1     -44.232  60.017 -52.063  1.00  0.00     0.027 A 
HETATM   19  C   UNL     1     -44.128  61.420 -51.827  1.00  0.00     0.033 A 
HETATM   20  C   UNL     1     -43.106  61.694 -50.957  1.00  0.00     0.075 A 
HETATM   21  S   UNL     1     -42.281  60.316 -50.427  1.00  0.00    -0.072 SA
HETATM   22 CL   UNL     1     -42.624  63.243 -50.398  1.00  0.00    -0.076 Cl
ENDBRANCH  14  17
ENDBRANCH   1  13
TORSDOF 2
ENDMDL
MODEL 10
REMARK VINA RESULT:      -6.8      5.833      8.681
REMARK  2 active torsions:
REMARK  status: ('A' for Active; 'I' for Inactive)
REMARK    1  A    between atoms: C_2  and  C_3 
REMARK       I    between atoms: C_3  and  N_4 
REMARK    2  A    between atoms: N_4  and  C_5 
ROOT
HETATM    1  C   UNL     1     -42.141  56.523 -51.698  1.00  0.00     0.174 A 
HETATM    2  S   UNL     1     -43.796  56.821 -51.932  1.00  0.00    -0.050 SA
HETATM    3  C   UNL     1     -43.574  58.468 -51.482  1.00  0.00     0.040 A 
HETATM    4  C   UNL     1     -42.217  58.670 -51.188  1.00  0.00     0.079 A 
HETATM    5  N   UNL     1     -41.415  57.548 -51.321  1.00  0.00    -0.223 NA
HETATM    6  C   UNL     1     -44.531  59.497 -51.395  1.00  0.00     0.061 A 
HETATM    7  C   UNL     1     -44.050  60.729 -50.995  1.00  0.00     0.106 A 
HETATM    8  C   UNL     1     -42.728  60.949 -50.704  1.00  0.00     0.107 A 
HETATM    9  O   UNL     1     -42.485  62.235 -50.330  1.00  0.00    -0.323 OA
HETATM   10  C   UNL     1     -43.809  62.799 -50.413  1.00  0.00     0.352 A 
HETATM   11  O   UNL     1     -44.807  61.850 -50.842  1.00  0.00    -0.323 OA
HETATM   12  C   UNL     1     -41.775  59.951 -50.788  1.00  0.00     0.073 A 
ENDROOT
BRANCH   1  13
HETATM   13  N   UNL     1     -41.565  55.294 -51.874  1.00  0.00    -0.301 N 
HETATM   14  C   UNL     1     -40.906  54.816 -52.983  1.00  0.00     0.264 C 
HETATM   15  O   UNL     1     -40.703  55.453 -54.011  1.00  0.00    -0.267 OA
HETATM   16  H   UNL     1     -41.671  54.683 -51.075  1.00  0.00     0.171 HD
BRANCH  14  17
HETATM   17  C   UNL     1     -40.440  53.432 -52.863  1.00  0.00     0.074 A 
HETATM   18  C   UNL     1     -40.194  52.550 -53.904  1.00  0.00     0.027 A 
HETATM   19  C   UNL     1     -39.758  51.269 -53.454  1.00  0.00     0.033 A 
HETATM   20  C   UNL     1     -39.688  51.231 -52.086  1.00  0.00     0.075 A 
HETATM   21  S   UNL     1     -40.131  52.685 -51.345  1.00  0.00    -0.072 SA
HETATM   22 CL   UNL     1     -39.214  49.892 -51.122  1.00  0.00    -0.076 Cl
ENDBRANCH  14  17
ENDBRANCH   1  13
TORSDOF 2
ENDMDL
