MODEL 1
REMARK VINA RESULT:      -8.0      0.000      0.000
REMARK  9 active torsions:
REMARK  status: ('A' for Active; 'I' for Inactive)
REMARK    1  A    between atoms: C_6  and  N_7 
REMARK    2  A    between atoms: N_7  and  C_8 
REMARK    3  A    between atoms: C_10  and  S_11 
REMARK    4  A    between atoms: S_11  and  C_12 
REMARK    5  A    between atoms: C_15  and  N_16 
REMARK       I    between atoms: N_16  and  C_17 
REMARK    6  A    between atoms: C_17  and  C_18 
REMARK    7  A    between atoms: C_25  and  N_26 
REMARK    8  A    between atoms: C_34  and  C_35 
REMARK    9  A    between atoms: C_35  and  O_36 
ROOT
HETATM    1  C   UNL     1     -42.943  56.853 -56.956  1.00  0.00     0.152 A 
HETATM    2  N   UNL     1     -43.072  57.713 -55.930  1.00  0.00    -0.204 NA
HETATM    3  C   UNL     1     -43.881  58.766 -56.067  1.00  0.00     0.196 A 
HETATM    4  N   UNL     1     -44.618  59.007 -57.160  1.00  0.00    -0.209 NA
HETATM    5  C   UNL     1     -44.542  58.133 -58.182  1.00  0.00     0.128 A 
HETATM    6  C   UNL     1     -43.681  57.032 -58.125  1.00  0.00     0.125 A 
ENDROOT
BRANCH   3   7
HETATM    7  S   UNL     1     -43.909  59.892 -54.697  1.00  0.00    -0.050 SA
BRANCH   7   8
HETATM    8  C   UNL     1     -43.406  58.948 -53.277  1.00  0.00     0.008 A 
HETATM    9  C   UNL     1     -44.284  58.145 -52.544  1.00  0.00     0.021 A 
HETATM   10  C   UNL     1     -43.822  57.376 -51.469  1.00  0.00     0.031 A 
HETATM   11  C   UNL     1     -42.468  57.365 -51.137  1.00  0.00     0.034 A 
HETATM   12  C   UNL     1     -41.580  58.138 -51.889  1.00  0.00     0.031 A 
HETATM   13  C   UNL     1     -42.047  58.932 -52.942  1.00  0.00     0.021 A 
BRANCH  11  14
HETATM   14  N   UNL     1     -41.929  56.567 -50.111  1.00  0.00    -0.327 N 
HETATM   15  C   UNL     1     -41.841  55.193 -50.096  1.00  0.00     0.226 C 
HETATM   16  O   UNL     1     -42.337  54.420 -50.905  1.00  0.00    -0.273 OA
HETATM   17  H   UNL     1     -41.595  57.057 -49.292  1.00  0.00     0.169 HD
BRANCH  15  18
HETATM   18  C   UNL     1     -41.060  54.630 -48.956  1.00  0.00     0.078 A 
HETATM   19  C   UNL     1     -40.638  53.186 -48.820  1.00  0.00     0.015 A 
HETATM   20  C   UNL     1     -39.621  54.226 -49.186  1.00  0.00     0.015 A 
ENDBRANCH  15  18
ENDBRANCH  11  14
ENDBRANCH   7   8
ENDBRANCH   3   7
BRANCH   1  21
HETATM   21  N   UNL     1     -42.087  55.749 -56.789  1.00  0.00    -0.323 N 
HETATM   22  H   UNL     1     -41.306  55.728 -57.435  1.00  0.00     0.169 HD
BRANCH  21  23
HETATM   23  C   UNL     1     -41.928  54.911 -55.745  1.00  0.00     0.151 A 
HETATM   24  N   UNL     1     -42.956  54.546 -54.975  1.00  0.00    -0.157 NA
HETATM   25  N   UNL     1     -42.405  53.754 -54.040  1.00  0.00    -0.281 N 
HETATM   26  C   UNL     1     -41.052  53.620 -54.162  1.00  0.00     0.027 A 
HETATM   27  H   UNL     1     -43.015  53.346 -53.339  1.00  0.00     0.189 HD
HETATM   28  C   UNL     1     -40.236  52.823 -53.221  1.00  0.00     0.070 C 
HETATM   29  C   UNL     1     -40.715  54.363 -55.271  1.00  0.00     0.078 A 
ENDBRANCH  21  23
ENDBRANCH   1  21
BRANCH   5  30
HETATM   30  N   UNL     1     -45.359  58.398 -59.293  1.00  0.00    -0.264 NA
HETATM   31  C   UNL     1     -46.689  57.762 -59.267  1.00  0.00     0.125 C 
HETATM   32  C   UNL     1     -47.284  57.781 -60.691  1.00  0.00     0.249 C 
HETATM   33  N   UNL     1     -47.357  59.215 -61.219  1.00  0.00    -0.073 N 
HETATM   34  H   UNL     1     -47.988  59.740 -60.599  1.00  0.00     0.279 HD
HETATM   35  C   UNL     1     -47.929  59.263 -62.604  1.00  0.00     0.269 C 
HETATM   36  C   UNL     1     -45.989  59.902 -61.146  1.00  0.00     0.249 C 
HETATM   37  C   UNL     1     -45.396  59.811 -59.723  1.00  0.00     0.125 C 
ENDBRANCH   5  30
BRANCH   6  38
HETATM   38  C   UNL     1     -43.510  56.155 -59.299  1.00  0.00     0.300 C 
HETATM   39  O   UNL     1     -42.900  56.462 -60.310  1.00  0.00    -0.259 OA
BRANCH  38  40
HETATM   40  O   UNL     1     -44.216  55.014 -59.116  1.00  0.00    -0.322 OA
HETATM   41  C   UNL     1     -44.991  54.559 -60.231  1.00  0.00     0.213 C 
ENDBRANCH  38  40
ENDBRANCH   6  38
TORSDOF 9
ENDMDL
MODEL 2
REMARK VINA RESULT:      -7.8      1.140      1.321
REMARK  9 active torsions:
REMARK  status: ('A' for Active; 'I' for Inactive)
REMARK    1  A    between atoms: C_6  and  N_7 
REMARK    2  A    between atoms: N_7  and  C_8 
REMARK    3  A    between atoms: C_10  and  S_11 
REMARK    4  A    between atoms: S_11  and  C_12 
REMARK    5  A    between atoms: C_15  and  N_16 
REMARK       I    between atoms: N_16  and  C_17 
REMARK    6  A    between atoms: C_17  and  C_18 
REMARK    7  A    between atoms: C_25  and  N_26 
REMARK    8  A    between atoms: C_34  and  C_35 
REMARK    9  A    between atoms: C_35  and  O_36 
ROOT
HETATM    1  C   UNL     1     -42.640  57.051 -57.107  1.00  0.00     0.152 A 
HETATM    2  N   UNL     1     -42.466  57.946 -56.117  1.00  0.00    -0.204 NA
HETATM    3  C   UNL     1     -42.746  59.230 -56.350  1.00  0.00     0.196 A 
HETATM    4  N   UNL     1     -43.238  59.691 -57.508  1.00  0.00    -0.209 NA
HETATM    5  C   UNL     1     -43.468  58.806 -58.497  1.00  0.00     0.128 A 
HETATM    6  C   UNL     1     -43.155  57.453 -58.338  1.00  0.00     0.125 A 
ENDROOT
BRANCH   3   7
HETATM    7  S   UNL     1     -42.391  60.344 -55.017  1.00  0.00    -0.050 SA
BRANCH   7   8
HETATM    8  C   UNL     1     -42.146  59.326 -53.580  1.00  0.00     0.008 A 
HETATM    9  C   UNL     1     -43.192  58.683 -52.912  1.00  0.00     0.021 A 
HETATM   10  C   UNL     1     -42.936  57.846 -51.820  1.00  0.00     0.031 A 
HETATM   11  C   UNL     1     -41.626  57.603 -51.406  1.00  0.00     0.034 A 
HETATM   12  C   UNL     1     -40.575  58.214 -52.092  1.00  0.00     0.031 A 
HETATM   13  C   UNL     1     -40.833  59.078 -53.162  1.00  0.00     0.021 A 
BRANCH  11  14
HETATM   14  N   UNL     1     -41.296  56.723 -50.358  1.00  0.00    -0.327 N 
HETATM   15  C   UNL     1     -41.799  55.457 -50.156  1.00  0.00     0.226 C 
HETATM   16  O   UNL     1     -42.718  54.929 -50.770  1.00  0.00    -0.273 OA
HETATM   17  H   UNL     1     -40.641  57.071 -49.672  1.00  0.00     0.169 HD
BRANCH  15  18
HETATM   18  C   UNL     1     -41.134  54.688 -49.064  1.00  0.00     0.078 A 
HETATM   19  C   UNL     1     -40.772  53.223 -49.128  1.00  0.00     0.015 A 
HETATM   20  C   UNL     1     -39.695  54.260 -49.245  1.00  0.00     0.015 A 
ENDBRANCH  15  18
ENDBRANCH  11  14
ENDBRANCH   7   8
ENDBRANCH   3   7
BRANCH   1  21
HETATM   21  N   UNL     1     -42.341  55.704 -56.838  1.00  0.00    -0.323 N 
HETATM   22  H   UNL     1     -41.964  55.197 -57.631  1.00  0.00     0.169 HD
BRANCH  21  23
HETATM   23  C   UNL     1     -42.155  55.061 -55.668  1.00  0.00     0.151 A 
HETATM   24  N   UNL     1     -43.149  54.894 -54.793  1.00  0.00    -0.157 NA
HETATM   25  N   UNL     1     -42.577  54.257 -53.758  1.00  0.00    -0.281 N 
HETATM   26  C   UNL     1     -41.240  54.035 -53.921  1.00  0.00     0.027 A 
HETATM   27  H   UNL     1     -43.161  54.014 -52.964  1.00  0.00     0.189 HD
HETATM   28  C   UNL     1     -40.403  53.381 -52.893  1.00  0.00     0.070 C 
HETATM   29  C   UNL     1     -40.939  54.547 -55.163  1.00  0.00     0.078 A 
ENDBRANCH  21  23
ENDBRANCH   1  21
BRANCH   5  30
HETATM   30  N   UNL     1     -44.021  59.322 -59.680  1.00  0.00    -0.264 NA
HETATM   31  C   UNL     1     -45.423  59.770 -59.581  1.00  0.00     0.125 C 
HETATM   32  C   UNL     1     -46.012  59.898 -61.001  1.00  0.00     0.249 C 
HETATM   33  N   UNL     1     -45.172  60.862 -61.843  1.00  0.00    -0.073 N 
HETATM   34  H   UNL     1     -45.217  61.784 -61.391  1.00  0.00     0.279 HD
HETATM   35  C   UNL     1     -45.720  61.002 -63.230  1.00  0.00     0.269 C 
HETATM   36  C   UNL     1     -43.697  60.443 -61.855  1.00  0.00     0.249 C 
HETATM   37  C   UNL     1     -43.157  60.265 -60.419  1.00  0.00     0.125 C 
ENDBRANCH   5  30
BRANCH   6  38
HETATM   38  C   UNL     1     -43.290  56.516 -59.471  1.00  0.00     0.300 C 
HETATM   39  O   UNL     1     -42.488  56.415 -60.385  1.00  0.00    -0.259 OA
BRANCH  38  40
HETATM   40  O   UNL     1     -44.478  55.872 -59.384  1.00  0.00    -0.322 OA
HETATM   41  C   UNL     1     -44.479  54.488 -59.754  1.00  0.00     0.213 C 
ENDBRANCH  38  40
ENDBRANCH   6  38
TORSDOF 9
ENDMDL
MODEL 3
REMARK VINA RESULT:      -7.6      3.594      7.322
REMARK  9 active torsions:
REMARK  status: ('A' for Active; 'I' for Inactive)
REMARK    1  A    between atoms: C_6  and  N_7 
REMARK    2  A    between atoms: N_7  and  C_8 
REMARK    3  A    between atoms: C_10  and  S_11 
REMARK    4  A    between atoms: S_11  and  C_12 
REMARK    5  A    between atoms: C_15  and  N_16 
REMARK       I    between atoms: N_16  and  C_17 
REMARK    6  A    between atoms: C_17  and  C_18 
REMARK    7  A    between atoms: C_25  and  N_26 
REMARK    8  A    between atoms: C_34  and  C_35 
REMARK    9  A    between atoms: C_35  and  O_36 
ROOT
HETATM    1  C   UNL     1     -42.450  57.173 -55.771  1.00  0.00     0.152 A 
HETATM    2  N   UNL     1     -43.257  58.230 -55.567  1.00  0.00    -0.204 NA
HETATM    3  C   UNL     1     -43.665  58.501 -54.324  1.00  0.00     0.196 A 
HETATM    4  N   UNL     1     -43.287  57.807 -53.243  1.00  0.00    -0.209 NA
HETATM    5  C   UNL     1     -42.440  56.774 -53.418  1.00  0.00     0.128 A 
HETATM    6  C   UNL     1     -42.008  56.405 -54.695  1.00  0.00     0.125 A 
ENDROOT
BRANCH   3   7
HETATM    7  S   UNL     1     -44.802  59.854 -54.172  1.00  0.00    -0.050 SA
BRANCH   7   8
HETATM    8  C   UNL     1     -45.014  60.122 -52.427  1.00  0.00     0.008 A 
HETATM    9  C   UNL     1     -45.807  59.303 -51.620  1.00  0.00     0.021 A 
HETATM   10  C   UNL     1     -45.892  59.524 -50.240  1.00  0.00     0.031 A 
HETATM   11  C   UNL     1     -45.151  60.543 -49.640  1.00  0.00     0.034 A 
HETATM   12  C   UNL     1     -44.329  61.341 -50.437  1.00  0.00     0.031 A 
HETATM   13  C   UNL     1     -44.270  61.141 -51.821  1.00  0.00     0.021 A 
BRANCH  11  14
HETATM   14  N   UNL     1     -45.141  60.778 -48.253  1.00  0.00    -0.327 N 
HETATM   15  C   UNL     1     -46.103  61.440 -47.522  1.00  0.00     0.226 C 
HETATM   16  O   UNL     1     -47.063  62.056 -47.967  1.00  0.00    -0.273 OA
HETATM   17  H   UNL     1     -44.331  60.447 -47.749  1.00  0.00     0.169 HD
BRANCH  15  18
HETATM   18  C   UNL     1     -45.915  61.382 -46.044  1.00  0.00     0.078 A 
HETATM   19  C   UNL     1     -44.612  61.075 -45.344  1.00  0.00     0.015 A 
HETATM   20  C   UNL     1     -45.130  62.482 -45.364  1.00  0.00     0.015 A 
ENDBRANCH  15  18
ENDBRANCH  11  14
ENDBRANCH   7   8
ENDBRANCH   3   7
BRANCH   1  21
HETATM   21  N   UNL     1     -42.031  56.907 -57.086  1.00  0.00    -0.323 N 
HETATM   22  H   UNL     1     -41.051  56.660 -57.168  1.00  0.00     0.169 HD
BRANCH  21  23
HETATM   23  C   UNL     1     -42.742  56.604 -58.191  1.00  0.00     0.151 A 
HETATM   24  N   UNL     1     -42.873  57.468 -59.200  1.00  0.00    -0.157 NA
HETATM   25  N   UNL     1     -43.665  56.833 -60.080  1.00  0.00    -0.281 N 
HETATM   26  C   UNL     1     -44.076  55.601 -59.660  1.00  0.00     0.027 A 
HETATM   27  H   UNL     1     -43.896  57.309 -60.947  1.00  0.00     0.189 HD
HETATM   28  C   UNL     1     -44.980  54.742 -60.452  1.00  0.00     0.070 C 
HETATM   29  C   UNL     1     -43.483  55.425 -58.429  1.00  0.00     0.078 A 
ENDBRANCH  21  23
ENDBRANCH   1  21
BRANCH   5  30
HETATM   30  N   UNL     1     -42.035  56.095 -52.256  1.00  0.00    -0.264 NA
HETATM   31  C   UNL     1     -41.422  56.938 -51.212  1.00  0.00     0.125 C 
HETATM   32  C   UNL     1     -40.659  56.034 -50.221  1.00  0.00     0.249 C 
HETATM   33  N   UNL     1     -41.600  54.989 -49.618  1.00  0.00    -0.073 N 
HETATM   34  H   UNL     1     -42.329  55.495 -49.098  1.00  0.00     0.279 HD
HETATM   35  C   UNL     1     -40.884  54.095 -48.652  1.00  0.00     0.269 C 
HETATM   36  C   UNL     1     -42.310  54.188 -50.714  1.00  0.00     0.249 C 
HETATM   37  C   UNL     1     -43.012  55.124 -51.723  1.00  0.00     0.125 C 
ENDBRANCH   5  30
BRANCH   6  38
HETATM   38  C   UNL     1     -41.185  55.194 -54.886  1.00  0.00     0.300 C 
HETATM   39  O   UNL     1     -39.966  55.186 -54.931  1.00  0.00    -0.259 OA
BRANCH  38  40
HETATM   40  O   UNL     1     -41.993  54.129 -55.102  1.00  0.00    -0.322 OA
HETATM   41  C   UNL     1     -41.674  52.933 -54.382  1.00  0.00     0.213 C 
ENDBRANCH  38  40
ENDBRANCH   6  38
TORSDOF 9
ENDMDL
MODEL 4
REMARK VINA RESULT:      -7.5      3.189      8.334
REMARK  9 active torsions:
REMARK  status: ('A' for Active; 'I' for Inactive)
REMARK    1  A    between atoms: C_6  and  N_7 
REMARK    2  A    between atoms: N_7  and  C_8 
REMARK    3  A    between atoms: C_10  and  S_11 
REMARK    4  A    between atoms: S_11  and  C_12 
REMARK    5  A    between atoms: C_15  and  N_16 
REMARK       I    between atoms: N_16  and  C_17 
REMARK    6  A    between atoms: C_17  and  C_18 
REMARK    7  A    between atoms: C_25  and  N_26 
REMARK    8  A    between atoms: C_34  and  C_35 
REMARK    9  A    between atoms: C_35  and  O_36 
ROOT
HETATM    1  C   UNL     1     -41.419  55.262 -52.868  1.00  0.00     0.152 A 
HETATM    2  N   UNL     1     -41.844  55.153 -54.140  1.00  0.00    -0.204 NA
HETATM    3  C   UNL     1     -42.835  55.942 -54.561  1.00  0.00     0.196 A 
HETATM    4  N   UNL     1     -43.417  56.881 -53.803  1.00  0.00    -0.209 NA
HETATM    5  C   UNL     1     -42.975  57.042 -52.541  1.00  0.00     0.128 A 
HETATM    6  C   UNL     1     -41.972  56.220 -52.020  1.00  0.00     0.125 A 
ENDROOT
BRANCH   3   7
HETATM    7  S   UNL     1     -43.388  55.656 -56.221  1.00  0.00    -0.050 SA
BRANCH   7   8
HETATM    8  C   UNL     1     -43.189  57.200 -57.078  1.00  0.00     0.008 A 
HETATM    9  C   UNL     1     -43.852  58.372 -56.704  1.00  0.00     0.021 A 
HETATM   10  C   UNL     1     -43.613  59.576 -57.377  1.00  0.00     0.031 A 
HETATM   11  C   UNL     1     -42.676  59.636 -58.408  1.00  0.00     0.034 A 
HETATM   12  C   UNL     1     -41.984  58.476 -58.762  1.00  0.00     0.031 A 
HETATM   13  C   UNL     1     -42.247  57.266 -58.111  1.00  0.00     0.021 A 
BRANCH  11  14
HETATM   14  N   UNL     1     -42.342  60.825 -59.083  1.00  0.00    -0.327 N 
HETATM   15  C   UNL     1     -41.221  61.600 -58.883  1.00  0.00     0.226 C 
HETATM   16  O   UNL     1     -40.390  61.466 -57.994  1.00  0.00    -0.273 OA
HETATM   17  H   UNL     1     -43.009  61.154 -59.767  1.00  0.00     0.169 HD
BRANCH  15  18
HETATM   18  C   UNL     1     -41.043  62.707 -59.866  1.00  0.00     0.078 A 
HETATM   19  C   UNL     1     -39.717  63.177 -60.418  1.00  0.00     0.015 A 
HETATM   20  C   UNL     1     -40.637  62.367 -61.283  1.00  0.00     0.015 A 
ENDBRANCH  15  18
ENDBRANCH  11  14
ENDBRANCH   7   8
ENDBRANCH   3   7
BRANCH   1  21
HETATM   21  N   UNL     1     -40.373  54.422 -52.447  1.00  0.00    -0.323 N 
HETATM   22  H   UNL     1     -39.830  54.790 -51.675  1.00  0.00     0.169 HD
BRANCH  21  23
HETATM   23  C   UNL     1     -40.165  53.105 -52.654  1.00  0.00     0.151 A 
HETATM   24  N   UNL     1     -39.816  52.285 -51.661  1.00  0.00    -0.157 NA
HETATM   25  N   UNL     1     -39.668  51.089 -52.255  1.00  0.00    -0.281 N 
HETATM   26  C   UNL     1     -39.878  51.116 -53.603  1.00  0.00     0.027 A 
HETATM   27  H   UNL     1     -39.408  50.297 -51.676  1.00  0.00     0.189 HD
HETATM   28  C   UNL     1     -39.735  49.922 -54.462  1.00  0.00     0.070 C 
HETATM   29  C   UNL     1     -40.209  52.422 -53.890  1.00  0.00     0.078 A 
ENDBRANCH  21  23
ENDBRANCH   1  21
BRANCH   5  30
HETATM   30  N   UNL     1     -43.583  58.062 -51.791  1.00  0.00    -0.264 NA
HETATM   31  C   UNL     1     -43.050  59.419 -52.020  1.00  0.00     0.125 C 
HETATM   32  C   UNL     1     -43.492  60.334 -50.859  1.00  0.00     0.249 C 
HETATM   33  N   UNL     1     -45.017  60.343 -50.737  1.00  0.00    -0.073 N 
HETATM   34  H   UNL     1     -45.394  60.729 -51.613  1.00  0.00     0.279 HD
HETATM   35  C   UNL     1     -45.474  61.223 -49.614  1.00  0.00     0.269 C 
HETATM   36  C   UNL     1     -45.569  58.920 -50.603  1.00  0.00     0.249 C 
HETATM   37  C   UNL     1     -45.059  58.015 -51.746  1.00  0.00     0.125 C 
ENDBRANCH   5  30
BRANCH   6  38
HETATM   38  C   UNL     1     -41.586  56.319 -50.598  1.00  0.00     0.300 C 
HETATM   39  O   UNL     1     -40.931  57.231 -50.121  1.00  0.00    -0.259 OA
BRANCH  38  40
HETATM   40  O   UNL     1     -41.983  55.202 -49.944  1.00  0.00    -0.322 OA
HETATM   41  C   UNL     1     -41.105  54.718 -48.921  1.00  0.00     0.213 C 
ENDBRANCH  38  40
ENDBRANCH   6  38
TORSDOF 9
ENDMDL
MODEL 5
REMARK VINA RESULT:      -7.1      2.629      4.240
REMARK  9 active torsions:
REMARK  status: ('A' for Active; 'I' for Inactive)
REMARK    1  A    between atoms: C_6  and  N_7 
REMARK    2  A    between atoms: N_7  and  C_8 
REMARK    3  A    between atoms: C_10  and  S_11 
REMARK    4  A    between atoms: S_11  and  C_12 
REMARK    5  A    between atoms: C_15  and  N_16 
REMARK       I    between atoms: N_16  and  C_17 
REMARK    6  A    between atoms: C_17  and  C_18 
REMARK    7  A    between atoms: C_25  and  N_26 
REMARK    8  A    between atoms: C_34  and  C_35 
REMARK    9  A    between atoms: C_35  and  O_36 
ROOT
HETATM    1  C   UNL     1     -42.442  59.216 -56.468  1.00  0.00     0.152 A 
HETATM    2  N   UNL     1     -42.405  57.872 -56.410  1.00  0.00    -0.204 NA
HETATM    3  C   UNL     1     -43.019  57.167 -57.364  1.00  0.00     0.196 A 
HETATM    4  N   UNL     1     -43.642  57.714 -58.416  1.00  0.00    -0.209 NA
HETATM    5  C   UNL     1     -43.649  59.057 -58.521  1.00  0.00     0.128 A 
HETATM    6  C   UNL     1     -43.066  59.859 -57.535  1.00  0.00     0.125 A 
ENDROOT
BRANCH   3   7
HETATM    7  S   UNL     1     -42.997  55.407 -57.146  1.00  0.00    -0.050 SA
BRANCH   7   8
HETATM    8  C   UNL     1     -42.380  55.123 -55.503  1.00  0.00     0.008 A 
HETATM    9  C   UNL     1     -41.021  54.980 -55.213  1.00  0.00     0.021 A 
HETATM   10  C   UNL     1     -40.585  54.816 -53.892  1.00  0.00     0.031 A 
HETATM   11  C   UNL     1     -41.498  54.838 -52.838  1.00  0.00     0.034 A 
HETATM   12  C   UNL     1     -42.853  55.019 -53.120  1.00  0.00     0.031 A 
HETATM   13  C   UNL     1     -43.292  55.147 -54.442  1.00  0.00     0.021 A 
BRANCH  11  14
HETATM   14  N   UNL     1     -41.120  54.745 -51.485  1.00  0.00    -0.327 N 
HETATM   15  C   UNL     1     -40.242  53.837 -50.936  1.00  0.00     0.226 C 
HETATM   16  O   UNL     1     -39.743  52.870 -51.498  1.00  0.00    -0.273 OA
HETATM   17  H   UNL     1     -41.560  55.397 -50.852  1.00  0.00     0.169 HD
BRANCH  15  18
HETATM   18  C   UNL     1     -39.897  54.089 -49.506  1.00  0.00     0.078 A 
HETATM   19  C   UNL     1     -40.814  54.724 -48.488  1.00  0.00     0.015 A 
HETATM   20  C   UNL     1     -40.556  53.247 -48.437  1.00  0.00     0.015 A 
ENDBRANCH  15  18
ENDBRANCH  11  14
ENDBRANCH   7   8
ENDBRANCH   3   7
BRANCH   1  21
HETATM   21  N   UNL     1     -41.788  59.938 -55.454  1.00  0.00    -0.323 N 
HETATM   22  H   UNL     1     -41.564  60.894 -55.704  1.00  0.00     0.169 HD
BRANCH  21  23
HETATM   23  C   UNL     1     -41.699  59.707 -54.128  1.00  0.00     0.151 A 
HETATM   24  N   UNL     1     -42.343  60.465 -53.239  1.00  0.00    -0.157 NA
HETATM   25  N   UNL     1     -41.984  59.958 -52.048  1.00  0.00    -0.281 N 
HETATM   26  C   UNL     1     -41.105  58.918 -52.136  1.00  0.00     0.027 A 
HETATM   27  H   UNL     1     -42.371  60.382 -51.211  1.00  0.00     0.189 HD
HETATM   28  C   UNL     1     -40.549  58.232 -50.951  1.00  0.00     0.070 C 
HETATM   29  C   UNL     1     -40.905  58.730 -53.486  1.00  0.00     0.078 A 
ENDBRANCH  21  23
ENDBRANCH   1  21
BRANCH   5  30
HETATM   30  N   UNL     1     -44.278  59.591 -59.657  1.00  0.00    -0.264 NA
HETATM   31  C   UNL     1     -43.443  59.655 -60.872  1.00  0.00     0.125 C 
HETATM   32  C   UNL     1     -44.093  60.625 -61.879  1.00  0.00     0.249 C 
HETATM   33  N   UNL     1     -45.521  60.182 -62.202  1.00  0.00    -0.073 N 
HETATM   34  H   UNL     1     -45.464  59.253 -62.641  1.00  0.00     0.279 HD
HETATM   35  C   UNL     1     -46.179  61.110 -63.178  1.00  0.00     0.269 C 
HETATM   36  C   UNL     1     -46.352  60.020 -60.925  1.00  0.00     0.249 C 
HETATM   37  C   UNL     1     -45.644  59.091 -59.913  1.00  0.00     0.125 C 
ENDBRANCH   5  30
BRANCH   6  38
HETATM   38  C   UNL     1     -43.193  61.329 -57.595  1.00  0.00     0.300 C 
HETATM   39  O   UNL     1     -44.212  61.947 -57.336  1.00  0.00    -0.259 OA
BRANCH  38  40
HETATM   40  O   UNL     1     -42.043  61.861 -58.074  1.00  0.00    -0.322 OA
HETATM   41  C   UNL     1     -42.175  63.036 -58.883  1.00  0.00     0.213 C 
ENDBRANCH  38  40
ENDBRANCH   6  38
TORSDOF 9
ENDMDL
MODEL 6
REMARK VINA RESULT:      -6.8     17.431     21.007
REMARK  9 active torsions:
REMARK  status: ('A' for Active; 'I' for Inactive)
REMARK    1  A    between atoms: C_6  and  N_7 
REMARK    2  A    between atoms: N_7  and  C_8 
REMARK    3  A    between atoms: C_10  and  S_11 
REMARK    4  A    between atoms: S_11  and  C_12 
REMARK    5  A    between atoms: C_15  and  N_16 
REMARK       I    between atoms: N_16  and  C_17 
REMARK    6  A    between atoms: C_17  and  C_18 
REMARK    7  A    between atoms: C_25  and  N_26 
REMARK    8  A    between atoms: C_34  and  C_35 
REMARK    9  A    between atoms: C_35  and  O_36 
ROOT
HETATM    1  C   UNL     1     -33.807  40.640 -54.678  1.00  0.00     0.152 A 
HETATM    2  N   UNL     1     -34.805  41.349 -55.236  1.00  0.00    -0.204 NA
HETATM    3  C   UNL     1     -36.018  41.304 -54.680  1.00  0.00     0.196 A 
HETATM    4  N   UNL     1     -36.305  40.625 -53.561  1.00  0.00    -0.209 NA
HETATM    5  C   UNL     1     -35.309  39.948 -52.958  1.00  0.00     0.128 A 
HETATM    6  C   UNL     1     -34.025  39.913 -53.509  1.00  0.00     0.125 A 
ENDROOT
BRANCH   3   7
HETATM    7  S   UNL     1     -37.287  42.193 -55.543  1.00  0.00    -0.050 SA
BRANCH   7   8
HETATM    8  C   UNL     1     -37.444  41.407 -57.130  1.00  0.00     0.008 A 
HETATM    9  C   UNL     1     -37.030  42.005 -58.322  1.00  0.00     0.021 A 
HETATM   10  C   UNL     1     -37.122  41.318 -59.538  1.00  0.00     0.031 A 
HETATM   11  C   UNL     1     -37.589  40.004 -59.574  1.00  0.00     0.034 A 
HETATM   12  C   UNL     1     -37.969  39.388 -58.380  1.00  0.00     0.031 A 
HETATM   13  C   UNL     1     -37.909  40.087 -57.170  1.00  0.00     0.021 A 
BRANCH  11  14
HETATM   14  N   UNL     1     -37.647  39.235 -60.752  1.00  0.00    -0.327 N 
HETATM   15  C   UNL     1     -36.625  38.494 -61.303  1.00  0.00     0.226 C 
HETATM   16  O   UNL     1     -35.455  38.482 -60.943  1.00  0.00    -0.273 OA
HETATM   17  H   UNL     1     -38.523  39.251 -61.254  1.00  0.00     0.169 HD
BRANCH  15  18
HETATM   18  C   UNL     1     -37.026  37.638 -62.457  1.00  0.00     0.078 A 
HETATM   19  C   UNL     1     -38.308  37.782 -63.243  1.00  0.00     0.015 A 
HETATM   20  C   UNL     1     -37.011  38.233 -63.847  1.00  0.00     0.015 A 
ENDBRANCH  15  18
ENDBRANCH  11  14
ENDBRANCH   7   8
ENDBRANCH   3   7
BRANCH   1  21
HETATM   21  N   UNL     1     -32.537  40.703 -55.279  1.00  0.00    -0.323 N 
HETATM   22  H   UNL     1     -31.888  41.326 -54.814  1.00  0.00     0.169 HD
BRANCH  21  23
HETATM   23  C   UNL     1     -31.931  39.862 -56.142  1.00  0.00     0.151 A 
HETATM   24  N   UNL     1     -30.657  40.027 -56.505  1.00  0.00    -0.157 NA
HETATM   25  N   UNL     1     -30.432  39.036 -57.384  1.00  0.00    -0.281 N 
HETATM   26  C   UNL     1     -31.526  38.256 -57.625  1.00  0.00     0.027 A 
HETATM   27  H   UNL     1     -29.505  38.960 -57.791  1.00  0.00     0.189 HD
HETATM   28  C   UNL     1     -31.514  37.130 -58.583  1.00  0.00     0.070 C 
HETATM   29  C   UNL     1     -32.519  38.771 -56.822  1.00  0.00     0.078 A 
ENDBRANCH  21  23
ENDBRANCH   1  21
BRANCH   5  30
HETATM   30  N   UNL     1     -35.640  39.281 -51.766  1.00  0.00    -0.264 NA
HETATM   31  C   UNL     1     -36.305  40.109 -50.742  1.00  0.00     0.125 C 
HETATM   32  C   UNL     1     -36.217  39.389 -49.380  1.00  0.00     0.249 C 
HETATM   33  N   UNL     1     -36.843  37.996 -49.470  1.00  0.00    -0.073 N 
HETATM   34  H   UNL     1     -37.837  38.120 -49.705  1.00  0.00     0.279 HD
HETATM   35  C   UNL     1     -36.768  37.273 -48.160  1.00  0.00     0.269 C 
HETATM   36  C   UNL     1     -36.215  37.180 -50.605  1.00  0.00     0.249 C 
HETATM   37  C   UNL     1     -36.266  37.955 -51.942  1.00  0.00     0.125 C 
ENDBRANCH   5  30
BRANCH   6  38
HETATM   38  C   UNL     1     -32.977  39.064 -52.911  1.00  0.00     0.300 C 
HETATM   39  O   UNL     1     -32.930  37.849 -53.010  1.00  0.00    -0.259 OA
BRANCH  38  40
HETATM   40  O   UNL     1     -32.149  39.830 -52.162  1.00  0.00    -0.322 OA
HETATM   41  C   UNL     1     -32.020  39.467 -50.782  1.00  0.00     0.213 C 
ENDBRANCH  38  40
ENDBRANCH   6  38
TORSDOF 9
ENDMDL
MODEL 7
REMARK VINA RESULT:      -6.6     17.484     20.738
REMARK  9 active torsions:
REMARK  status: ('A' for Active; 'I' for Inactive)
REMARK    1  A    between atoms: C_6  and  N_7 
REMARK    2  A    between atoms: N_7  and  C_8 
REMARK    3  A    between atoms: C_10  and  S_11 
REMARK    4  A    between atoms: S_11  and  C_12 
REMARK    5  A    between atoms: C_15  and  N_16 
REMARK       I    between atoms: N_16  and  C_17 
REMARK    6  A    between atoms: C_17  and  C_18 
REMARK    7  A    between atoms: C_25  and  N_26 
REMARK    8  A    between atoms: C_34  and  C_35 
REMARK    9  A    between atoms: C_35  and  O_36 
ROOT
HETATM    1  C   UNL     1     -33.917  40.756 -54.812  1.00  0.00     0.152 A 
HETATM    2  N   UNL     1     -34.796  41.366 -55.628  1.00  0.00    -0.204 NA
HETATM    3  C   UNL     1     -36.081  41.418 -55.270  1.00  0.00     0.196 A 
HETATM    4  N   UNL     1     -36.557  40.936 -54.115  1.00  0.00    -0.209 NA
HETATM    5  C   UNL     1     -35.687  40.366 -53.259  1.00  0.00     0.128 A 
HETATM    6  C   UNL     1     -34.334  40.235 -53.589  1.00  0.00     0.125 A 
ENDROOT
BRANCH   3   7
HETATM    7  S   UNL     1     -37.175  42.154 -56.456  1.00  0.00    -0.050 SA
BRANCH   7   8
HETATM    8  C   UNL     1     -37.535  40.884 -57.646  1.00  0.00     0.008 A 
HETATM    9  C   UNL     1     -37.896  39.582 -57.288  1.00  0.00     0.021 A 
HETATM   10  C   UNL     1     -38.227  38.637 -58.266  1.00  0.00     0.031 A 
HETATM   11  C   UNL     1     -38.244  38.990 -59.615  1.00  0.00     0.034 A 
HETATM   12  C   UNL     1     -37.919  40.299 -59.976  1.00  0.00     0.031 A 
HETATM   13  C   UNL     1     -37.556  41.235 -59.001  1.00  0.00     0.021 A 
BRANCH  11  14
HETATM   14  N   UNL     1     -38.628  38.107 -60.641  1.00  0.00    -0.327 N 
HETATM   15  C   UNL     1     -39.912  37.726 -60.963  1.00  0.00     0.226 C 
HETATM   16  O   UNL     1     -40.929  37.979 -60.330  1.00  0.00    -0.273 OA
HETATM   17  H   UNL     1     -37.880  37.694 -61.180  1.00  0.00     0.169 HD
BRANCH  15  18
HETATM   18  C   UNL     1     -40.030  36.919 -62.212  1.00  0.00     0.078 A 
HETATM   19  C   UNL     1     -41.316  36.658 -62.961  1.00  0.00     0.015 A 
HETATM   20  C   UNL     1     -40.316  37.629 -63.516  1.00  0.00     0.015 A 
ENDBRANCH  15  18
ENDBRANCH  11  14
ENDBRANCH   7   8
ENDBRANCH   3   7
BRANCH   1  21
HETATM   21  N   UNL     1     -32.568  40.714 -55.208  1.00  0.00    -0.323 N 
HETATM   22  H   UNL     1     -31.935  41.190 -54.576  1.00  0.00     0.169 HD
BRANCH  21  23
HETATM   23  C   UNL     1     -31.932  39.899 -56.074  1.00  0.00     0.151 A 
HETATM   24  N   UNL     1     -30.652  40.087 -56.403  1.00  0.00    -0.157 NA
HETATM   25  N   UNL     1     -30.394  39.119 -57.299  1.00  0.00    -0.281 N 
HETATM   26  C   UNL     1     -31.473  38.331 -57.582  1.00  0.00     0.027 A 
HETATM   27  H   UNL     1     -29.458  39.062 -57.686  1.00  0.00     0.189 HD
HETATM   28  C   UNL     1     -31.426  37.228 -58.564  1.00  0.00     0.070 C 
HETATM   29  C   UNL     1     -32.491  38.818 -56.792  1.00  0.00     0.078 A 
ENDBRANCH  21  23
ENDBRANCH   1  21
BRANCH   5  30
HETATM   30  N   UNL     1     -36.217  39.908 -52.042  1.00  0.00    -0.264 NA
HETATM   31  C   UNL     1     -35.755  40.627 -50.839  1.00  0.00     0.125 C 
HETATM   32  C   UNL     1     -36.063  39.773 -49.592  1.00  0.00     0.249 C 
HETATM   33  N   UNL     1     -37.558  39.457 -49.518  1.00  0.00    -0.073 N 
HETATM   34  H   UNL     1     -38.057  40.352 -49.427  1.00  0.00     0.279 HD
HETATM   35  C   UNL     1     -37.886  38.624 -48.316  1.00  0.00     0.269 C 
HETATM   36  C   UNL     1     -38.050  38.802 -50.813  1.00  0.00     0.249 C 
HETATM   37  C   UNL     1     -37.672  39.653 -52.046  1.00  0.00     0.125 C 
ENDBRANCH   5  30
BRANCH   6  38
HETATM   38  C   UNL     1     -33.416  39.494 -52.701  1.00  0.00     0.300 C 
HETATM   39  O   UNL     1     -32.414  39.967 -52.192  1.00  0.00    -0.259 OA
BRANCH  38  40
HETATM   40  O   UNL     1     -33.806  38.199 -52.629  1.00  0.00    -0.322 OA
HETATM   41  C   UNL     1     -33.211  37.302 -53.575  1.00  0.00     0.213 C 
ENDBRANCH  38  40
ENDBRANCH   6  38
TORSDOF 9
ENDMDL
MODEL 8
REMARK VINA RESULT:      -6.5      2.773      8.579
REMARK  9 active torsions:
REMARK  status: ('A' for Active; 'I' for Inactive)
REMARK    1  A    between atoms: C_6  and  N_7 
REMARK    2  A    between atoms: N_7  and  C_8 
REMARK    3  A    between atoms: C_10  and  S_11 
REMARK    4  A    between atoms: S_11  and  C_12 
REMARK    5  A    between atoms: C_15  and  N_16 
REMARK       I    between atoms: N_16  and  C_17 
REMARK    6  A    between atoms: C_17  and  C_18 
REMARK    7  A    between atoms: C_25  and  N_26 
REMARK    8  A    between atoms: C_34  and  C_35 
REMARK    9  A    between atoms: C_35  and  O_36 
ROOT
HETATM    1  C   UNL     1     -43.133  55.501 -54.864  1.00  0.00     0.152 A 
HETATM    2  N   UNL     1     -43.055  55.280 -56.189  1.00  0.00    -0.204 NA
HETATM    3  C   UNL     1     -43.112  56.323 -57.022  1.00  0.00     0.196 A 
HETATM    4  N   UNL     1     -43.200  57.598 -56.621  1.00  0.00    -0.209 NA
HETATM    5  C   UNL     1     -43.229  57.846 -55.297  1.00  0.00     0.128 A 
HETATM    6  C   UNL     1     -43.219  56.800 -54.369  1.00  0.00     0.125 A 
ENDROOT
BRANCH   3   7
HETATM    7  S   UNL     1     -43.100  55.922 -58.749  1.00  0.00    -0.050 SA
BRANCH   7   8
HETATM    8  C   UNL     1     -44.603  56.596 -59.420  1.00  0.00     0.008 A 
HETATM    9  C   UNL     1     -44.924  57.955 -59.360  1.00  0.00     0.021 A 
HETATM   10  C   UNL     1     -46.093  58.441 -59.956  1.00  0.00     0.031 A 
HETATM   11  C   UNL     1     -46.938  57.583 -60.660  1.00  0.00     0.034 A 
HETATM   12  C   UNL     1     -46.603  56.230 -60.755  1.00  0.00     0.031 A 
HETATM   13  C   UNL     1     -45.452  55.739 -60.129  1.00  0.00     0.021 A 
BRANCH  11  14
HETATM   14  N   UNL     1     -48.093  58.017 -61.336  1.00  0.00    -0.327 N 
HETATM   15  C   UNL     1     -48.183  59.062 -62.228  1.00  0.00     0.226 C 
HETATM   16  O   UNL     1     -47.309  59.880 -62.485  1.00  0.00    -0.273 OA
HETATM   17  H   UNL     1     -48.948  57.522 -61.123  1.00  0.00     0.169 HD
BRANCH  15  18
HETATM   18  C   UNL     1     -49.497  59.179 -62.925  1.00  0.00     0.078 A 
HETATM   19  C   UNL     1     -50.799  58.596 -62.430  1.00  0.00     0.015 A 
HETATM   20  C   UNL     1     -50.561  60.073 -62.330  1.00  0.00     0.015 A 
ENDBRANCH  15  18
ENDBRANCH  11  14
ENDBRANCH   7   8
ENDBRANCH   3   7
BRANCH   1  21
HETATM   21  N   UNL     1     -43.070  54.388 -54.006  1.00  0.00    -0.323 N 
HETATM   22  H   UNL     1     -43.958  53.921 -53.866  1.00  0.00     0.169 HD
BRANCH  21  23
HETATM   23  C   UNL     1     -42.017  53.647 -53.605  1.00  0.00     0.151 A 
HETATM   24  N   UNL     1     -41.405  53.870 -52.440  1.00  0.00    -0.157 NA
HETATM   25  N   UNL     1     -40.404  52.974 -52.414  1.00  0.00    -0.281 N 
HETATM   26  C   UNL     1     -40.329  52.202 -53.537  1.00  0.00     0.027 A 
HETATM   27  H   UNL     1     -39.800  52.955 -51.599  1.00  0.00     0.189 HD
HETATM   28  C   UNL     1     -39.285  51.176 -53.738  1.00  0.00     0.070 C 
HETATM   29  C   UNL     1     -41.376  52.618 -54.330  1.00  0.00     0.078 A 
ENDBRANCH  21  23
ENDBRANCH   1  21
BRANCH   5  30
HETATM   30  N   UNL     1     -43.281  59.197 -54.915  1.00  0.00    -0.264 NA
HETATM   31  C   UNL     1     -42.058  59.722 -54.278  1.00  0.00     0.125 C 
HETATM   32  C   UNL     1     -42.398  61.036 -53.546  1.00  0.00     0.249 C 
HETATM   33  N   UNL     1     -43.003  62.049 -54.519  1.00  0.00    -0.073 N 
HETATM   34  H   UNL     1     -42.292  62.253 -55.233  1.00  0.00     0.279 HD
HETATM   35  C   UNL     1     -43.346  63.336 -53.832  1.00  0.00     0.269 C 
HETATM   36  C   UNL     1     -44.213  61.457 -55.252  1.00  0.00     0.249 C 
HETATM   37  C   UNL     1     -43.854  60.113 -55.923  1.00  0.00     0.125 C 
ENDBRANCH   5  30
BRANCH   6  38
HETATM   38  C   UNL     1     -43.382  57.077 -52.928  1.00  0.00     0.300 C 
HETATM   39  O   UNL     1     -42.489  56.990 -52.101  1.00  0.00    -0.259 OA
BRANCH  38  40
HETATM   40  O   UNL     1     -44.684  57.340 -52.664  1.00  0.00    -0.322 OA
HETATM   41  C   UNL     1     -44.943  58.372 -51.704  1.00  0.00     0.213 C 
ENDBRANCH  38  40
ENDBRANCH   6  38
TORSDOF 9
ENDMDL
MODEL 9
REMARK VINA RESULT:      -6.4      3.549      4.982
REMARK  9 active torsions:
REMARK  status: ('A' for Active; 'I' for Inactive)
REMARK    1  A    between atoms: C_6  and  N_7 
REMARK    2  A    between atoms: N_7  and  C_8 
REMARK    3  A    between atoms: C_10  and  S_11 
REMARK    4  A    between atoms: S_11  and  C_12 
REMARK    5  A    between atoms: C_15  and  N_16 
REMARK       I    between atoms: N_16  and  C_17 
REMARK    6  A    between atoms: C_17  and  C_18 
REMARK    7  A    between atoms: C_25  and  N_26 
REMARK    8  A    between atoms: C_34  and  C_35 
REMARK    9  A    between atoms: C_35  and  O_36 
ROOT
HETATM    1  C   UNL     1     -41.856  57.271 -54.046  1.00  0.00     0.152 A 
HETATM    2  N   UNL     1     -42.080  58.563 -53.745  1.00  0.00    -0.204 NA
HETATM    3  C   UNL     1     -42.774  59.316 -54.603  1.00  0.00     0.196 A 
HETATM    4  N   UNL     1     -43.308  58.854 -55.742  1.00  0.00    -0.209 NA
HETATM    5  C   UNL     1     -43.138  57.552 -56.040  1.00  0.00     0.128 A 
HETATM    6  C   UNL     1     -42.384  56.716 -55.210  1.00  0.00     0.125 A 
ENDROOT
BRANCH   3   7
HETATM    7  S   UNL     1     -42.932  61.026 -54.164  1.00  0.00    -0.050 SA
BRANCH   7   8
HETATM    8  C   UNL     1     -43.527  61.050 -52.489  1.00  0.00     0.008 A 
HETATM    9  C   UNL     1     -44.480  60.150 -52.005  1.00  0.00     0.021 A 
HETATM   10  C   UNL     1     -44.870  60.175 -50.661  1.00  0.00     0.031 A 
HETATM   11  C   UNL     1     -44.282  61.073 -49.770  1.00  0.00     0.034 A 
HETATM   12  C   UNL     1     -43.303  61.950 -50.241  1.00  0.00     0.031 A 
HETATM   13  C   UNL     1     -42.938  61.947 -51.591  1.00  0.00     0.021 A 
BRANCH  11  14
HETATM   14  N   UNL     1     -44.581  61.108 -48.395  1.00  0.00    -0.327 N 
HETATM   15  C   UNL     1     -45.687  61.680 -47.807  1.00  0.00     0.226 C 
HETATM   16  O   UNL     1     -46.532  62.374 -48.358  1.00  0.00    -0.273 OA
HETATM   17  H   UNL     1     -43.899  60.690 -47.778  1.00  0.00     0.169 HD
BRANCH  15  18
HETATM   18  C   UNL     1     -45.829  61.407 -46.347  1.00  0.00     0.078 A 
HETATM   19  C   UNL     1     -44.717  60.943 -45.436  1.00  0.00     0.015 A 
HETATM   20  C   UNL     1     -45.195  62.363 -45.361  1.00  0.00     0.015 A 
ENDBRANCH  15  18
ENDBRANCH  11  14
ENDBRANCH   7   8
ENDBRANCH   3   7
BRANCH   1  21
HETATM   21  N   UNL     1     -41.125  56.497 -53.127  1.00  0.00    -0.323 N 
HETATM   22  H   UNL     1     -40.138  56.421 -53.342  1.00  0.00     0.169 HD
BRANCH  21  23
HETATM   23  C   UNL     1     -41.419  56.119 -51.867  1.00  0.00     0.151 A 
HETATM   24  N   UNL     1     -42.535  56.522 -51.255  1.00  0.00    -0.157 NA
HETATM   25  N   UNL     1     -42.455  55.981 -50.028  1.00  0.00    -0.281 N 
HETATM   26  C   UNL     1     -41.310  55.268 -49.816  1.00  0.00     0.027 A 
HETATM   27  H   UNL     1     -43.217  56.151 -49.380  1.00  0.00     0.189 HD
HETATM   28  C   UNL     1     -40.998  54.616 -48.527  1.00  0.00     0.070 C 
HETATM   29  C   UNL     1     -40.617  55.338 -51.004  1.00  0.00     0.078 A 
ENDBRANCH  21  23
ENDBRANCH   1  21
BRANCH   5  30
HETATM   30  N   UNL     1     -43.746  57.097 -57.222  1.00  0.00    -0.264 NA
HETATM   31  C   UNL     1     -44.912  57.878 -57.674  1.00  0.00     0.125 C 
HETATM   32  C   UNL     1     -45.711  57.042 -58.696  1.00  0.00     0.249 C 
HETATM   33  N   UNL     1     -44.817  56.636 -59.870  1.00  0.00    -0.073 N 
HETATM   34  H   UNL     1     -44.507  57.500 -60.333  1.00  0.00     0.279 HD
HETATM   35  C   UNL     1     -45.568  55.820 -60.877  1.00  0.00     0.269 C 
HETATM   36  C   UNL     1     -43.557  55.915 -59.380  1.00  0.00     0.249 C 
HETATM   37  C   UNL     1     -42.814  56.752 -58.315  1.00  0.00     0.125 C 
ENDBRANCH   5  30
BRANCH   6  38
HETATM   38  C   UNL     1     -42.097  55.324 -55.611  1.00  0.00     0.300 C 
HETATM   39  O   UNL     1     -42.947  54.471 -55.808  1.00  0.00    -0.259 OA
BRANCH  38  40
HETATM   40  O   UNL     1     -40.758  55.127 -55.626  1.00  0.00    -0.322 OA
HETATM   41  C   UNL     1     -40.300  53.840 -55.193  1.00  0.00     0.213 C 
ENDBRANCH  38  40
ENDBRANCH   6  38
TORSDOF 9
ENDMDL
MODEL 10
REMARK VINA RESULT:      -6.3      2.555      6.673
REMARK  9 active torsions:
REMARK  status: ('A' for Active; 'I' for Inactive)
REMARK    1  A    between atoms: C_6  and  N_7 
REMARK    2  A    between atoms: N_7  and  C_8 
REMARK    3  A    between atoms: C_10  and  S_11 
REMARK    4  A    between atoms: S_11  and  C_12 
REMARK    5  A    between atoms: C_15  and  N_16 
REMARK       I    between atoms: N_16  and  C_17 
REMARK    6  A    between atoms: C_17  and  C_18 
REMARK    7  A    between atoms: C_25  and  N_26 
REMARK    8  A    between atoms: C_34  and  C_35 
REMARK    9  A    between atoms: C_35  and  O_36 
ROOT
HETATM    1  C   UNL     1     -44.826  58.825 -57.406  1.00  0.00     0.152 A 
HETATM    2  N   UNL     1     -44.376  57.569 -57.578  1.00  0.00    -0.204 NA
HETATM    3  C   UNL     1     -43.751  56.962 -56.567  1.00  0.00     0.196 A 
HETATM    4  N   UNL     1     -43.575  57.511 -55.357  1.00  0.00    -0.209 NA
HETATM    5  C   UNL     1     -44.061  58.749 -55.146  1.00  0.00     0.128 A 
HETATM    6  C   UNL     1     -44.686  59.462 -56.174  1.00  0.00     0.125 A 
ENDROOT
BRANCH   3   7
HETATM    7  S   UNL     1     -43.110  55.348 -56.923  1.00  0.00    -0.050 SA
BRANCH   7   8
HETATM    8  C   UNL     1     -42.235  54.833 -55.464  1.00  0.00     0.008 A 
HETATM    9  C   UNL     1     -40.852  54.970 -55.315  1.00  0.00     0.021 A 
HETATM   10  C   UNL     1     -40.221  54.603 -54.121  1.00  0.00     0.031 A 
HETATM   11  C   UNL     1     -40.968  54.134 -53.041  1.00  0.00     0.034 A 
HETATM   12  C   UNL     1     -42.355  54.030 -53.171  1.00  0.00     0.031 A 
HETATM   13  C   UNL     1     -42.981  54.365 -54.376  1.00  0.00     0.021 A 
BRANCH  11  14
HETATM   14  N   UNL     1     -40.405  53.809 -51.793  1.00  0.00    -0.327 N 
HETATM   15  C   UNL     1     -40.434  54.577 -50.650  1.00  0.00     0.226 C 
HETATM   16  O   UNL     1     -40.832  55.731 -50.555  1.00  0.00    -0.273 OA
HETATM   17  H   UNL     1     -39.909  52.930 -51.741  1.00  0.00     0.169 HD
BRANCH  15  18
HETATM   18  C   UNL     1     -39.911  53.900 -49.428  1.00  0.00     0.078 A 
HETATM   19  C   UNL     1     -40.371  54.175 -48.016  1.00  0.00     0.015 A 
HETATM   20  C   UNL     1     -40.798  52.912 -48.704  1.00  0.00     0.015 A 
ENDBRANCH  15  18
ENDBRANCH  11  14
ENDBRANCH   7   8
ENDBRANCH   3   7
BRANCH   1  21
HETATM   21  N   UNL     1     -45.483  59.445 -58.484  1.00  0.00    -0.323 N 
HETATM   22  H   UNL     1     -45.269  60.430 -58.589  1.00  0.00     0.169 HD
BRANCH  21  23
HETATM   23  C   UNL     1     -46.072  58.916 -59.575  1.00  0.00     0.151 A 
HETATM   24  N   UNL     1     -46.128  59.578 -60.733  1.00  0.00    -0.157 NA
HETATM   25  N   UNL     1     -46.810  58.758 -61.551  1.00  0.00    -0.281 N 
HETATM   26  C   UNL     1     -47.223  57.604 -60.952  1.00  0.00     0.027 A 
HETATM   27  H   UNL     1     -46.966  59.059 -62.507  1.00  0.00     0.189 HD
HETATM   28  C   UNL     1     -48.019  56.575 -61.653  1.00  0.00     0.070 C 
HETATM   29  C   UNL     1     -46.751  57.680 -59.660  1.00  0.00     0.078 A 
ENDBRANCH  21  23
ENDBRANCH   1  21
BRANCH   5  30
HETATM   30  N   UNL     1     -43.892  59.275 -53.854  1.00  0.00    -0.264 NA
HETATM   31  C   UNL     1     -44.596  58.550 -52.780  1.00  0.00     0.125 C 
HETATM   32  C   UNL     1     -44.676  59.454 -51.532  1.00  0.00     0.249 C 
HETATM   33  N   UNL     1     -43.274  59.885 -51.094  1.00  0.00    -0.073 N 
HETATM   34  H   UNL     1     -42.755  59.034 -50.843  1.00  0.00     0.279 HD
HETATM   35  C   UNL     1     -43.323  60.769 -49.885  1.00  0.00     0.269 C 
HETATM   36  C   UNL     1     -42.514  60.546 -52.249  1.00  0.00     0.249 C 
HETATM   37  C   UNL     1     -42.505  59.640 -53.501  1.00  0.00     0.125 C 
ENDBRANCH   5  30
BRANCH   6  38
HETATM   38  C   UNL     1     -45.098  60.865 -55.968  1.00  0.00     0.300 C 
HETATM   39  O   UNL     1     -46.253  61.235 -55.840  1.00  0.00    -0.259 OA
BRANCH  38  40
HETATM   40  O   UNL     1     -44.012  61.670 -56.047  1.00  0.00    -0.322 OA
HETATM   41  C   UNL     1     -44.002  62.810 -55.180  1.00  0.00     0.213 C 
ENDBRANCH  38  40
ENDBRANCH   6  38
TORSDOF 9
ENDMDL
