MODEL 1
REMARK VINA RESULT:      -8.4      0.000      0.000
REMARK  5 active torsions:
REMARK  status: ('A' for Active; 'I' for Inactive)
REMARK    1  A    between atoms: C_5  and  C_6 
REMARK    2  A    between atoms: C_9  and  O_10 
REMARK    3  A    between atoms: N_14  and  C_15 
REMARK    4  A    between atoms: C_15  and  C_16 
REMARK       I    between atoms: C_16  and  N_17 
REMARK    5  A    between atoms: N_17  and  C_18 
ROOT
HETATM    1  C   UNL     1     -46.220  58.926 -56.926  1.00  0.00     0.156 C 
HETATM    2  N   UNL     1     -44.984  58.183 -56.985  1.00  0.00    -0.346 N 
HETATM    3  C   UNL     1     -44.061  58.101 -55.999  1.00  0.00     0.113 A 
HETATM    4  C   UNL     1     -43.031  57.293 -56.400  1.00  0.00     0.014 A 
HETATM    5  C   UNL     1     -42.019  57.176 -55.318  1.00  0.00     0.158 C 
HETATM    6  N   UNL     1     -42.729  57.900 -54.235  1.00  0.00    -0.325 N 
HETATM    7  C   UNL     1     -43.891  58.544 -54.654  1.00  0.00     0.272 C 
HETATM    8  O   UNL     1     -44.598  59.293 -54.003  1.00  0.00    -0.266 OA
HETATM    9  C   UNL     1     -43.329  56.807 -57.686  1.00  0.00     0.002 A 
HETATM   10  C   UNL     1     -44.575  57.368 -58.036  1.00  0.00     0.045 A 
HETATM   11  C   UNL     1     -42.703  55.918 -58.580  1.00  0.00     0.014 A 
HETATM   12  C   UNL     1     -43.329  55.605 -59.791  1.00  0.00     0.001 A 
HETATM   13  C   UNL     1     -44.559  56.166 -60.120  1.00  0.00     0.002 A 
HETATM   14  C   UNL     1     -45.202  57.057 -59.254  1.00  0.00     0.030 A 
ENDROOT
BRANCH   6  15
HETATM   15  C   UNL     1     -42.225  57.942 -52.875  1.00  0.00     0.229 C 
BRANCH  15  16
HETATM   16  C   UNL     1     -42.513  56.686 -52.064  1.00  0.00     0.235 C 
HETATM   17  N   UNL     1     -41.404  55.924 -51.751  1.00  0.00    -0.355 N 
HETATM   18  H   UNL     1     -40.496  56.325 -51.963  1.00  0.00     0.162 HD
HETATM   19  O   UNL     1     -43.638  56.446 -51.626  1.00  0.00    -0.272 OA
BRANCH  17  20
HETATM   20  C   UNL     1     -41.497  54.923 -50.709  1.00  0.00     0.084 C 
HETATM   21  C   UNL     1     -40.505  53.780 -50.870  1.00  0.00     0.025 C 
HETATM   22  C   UNL     1     -40.513  53.139 -49.489  1.00  0.00     0.002 C 
HETATM   23  C   UNL     1     -40.635  54.305 -48.513  1.00  0.00     0.002 C 
HETATM   24  C   UNL     1     -41.162  55.488 -49.326  1.00  0.00     0.025 C 
ENDBRANCH  17  20
ENDBRANCH  15  16
ENDBRANCH   6  15
BRANCH   5  25
HETATM   25  C   UNL     1     -41.779  55.710 -55.062  1.00  0.00    -0.030 A 
HETATM   26  C   UNL     1     -40.460  55.250 -54.921  1.00  0.00     0.012 A 
HETATM   27  C   UNL     1     -40.200  53.900 -54.675  1.00  0.00     0.037 A 
HETATM   28  C   UNL     1     -41.244  52.982 -54.557  1.00  0.00     0.068 A 
HETATM   29  C   UNL     1     -42.558  53.425 -54.700  1.00  0.00     0.037 A 
HETATM   30  C   UNL     1     -42.822  54.777 -54.952  1.00  0.00     0.012 A 
BRANCH  28  31
HETATM   31  O   UNL     1     -40.850  51.697 -54.308  1.00  0.00    -0.356 OA
HETATM   32  C   UNL     1     -39.577  51.525 -53.699  1.00  0.00     0.210 C 
ENDBRANCH  28  31
ENDBRANCH   5  25
TORSDOF 5
ENDMDL
MODEL 2
REMARK VINA RESULT:      -8.4      2.050      7.889
REMARK  5 active torsions:
REMARK  status: ('A' for Active; 'I' for Inactive)
REMARK    1  A    between atoms: C_5  and  C_6 
REMARK    2  A    between atoms: C_9  and  O_10 
REMARK    3  A    between atoms: N_14  and  C_15 
REMARK    4  A    between atoms: C_15  and  C_16 
REMARK       I    between atoms: C_16  and  N_17 
REMARK    5  A    between atoms: N_17  and  C_18 
ROOT
HETATM    1  C   UNL     1     -40.678  52.638 -53.610  1.00  0.00     0.156 C 
HETATM    2  N   UNL     1     -40.826  53.858 -52.854  1.00  0.00    -0.346 N 
HETATM    3  C   UNL     1     -41.080  55.084 -53.370  1.00  0.00     0.113 A 
HETATM    4  C   UNL     1     -41.177  55.998 -52.355  1.00  0.00     0.014 A 
HETATM    5  C   UNL     1     -41.477  57.345 -52.905  1.00  0.00     0.158 C 
HETATM    6  N   UNL     1     -41.684  56.991 -54.330  1.00  0.00    -0.325 N 
HETATM    7  C   UNL     1     -41.348  55.674 -54.639  1.00  0.00     0.272 C 
HETATM    8  O   UNL     1     -41.317  55.158 -55.743  1.00  0.00    -0.266 OA
HETATM    9  C   UNL     1     -41.015  55.318 -51.134  1.00  0.00     0.002 A 
HETATM   10  C   UNL     1     -40.808  53.963 -51.466  1.00  0.00     0.045 A 
HETATM   11  C   UNL     1     -41.063  55.690 -49.778  1.00  0.00     0.014 A 
HETATM   12  C   UNL     1     -40.911  54.712 -48.789  1.00  0.00     0.001 A 
HETATM   13  C   UNL     1     -40.709  53.379 -49.135  1.00  0.00     0.002 A 
HETATM   14  C   UNL     1     -40.651  52.981 -50.474  1.00  0.00     0.030 A 
ENDROOT
BRANCH   6  15
HETATM   15  C   UNL     1     -42.168  57.953 -55.303  1.00  0.00     0.229 C 
BRANCH  15  16
HETATM   16  C   UNL     1     -43.369  57.476 -56.108  1.00  0.00     0.235 C 
HETATM   17  N   UNL     1     -43.115  57.218 -57.441  1.00  0.00    -0.355 N 
HETATM   18  H   UNL     1     -42.143  57.235 -57.736  1.00  0.00     0.162 HD
HETATM   19  O   UNL     1     -44.447  57.227 -55.570  1.00  0.00    -0.272 OA
BRANCH  17  20
HETATM   20  C   UNL     1     -44.062  56.439 -58.211  1.00  0.00     0.084 C 
HETATM   21  C   UNL     1     -45.022  57.285 -59.035  1.00  0.00     0.025 C 
HETATM   22  C   UNL     1     -45.583  56.275 -60.027  1.00  0.00     0.002 C 
HETATM   23  C   UNL     1     -44.408  55.367 -60.374  1.00  0.00     0.002 C 
HETATM   24  C   UNL     1     -43.377  55.559 -59.261  1.00  0.00     0.025 C 
ENDBRANCH  17  20
ENDBRANCH  15  16
ENDBRANCH   6  15
BRANCH   5  25
HETATM   25  C   UNL     1     -42.693  57.879 -52.192  1.00  0.00    -0.030 A 
HETATM   26  C   UNL     1     -42.658  59.178 -51.663  1.00  0.00     0.012 A 
HETATM   27  C   UNL     1     -43.769  59.709 -51.003  1.00  0.00     0.037 A 
HETATM   28  C   UNL     1     -44.939  58.962 -50.861  1.00  0.00     0.068 A 
HETATM   29  C   UNL     1     -44.985  57.667 -51.377  1.00  0.00     0.037 A 
HETATM   30  C   UNL     1     -43.871  57.131 -52.034  1.00  0.00     0.012 A 
BRANCH  28  31
HETATM   31  O   UNL     1     -45.950  59.603 -50.203  1.00  0.00    -0.356 OA
HETATM   32  C   UNL     1     -45.577  60.671 -49.342  1.00  0.00     0.210 C 
ENDBRANCH  28  31
ENDBRANCH   5  25
TORSDOF 5
ENDMDL
MODEL 3
REMARK VINA RESULT:      -7.8      3.051      6.412
REMARK  5 active torsions:
REMARK  status: ('A' for Active; 'I' for Inactive)
REMARK    1  A    between atoms: C_5  and  C_6 
REMARK    2  A    between atoms: C_9  and  O_10 
REMARK    3  A    between atoms: N_14  and  C_15 
REMARK    4  A    between atoms: C_15  and  C_16 
REMARK       I    between atoms: C_16  and  N_17 
REMARK    5  A    between atoms: N_17  and  C_18 
ROOT
HETATM    1  C   UNL     1     -39.853  54.648 -50.031  1.00  0.00     0.156 C 
HETATM    2  N   UNL     1     -40.657  54.399 -51.204  1.00  0.00    -0.346 N 
HETATM    3  C   UNL     1     -41.682  55.168 -51.640  1.00  0.00     0.113 A 
HETATM    4  C   UNL     1     -42.196  54.636 -52.793  1.00  0.00     0.014 A 
HETATM    5  C   UNL     1     -43.309  55.483 -53.296  1.00  0.00     0.158 C 
HETATM    6  N   UNL     1     -43.209  56.616 -52.344  1.00  0.00    -0.325 N 
HETATM    7  C   UNL     1     -42.321  56.394 -51.294  1.00  0.00     0.272 C 
HETATM    8  O   UNL     1     -42.131  57.105 -50.322  1.00  0.00    -0.266 OA
HETATM    9  C   UNL     1     -41.440  53.498 -53.128  1.00  0.00     0.002 A 
HETATM   10  C   UNL     1     -40.461  53.370 -52.120  1.00  0.00     0.045 A 
HETATM   11  C   UNL     1     -41.446  52.583 -54.196  1.00  0.00     0.014 A 
HETATM   12  C   UNL     1     -40.481  51.571 -54.243  1.00  0.00     0.001 A 
HETATM   13  C   UNL     1     -39.521  51.459 -53.241  1.00  0.00     0.002 A 
HETATM   14  C   UNL     1     -39.494  52.351 -52.163  1.00  0.00     0.030 A 
ENDROOT
BRANCH   6  15
HETATM   15  C   UNL     1     -43.996  57.825 -52.498  1.00  0.00     0.229 C 
BRANCH  15  16
HETATM   16  C   UNL     1     -44.680  58.291 -51.220  1.00  0.00     0.235 C 
HETATM   17  N   UNL     1     -44.316  59.551 -50.787  1.00  0.00    -0.355 N 
HETATM   18  H   UNL     1     -43.741  60.105 -51.415  1.00  0.00     0.162 HD
HETATM   19  O   UNL     1     -45.575  57.633 -50.691  1.00  0.00    -0.272 OA
BRANCH  17  20
HETATM   20  C   UNL     1     -45.137  60.235 -49.810  1.00  0.00     0.084 C 
HETATM   21  C   UNL     1     -44.349  61.146 -48.880  1.00  0.00     0.025 C 
HETATM   22  C   UNL     1     -45.436  62.026 -48.278  1.00  0.00     0.002 C 
HETATM   23  C   UNL     1     -46.419  62.272 -49.419  1.00  0.00     0.002 C 
HETATM   24  C   UNL     1     -46.148  61.184 -50.459  1.00  0.00     0.025 C 
ENDBRANCH  17  20
ENDBRANCH  15  16
ENDBRANCH   6  15
BRANCH   5  25
HETATM   25  C   UNL     1     -43.021  55.824 -54.735  1.00  0.00    -0.030 A 
HETATM   26  C   UNL     1     -43.375  54.908 -55.738  1.00  0.00     0.012 A 
HETATM   27  C   UNL     1     -43.130  55.195 -57.083  1.00  0.00     0.037 A 
HETATM   28  C   UNL     1     -42.535  56.399 -57.459  1.00  0.00     0.068 A 
HETATM   29  C   UNL     1     -42.173  57.316 -56.472  1.00  0.00     0.037 A 
HETATM   30  C   UNL     1     -42.412  57.029 -55.123  1.00  0.00     0.012 A 
BRANCH  28  31
HETATM   31  O   UNL     1     -42.362  56.555 -58.806  1.00  0.00    -0.356 OA
HETATM   32  C   UNL     1     -43.143  55.722 -59.652  1.00  0.00     0.210 C 
ENDBRANCH  28  31
ENDBRANCH   5  25
TORSDOF 5
ENDMDL
MODEL 4
REMARK VINA RESULT:      -7.8      2.826      5.201
REMARK  5 active torsions:
REMARK  status: ('A' for Active; 'I' for Inactive)
REMARK    1  A    between atoms: C_5  and  C_6 
REMARK    2  A    between atoms: C_9  and  O_10 
REMARK    3  A    between atoms: N_14  and  C_15 
REMARK    4  A    between atoms: C_15  and  C_16 
REMARK       I    between atoms: C_16  and  N_17 
REMARK    5  A    between atoms: N_17  and  C_18 
ROOT
HETATM    1  C   UNL     1     -42.765  61.003 -54.245  1.00  0.00     0.156 C 
HETATM    2  N   UNL     1     -42.577  60.325 -55.505  1.00  0.00    -0.346 N 
HETATM    3  C   UNL     1     -42.430  58.989 -55.671  1.00  0.00     0.113 A 
HETATM    4  C   UNL     1     -42.296  58.704 -57.004  1.00  0.00     0.014 A 
HETATM    5  C   UNL     1     -42.156  57.239 -57.204  1.00  0.00     0.158 C 
HETATM    6  N   UNL     1     -42.392  56.775 -55.815  1.00  0.00    -0.325 N 
HETATM    7  C   UNL     1     -42.450  57.805 -54.878  1.00  0.00     0.272 C 
HETATM    8  O   UNL     1     -42.522  57.700 -53.666  1.00  0.00    -0.266 OA
HETATM    9  C   UNL     1     -42.403  59.909 -57.723  1.00  0.00     0.002 A 
HETATM   10  C   UNL     1     -42.594  60.923 -56.761  1.00  0.00     0.045 A 
HETATM   11  C   UNL     1     -42.400  60.252 -59.088  1.00  0.00     0.014 A 
HETATM   12  C   UNL     1     -42.593  61.586 -59.463  1.00  0.00     0.001 A 
HETATM   13  C   UNL     1     -42.783  62.574 -58.501  1.00  0.00     0.002 A 
HETATM   14  C   UNL     1     -42.784  62.263 -57.137  1.00  0.00     0.030 A 
ENDROOT
BRANCH   6  15
HETATM   15  C   UNL     1     -42.520  55.369 -55.482  1.00  0.00     0.229 C 
BRANCH  15  16
HETATM   16  C   UNL     1     -41.292  54.773 -54.807  1.00  0.00     0.235 C 
HETATM   17  N   UNL     1     -41.516  53.598 -54.116  1.00  0.00    -0.355 N 
HETATM   18  H   UNL     1     -42.428  53.166 -54.228  1.00  0.00     0.162 HD
HETATM   19  O   UNL     1     -40.170  55.250 -54.974  1.00  0.00    -0.272 OA
BRANCH  17  20
HETATM   20  C   UNL     1     -40.393  52.766 -53.741  1.00  0.00     0.084 C 
HETATM   21  C   UNL     1     -40.286  52.524 -52.242  1.00  0.00     0.025 C 
HETATM   22  C   UNL     1     -39.341  51.332 -52.166  1.00  0.00     0.002 C 
HETATM   23  C   UNL     1     -39.718  50.454 -53.356  1.00  0.00     0.002 C 
HETATM   24  C   UNL     1     -40.495  51.351 -54.319  1.00  0.00     0.025 C 
ENDBRANCH  17  20
ENDBRANCH  15  16
ENDBRANCH   6  15
BRANCH   5  25
HETATM   25  C   UNL     1     -43.189  56.805 -58.212  1.00  0.00    -0.030 A 
HETATM   26  C   UNL     1     -44.479  57.353 -58.145  1.00  0.00     0.012 A 
HETATM   27  C   UNL     1     -45.460  56.980 -59.068  1.00  0.00     0.037 A 
HETATM   28  C   UNL     1     -45.176  56.061 -60.078  1.00  0.00     0.068 A 
HETATM   29  C   UNL     1     -43.900  55.504 -60.151  1.00  0.00     0.037 A 
HETATM   30  C   UNL     1     -42.917  55.871 -59.225  1.00  0.00     0.012 A 
BRANCH  28  31
HETATM   31  O   UNL     1     -46.222  55.792 -60.916  1.00  0.00    -0.356 OA
HETATM   32  C   UNL     1     -47.400  56.569 -60.739  1.00  0.00     0.210 C 
ENDBRANCH  28  31
ENDBRANCH   5  25
TORSDOF 5
ENDMDL
MODEL 5
REMARK VINA RESULT:      -7.8      2.390      6.897
REMARK  5 active torsions:
REMARK  status: ('A' for Active; 'I' for Inactive)
REMARK    1  A    between atoms: C_5  and  C_6 
REMARK    2  A    between atoms: C_9  and  O_10 
REMARK    3  A    between atoms: N_14  and  C_15 
REMARK    4  A    between atoms: C_15  and  C_16 
REMARK       I    between atoms: C_16  and  N_17 
REMARK    5  A    between atoms: N_17  and  C_18 
ROOT
HETATM    1  C   UNL     1     -42.383  60.926 -56.135  1.00  0.00     0.156 C 
HETATM    2  N   UNL     1     -42.672  59.726 -55.387  1.00  0.00    -0.346 N 
HETATM    3  C   UNL     1     -42.912  58.502 -55.913  1.00  0.00     0.113 A 
HETATM    4  C   UNL     1     -43.125  57.602 -54.904  1.00  0.00     0.014 A 
HETATM    5  C   UNL     1     -43.369  56.249 -55.467  1.00  0.00     0.158 C 
HETATM    6  N   UNL     1     -43.099  56.523 -56.899  1.00  0.00    -0.325 N 
HETATM    7  C   UNL     1     -42.931  57.875 -57.193  1.00  0.00     0.272 C 
HETATM    8  O   UNL     1     -42.810  58.383 -58.294  1.00  0.00    -0.266 OA
HETATM    9  C   UNL     1     -42.975  58.274 -53.677  1.00  0.00     0.002 A 
HETATM   10  C   UNL     1     -42.675  59.614 -54.000  1.00  0.00     0.045 A 
HETATM   11  C   UNL     1     -43.019  57.889 -52.324  1.00  0.00     0.014 A 
HETATM   12  C   UNL     1     -42.758  58.837 -51.329  1.00  0.00     0.001 A 
HETATM   13  C   UNL     1     -42.461  60.155 -51.665  1.00  0.00     0.002 A 
HETATM   14  C   UNL     1     -42.417  60.567 -53.001  1.00  0.00     0.030 A 
ENDROOT
BRANCH   6  15
HETATM   15  C   UNL     1     -43.046  55.466 -57.891  1.00  0.00     0.229 C 
BRANCH  15  16
HETATM   16  C   UNL     1     -43.783  55.787 -59.185  1.00  0.00     0.235 C 
HETATM   17  N   UNL     1     -45.089  56.206 -59.026  1.00  0.00    -0.355 N 
HETATM   18  H   UNL     1     -45.400  56.394 -58.077  1.00  0.00     0.162 HD
HETATM   19  O   UNL     1     -43.206  55.784 -60.272  1.00  0.00    -0.272 OA
BRANCH  17  20
HETATM   20  C   UNL     1     -45.766  56.866 -60.123  1.00  0.00     0.084 C 
HETATM   21  C   UNL     1     -47.086  56.214 -60.508  1.00  0.00     0.025 C 
HETATM   22  C   UNL     1     -47.761  57.297 -61.338  1.00  0.00     0.002 C 
HETATM   23  C   UNL     1     -47.388  58.608 -60.652  1.00  0.00     0.002 C 
HETATM   24  C   UNL     1     -46.169  58.303 -59.780  1.00  0.00     0.025 C 
ENDBRANCH  17  20
ENDBRANCH  15  16
ENDBRANCH   6  15
BRANCH   5  25
HETATM   25  C   UNL     1     -42.414  55.289 -54.805  1.00  0.00    -0.030 A 
HETATM   26  C   UNL     1     -42.880  54.475 -53.761  1.00  0.00     0.012 A 
HETATM   27  C   UNL     1     -42.025  53.568 -53.129  1.00  0.00     0.037 A 
HETATM   28  C   UNL     1     -40.693  53.448 -53.527  1.00  0.00     0.068 A 
HETATM   29  C   UNL     1     -40.216  54.256 -54.558  1.00  0.00     0.037 A 
HETATM   30  C   UNL     1     -41.069  55.170 -55.189  1.00  0.00     0.012 A 
BRANCH  28  31
HETATM   31  O   UNL     1     -39.970  52.519 -52.832  1.00  0.00    -0.356 OA
HETATM   32  C   UNL     1     -39.928  52.668 -51.419  1.00  0.00     0.210 C 
ENDBRANCH  28  31
ENDBRANCH   5  25
TORSDOF 5
ENDMDL
MODEL 6
REMARK VINA RESULT:      -7.6      2.834      8.111
REMARK  5 active torsions:
REMARK  status: ('A' for Active; 'I' for Inactive)
REMARK    1  A    between atoms: C_5  and  C_6 
REMARK    2  A    between atoms: C_9  and  O_10 
REMARK    3  A    between atoms: N_14  and  C_15 
REMARK    4  A    between atoms: C_15  and  C_16 
REMARK       I    between atoms: C_16  and  N_17 
REMARK    5  A    between atoms: N_17  and  C_18 
ROOT
HETATM    1  C   UNL     1     -41.520  53.194 -54.342  1.00  0.00     0.156 C 
HETATM    2  N   UNL     1     -41.521  54.397 -53.544  1.00  0.00    -0.346 N 
HETATM    3  C   UNL     1     -41.905  55.625 -53.962  1.00  0.00     0.113 A 
HETATM    4  C   UNL     1     -41.792  56.518 -52.930  1.00  0.00     0.014 A 
HETATM    5  C   UNL     1     -42.232  57.868 -53.369  1.00  0.00     0.158 C 
HETATM    6  N   UNL     1     -42.741  57.536 -54.721  1.00  0.00    -0.325 N 
HETATM    7  C   UNL     1     -42.457  56.233 -55.127  1.00  0.00     0.272 C 
HETATM    8  O   UNL     1     -42.660  55.738 -56.222  1.00  0.00    -0.266 OA
HETATM    9  C   UNL     1     -41.353  55.819 -51.790  1.00  0.00     0.002 A 
HETATM   10  C   UNL     1     -41.200  54.476 -52.192  1.00  0.00     0.045 A 
HETATM   11  C   UNL     1     -41.108  56.165 -50.449  1.00  0.00     0.014 A 
HETATM   12  C   UNL     1     -40.724  55.173 -49.540  1.00  0.00     0.001 A 
HETATM   13  C   UNL     1     -40.578  53.851 -49.953  1.00  0.00     0.002 A 
HETATM   14  C   UNL     1     -40.810  53.479 -51.281  1.00  0.00     0.030 A 
ENDROOT
BRANCH   6  15
HETATM   15  C   UNL     1     -43.445  58.504 -55.541  1.00  0.00     0.229 C 
BRANCH  15  16
HETATM   16  C   UNL     1     -42.603  59.104 -56.659  1.00  0.00     0.235 C 
HETATM   17  N   UNL     1     -43.099  58.911 -57.934  1.00  0.00    -0.355 N 
HETATM   18  H   UNL     1     -44.032  58.516 -58.009  1.00  0.00     0.162 HD
HETATM   19  O   UNL     1     -41.622  59.807 -56.421  1.00  0.00    -0.272 OA
BRANCH  17  20
HETATM   20  C   UNL     1     -42.595  59.716 -59.026  1.00  0.00     0.084 C 
HETATM   21  C   UNL     1     -42.014  58.899 -60.170  1.00  0.00     0.025 C 
HETATM   22  C   UNL     1     -41.964  59.911 -61.307  1.00  0.00     0.002 C 
HETATM   23  C   UNL     1     -43.225  60.753 -61.141  1.00  0.00     0.002 C 
HETATM   24  C   UNL     1     -43.696  60.538 -59.702  1.00  0.00     0.025 C 
ENDBRANCH  17  20
ENDBRANCH  15  16
ENDBRANCH   6  15
BRANCH   5  25
HETATM   25  C   UNL     1     -43.270  58.360 -52.393  1.00  0.00    -0.030 A 
HETATM   26  C   UNL     1     -43.065  59.584 -51.739  1.00  0.00     0.012 A 
HETATM   27  C   UNL     1     -44.010  60.075 -50.834  1.00  0.00     0.037 A 
HETATM   28  C   UNL     1     -45.180  59.363 -50.568  1.00  0.00     0.068 A 
HETATM   29  C   UNL     1     -45.393  58.142 -51.207  1.00  0.00     0.037 A 
HETATM   30  C   UNL     1     -44.445  57.645 -52.110  1.00  0.00     0.012 A 
BRANCH  28  31
HETATM   31  O   UNL     1     -46.021  59.961 -49.671  1.00  0.00    -0.356 OA
HETATM   32  C   UNL     1     -45.421  60.796 -48.690  1.00  0.00     0.210 C 
ENDBRANCH  28  31
ENDBRANCH   5  25
TORSDOF 5
ENDMDL
MODEL 7
REMARK VINA RESULT:      -7.5      2.372      3.700
REMARK  5 active torsions:
REMARK  status: ('A' for Active; 'I' for Inactive)
REMARK    1  A    between atoms: C_5  and  C_6 
REMARK    2  A    between atoms: C_9  and  O_10 
REMARK    3  A    between atoms: N_14  and  C_15 
REMARK    4  A    between atoms: C_15  and  C_16 
REMARK       I    between atoms: C_16  and  N_17 
REMARK    5  A    between atoms: N_17  and  C_18 
ROOT
HETATM    1  C   UNL     1     -46.534  58.740 -57.238  1.00  0.00     0.156 C 
HETATM    2  N   UNL     1     -45.238  58.106 -57.203  1.00  0.00    -0.346 N 
HETATM    3  C   UNL     1     -44.392  58.089 -56.145  1.00  0.00     0.113 A 
HETATM    4  C   UNL     1     -43.268  57.376 -56.468  1.00  0.00     0.014 A 
HETATM    5  C   UNL     1     -42.340  57.330 -55.309  1.00  0.00     0.158 C 
HETATM    6  N   UNL     1     -43.193  57.977 -54.282  1.00  0.00    -0.325 N 
HETATM    7  C   UNL     1     -44.369  58.526 -54.789  1.00  0.00     0.272 C 
HETATM    8  O   UNL     1     -45.187  59.203 -54.191  1.00  0.00    -0.266 OA
HETATM    9  C   UNL     1     -43.420  56.884 -57.777  1.00  0.00     0.002 A 
HETATM   10  C   UNL     1     -44.678  57.343 -58.223  1.00  0.00     0.045 A 
HETATM   11  C   UNL     1     -42.652  56.064 -58.624  1.00  0.00     0.014 A 
HETATM   12  C   UNL     1     -43.150  55.716 -59.884  1.00  0.00     0.001 A 
HETATM   13  C   UNL     1     -44.394  56.175 -60.307  1.00  0.00     0.002 A 
HETATM   14  C   UNL     1     -45.177  56.997 -59.490  1.00  0.00     0.030 A 
ENDROOT
BRANCH   6  15
HETATM   15  C   UNL     1     -42.805  58.043 -52.886  1.00  0.00     0.229 C 
BRANCH  15  16
HETATM   16  C   UNL     1     -42.418  59.437 -52.411  1.00  0.00     0.235 C 
HETATM   17  N   UNL     1     -43.400  60.111 -51.711  1.00  0.00    -0.355 N 
HETATM   18  H   UNL     1     -44.229  59.582 -51.458  1.00  0.00     0.162 HD
HETATM   19  O   UNL     1     -41.273  59.868 -52.544  1.00  0.00    -0.272 OA
BRANCH  17  20
HETATM   20  C   UNL     1     -43.045  61.270 -50.920  1.00  0.00     0.084 C 
HETATM   21  C   UNL     1     -43.285  62.593 -51.632  1.00  0.00     0.025 C 
HETATM   22  C   UNL     1     -43.249  63.596 -50.487  1.00  0.00     0.002 C 
HETATM   23  C   UNL     1     -43.924  62.885 -49.318  1.00  0.00     0.002 C 
HETATM   24  C   UNL     1     -43.894  61.393 -49.652  1.00  0.00     0.025 C 
ENDBRANCH  17  20
ENDBRANCH  15  16
ENDBRANCH   6  15
BRANCH   5  25
HETATM   25  C   UNL     1     -41.996  55.887 -55.044  1.00  0.00    -0.030 A 
HETATM   26  C   UNL     1     -40.648  55.518 -54.923  1.00  0.00     0.012 A 
HETATM   27  C   UNL     1     -40.292  54.191 -54.670  1.00  0.00     0.037 A 
HETATM   28  C   UNL     1     -41.269  53.206 -54.525  1.00  0.00     0.068 A 
HETATM   29  C   UNL     1     -42.613  53.558 -54.649  1.00  0.00     0.037 A 
HETATM   30  C   UNL     1     -42.972  54.886 -54.908  1.00  0.00     0.012 A 
BRANCH  28  31
HETATM   31  O   UNL     1     -40.785  51.954 -54.271  1.00  0.00    -0.356 OA
HETATM   32  C   UNL     1     -39.871  51.828 -53.190  1.00  0.00     0.210 C 
ENDBRANCH  28  31
ENDBRANCH   5  25
TORSDOF 5
ENDMDL
MODEL 8
REMARK VINA RESULT:      -7.4      2.358      5.774
REMARK  5 active torsions:
REMARK  status: ('A' for Active; 'I' for Inactive)
REMARK    1  A    between atoms: C_5  and  C_6 
REMARK    2  A    between atoms: C_9  and  O_10 
REMARK    3  A    between atoms: N_14  and  C_15 
REMARK    4  A    between atoms: C_15  and  C_16 
REMARK       I    between atoms: C_16  and  N_17 
REMARK    5  A    between atoms: N_17  and  C_18 
ROOT
HETATM    1  C   UNL     1     -44.838  57.696 -51.155  1.00  0.00     0.156 C 
HETATM    2  N   UNL     1     -44.180  58.192 -52.340  1.00  0.00    -0.346 N 
HETATM    3  C   UNL     1     -43.489  57.446 -53.234  1.00  0.00     0.113 A 
HETATM    4  C   UNL     1     -43.025  58.249 -54.241  1.00  0.00     0.014 A 
HETATM    5  C   UNL     1     -42.282  57.440 -55.242  1.00  0.00     0.158 C 
HETATM    6  N   UNL     1     -42.552  56.081 -54.712  1.00  0.00    -0.325 N 
HETATM    7  C   UNL     1     -43.176  56.075 -53.466  1.00  0.00     0.272 C 
HETATM    8  O   UNL     1     -43.410  55.109 -52.760  1.00  0.00    -0.266 OA
HETATM    9  C   UNL     1     -43.473  59.561 -53.999  1.00  0.00     0.002 A 
HETATM   10  C   UNL     1     -44.215  59.505 -52.800  1.00  0.00     0.045 A 
HETATM   11  C   UNL     1     -43.371  60.786 -54.684  1.00  0.00     0.014 A 
HETATM   12  C   UNL     1     -44.008  61.919 -54.168  1.00  0.00     0.001 A 
HETATM   13  C   UNL     1     -44.738  61.846 -52.984  1.00  0.00     0.002 A 
HETATM   14  C   UNL     1     -44.852  60.643 -52.279  1.00  0.00     0.030 A 
ENDROOT
BRANCH   6  15
HETATM   15  C   UNL     1     -42.169  54.882 -55.432  1.00  0.00     0.229 C 
BRANCH  15  16
HETATM   16  C   UNL     1     -40.932  54.189 -54.875  1.00  0.00     0.235 C 
HETATM   17  N   UNL     1     -41.178  53.260 -53.883  1.00  0.00    -0.355 N 
HETATM   18  H   UNL     1     -42.149  53.020 -53.708  1.00  0.00     0.162 HD
HETATM   19  O   UNL     1     -39.818  54.367 -55.366  1.00  0.00    -0.272 OA
BRANCH  17  20
HETATM   20  C   UNL     1     -40.151  52.301 -53.533  1.00  0.00     0.084 C 
HETATM   21  C   UNL     1     -40.151  51.917 -52.060  1.00  0.00     0.025 C 
HETATM   22  C   UNL     1     -39.314  50.645 -52.050  1.00  0.00     0.002 C 
HETATM   23  C   UNL     1     -39.692  49.914 -53.335  1.00  0.00     0.002 C 
HETATM   24  C   UNL     1     -40.336  50.960 -54.247  1.00  0.00     0.025 C 
ENDBRANCH  17  20
ENDBRANCH  15  16
ENDBRANCH   6  15
BRANCH   5  25
HETATM   25  C   UNL     1     -42.867  57.729 -56.601  1.00  0.00    -0.030 A 
HETATM   26  C   UNL     1     -42.016  58.158 -57.631  1.00  0.00     0.012 A 
HETATM   27  C   UNL     1     -42.522  58.427 -58.906  1.00  0.00     0.037 A 
HETATM   28  C   UNL     1     -43.880  58.268 -59.183  1.00  0.00     0.068 A 
HETATM   29  C   UNL     1     -44.736  57.848 -58.166  1.00  0.00     0.037 A 
HETATM   30  C   UNL     1     -44.234  57.583 -56.886  1.00  0.00     0.012 A 
BRANCH  28  31
HETATM   31  O   UNL     1     -44.238  58.557 -60.470  1.00  0.00    -0.356 OA
HETATM   32  C   UNL     1     -45.215  59.574 -60.649  1.00  0.00     0.210 C 
ENDBRANCH  28  31
ENDBRANCH   5  25
TORSDOF 5
ENDMDL
MODEL 9
REMARK VINA RESULT:      -7.3      3.501      5.362
REMARK  5 active torsions:
REMARK  status: ('A' for Active; 'I' for Inactive)
REMARK    1  A    between atoms: C_5  and  C_6 
REMARK    2  A    between atoms: C_9  and  O_10 
REMARK    3  A    between atoms: N_14  and  C_15 
REMARK    4  A    between atoms: C_15  and  C_16 
REMARK       I    between atoms: C_16  and  N_17 
REMARK    5  A    between atoms: N_17  and  C_18 
ROOT
HETATM    1  C   UNL     1     -41.700  63.034 -57.342  1.00  0.00     0.156 C 
HETATM    2  N   UNL     1     -41.819  61.751 -57.992  1.00  0.00    -0.346 N 
HETATM    3  C   UNL     1     -42.085  60.574 -57.379  1.00  0.00     0.113 A 
HETATM    4  C   UNL     1     -42.146  59.573 -58.312  1.00  0.00     0.014 A 
HETATM    5  C   UNL     1     -42.459  58.278 -57.655  1.00  0.00     0.158 C 
HETATM    6  N   UNL     1     -42.712  58.754 -56.274  1.00  0.00    -0.325 N 
HETATM    7  C   UNL     1     -42.391  60.095 -56.071  1.00  0.00     0.272 C 
HETATM    8  O   UNL     1     -42.396  60.706 -55.017  1.00  0.00    -0.266 OA
HETATM    9  C   UNL     1     -41.948  60.145 -59.582  1.00  0.00     0.002 A 
HETATM   10  C   UNL     1     -41.757  61.525 -59.364  1.00  0.00     0.045 A 
HETATM   11  C   UNL     1     -41.952  59.655 -60.901  1.00  0.00     0.014 A 
HETATM   12  C   UNL     1     -41.772  60.543 -61.967  1.00  0.00     0.001 A 
HETATM   13  C   UNL     1     -41.587  61.903 -61.734  1.00  0.00     0.002 A 
HETATM   14  C   UNL     1     -41.573  62.417 -60.433  1.00  0.00     0.030 A 
ENDROOT
BRANCH   6  15
HETATM   15  C   UNL     1     -43.222  57.878 -55.236  1.00  0.00     0.229 C 
BRANCH  15  16
HETATM   16  C   UNL     1     -42.142  57.141 -54.455  1.00  0.00     0.235 C 
HETATM   17  N   UNL     1     -42.305  55.772 -54.380  1.00  0.00    -0.355 N 
HETATM   18  H   UNL     1     -43.038  55.364 -54.953  1.00  0.00     0.162 HD
HETATM   19  O   UNL     1     -41.143  57.722 -54.033  1.00  0.00    -0.272 OA
BRANCH  17  20
HETATM   20  C   UNL     1     -41.189  54.941 -53.981  1.00  0.00     0.084 C 
HETATM   21  C   UNL     1     -41.507  54.002 -52.827  1.00  0.00     0.025 C 
HETATM   22  C   UNL     1     -40.368  52.994 -52.897  1.00  0.00     0.002 C 
HETATM   23  C   UNL     1     -40.113  52.790 -54.387  1.00  0.00     0.002 C 
HETATM   24  C   UNL     1     -40.743  53.990 -55.096  1.00  0.00     0.025 C 
ENDBRANCH  17  20
ENDBRANCH  15  16
ENDBRANCH   6  15
BRANCH   5  25
HETATM   25  C   UNL     1     -43.649  57.676 -58.356  1.00  0.00    -0.030 A 
HETATM   26  C   UNL     1     -43.502  56.446 -59.017  1.00  0.00     0.012 A 
HETATM   27  C   UNL     1     -44.585  55.854 -59.670  1.00  0.00     0.037 A 
HETATM   28  C   UNL     1     -45.838  56.469 -59.675  1.00  0.00     0.068 A 
HETATM   29  C   UNL     1     -45.996  57.693 -59.027  1.00  0.00     0.037 A 
HETATM   30  C   UNL     1     -44.911  58.292 -58.376  1.00  0.00     0.012 A 
BRANCH  28  31
HETATM   31  O   UNL     1     -46.810  55.779 -60.342  1.00  0.00    -0.356 OA
HETATM   32  C   UNL     1     -47.594  56.515 -61.272  1.00  0.00     0.210 C 
ENDBRANCH  28  31
ENDBRANCH   5  25
TORSDOF 5
ENDMDL
MODEL 10
REMARK VINA RESULT:      -7.2      3.319      5.254
REMARK  5 active torsions:
REMARK  status: ('A' for Active; 'I' for Inactive)
REMARK    1  A    between atoms: C_5  and  C_6 
REMARK    2  A    between atoms: C_9  and  O_10 
REMARK    3  A    between atoms: N_14  and  C_15 
REMARK    4  A    between atoms: C_15  and  C_16 
REMARK       I    between atoms: C_16  and  N_17 
REMARK    5  A    between atoms: N_17  and  C_18 
ROOT
HETATM    1  C   UNL     1     -44.078  63.575 -55.562  1.00  0.00     0.156 C 
HETATM    2  N   UNL     1     -43.396  62.459 -56.173  1.00  0.00    -0.346 N 
HETATM    3  C   UNL     1     -43.554  61.156 -55.841  1.00  0.00     0.113 A 
HETATM    4  C   UNL     1     -42.765  60.378 -56.645  1.00  0.00     0.014 A 
HETATM    5  C   UNL     1     -42.944  58.943 -56.306  1.00  0.00     0.158 C 
HETATM    6  N   UNL     1     -44.050  59.055 -55.325  1.00  0.00    -0.325 N 
HETATM    7  C   UNL     1     -44.350  60.366 -54.961  1.00  0.00     0.272 C 
HETATM    8  O   UNL     1     -45.130  60.735 -54.100  1.00  0.00    -0.266 OA
HETATM    9  C   UNL     1     -42.103  61.220 -57.558  1.00  0.00     0.002 A 
HETATM   10  C   UNL     1     -42.524  62.532 -57.255  1.00  0.00     0.045 A 
HETATM   11  C   UNL     1     -41.224  61.016 -58.637  1.00  0.00     0.014 A 
HETATM   12  C   UNL     1     -40.791  62.112 -59.391  1.00  0.00     0.001 A 
HETATM   13  C   UNL     1     -41.218  63.400 -59.079  1.00  0.00     0.002 A 
HETATM   14  C   UNL     1     -42.087  63.634 -58.009  1.00  0.00     0.030 A 
ENDROOT
BRANCH   6  15
HETATM   15  C   UNL     1     -44.727  57.890 -54.787  1.00  0.00     0.229 C 
BRANCH  15  16
HETATM   16  C   UNL     1     -43.814  56.931 -54.035  1.00  0.00     0.235 C 
HETATM   17  N   UNL     1     -43.385  55.838 -54.762  1.00  0.00    -0.355 N 
HETATM   18  H   UNL     1     -43.596  55.836 -55.756  1.00  0.00     0.162 HD
HETATM   19  O   UNL     1     -43.402  57.188 -52.904  1.00  0.00    -0.272 OA
BRANCH  17  20
HETATM   20  C   UNL     1     -42.258  55.062 -54.288  1.00  0.00     0.084 C 
HETATM   21  C   UNL     1     -42.335  53.588 -54.655  1.00  0.00     0.025 C 
HETATM   22  C   UNL     1     -40.903  53.117 -54.434  1.00  0.00     0.002 C 
HETATM   23  C   UNL     1     -40.030  54.280 -54.898  1.00  0.00     0.002 C 
HETATM   24  C   UNL     1     -40.935  55.513 -54.913  1.00  0.00     0.025 C 
ENDBRANCH  17  20
ENDBRANCH  15  16
ENDBRANCH   6  15
BRANCH   5  25
HETATM   25  C   UNL     1     -43.282  58.203 -57.575  1.00  0.00    -0.030 A 
HETATM   26  C   UNL     1     -42.469  57.132 -57.977  1.00  0.00     0.012 A 
HETATM   27  C   UNL     1     -42.756  56.418 -59.144  1.00  0.00     0.037 A 
HETATM   28  C   UNL     1     -43.861  56.750 -59.929  1.00  0.00     0.068 A 
HETATM   29  C   UNL     1     -44.673  57.816 -59.544  1.00  0.00     0.037 A 
HETATM   30  C   UNL     1     -44.384  58.537 -58.379  1.00  0.00     0.012 A 
BRANCH  28  31
HETATM   31  O   UNL     1     -44.031  55.967 -61.036  1.00  0.00    -0.356 OA
HETATM   32  C   UNL     1     -45.236  55.217 -61.110  1.00  0.00     0.210 C 
ENDBRANCH  28  31
ENDBRANCH   5  25
TORSDOF 5
ENDMDL
