MODEL 1
REMARK VINA RESULT:      -8.6      0.000      0.000
REMARK  7 active torsions:
REMARK  status: ('A' for Active; 'I' for Inactive)
REMARK    1  A    between atoms: C_2  and  C_3 
REMARK    2  A    between atoms: C_3  and  C_4 
REMARK    3  A    between atoms: C_7  and  C_8 
REMARK    4  A    between atoms: C_10  and  C_11 
REMARK    5  A    between atoms: C_14  and  N_15 
REMARK    6  A    between atoms: N_15  and  C_16 
REMARK    7  A    between atoms: C_17  and  C_18 
ROOT
HETATM    1  C   UNL     1     -44.439  58.365 -56.758  1.00  0.00     0.082 C 
HETATM    2  C   UNL     1     -45.250  59.629 -56.516  1.00  0.00     0.024 C 
HETATM    3  N   UNL     1     -45.921  60.677 -56.316  1.00  0.00    -0.096 N 
HETATM    4  C   UNL     1     -44.062  57.966 -57.988  1.00  0.00     0.113 C 
ENDROOT
BRANCH   1   5
HETATM    5  C   UNL     1     -44.007  57.632 -55.614  1.00  0.00     0.119 A 
HETATM    6  N   UNL     1     -43.034  56.742 -55.576  1.00  0.00    -0.239 NA
HETATM    7  C   UNL     1     -42.965  56.120 -54.334  1.00  0.00     0.075 A 
HETATM    8  C   UNL     1     -43.819  56.653 -53.389  1.00  0.00     0.084 A 
HETATM    9  S   UNL     1     -44.784  57.883 -54.084  1.00  0.00    -0.078 SA
BRANCH   7  10
HETATM   10  C   UNL     1     -42.061  54.993 -54.104  1.00  0.00    -0.007 A 
HETATM   11  C   UNL     1     -42.074  54.340 -52.863  1.00  0.00     0.014 A 
HETATM   12  C   UNL     1     -41.198  53.282 -52.595  1.00  0.00     0.008 A 
HETATM   13  C   UNL     1     -40.284  52.853 -53.564  1.00  0.00    -0.058 A 
HETATM   14  C   UNL     1     -40.264  53.502 -54.803  1.00  0.00     0.008 A 
HETATM   15  C   UNL     1     -41.140  54.560 -55.070  1.00  0.00     0.014 A 
BRANCH  13  16
HETATM   16  C   UNL     1     -39.334  51.714 -53.279  1.00  0.00     0.042 C 
BRANCH  16  17
HETATM   17  C   UNL     1     -39.988  50.323 -53.382  1.00  0.00    -0.019 C 
HETATM   18  C   UNL     1     -39.547  49.399 -52.242  1.00  0.00     0.010 C 
HETATM   19  C   UNL     1     -39.641  49.685 -54.728  1.00  0.00     0.010 C 
ENDBRANCH  16  17
ENDBRANCH  13  16
ENDBRANCH   7  10
ENDBRANCH   1   5
BRANCH   4  20
HETATM   20  N   UNL     1     -44.339  58.448 -59.262  1.00  0.00    -0.364 N 
HETATM   21  H   UNL     1     -44.382  59.468 -59.279  1.00  0.00     0.165 HD
BRANCH  20  22
HETATM   22  C   UNL     1     -45.313  57.850 -60.104  1.00  0.00     0.048 A 
HETATM   23  C   UNL     1     -45.283  56.461 -60.415  1.00  0.00     0.039 A 
HETATM   24  C   UNL     1     -46.354  55.841 -61.078  1.00  0.00     0.057 A 
HETATM   25  C   UNL     1     -47.426  56.627 -61.432  1.00  0.00     0.106 A 
HETATM   26  C   UNL     1     -47.453  57.976 -61.168  1.00  0.00     0.107 A 
HETATM   27  O   UNL     1     -48.551  56.198 -62.060  1.00  0.00    -0.323 OA
HETATM   28  O   UNL     1     -48.604  58.562 -61.592  1.00  0.00    -0.323 OA
HETATM   29  C   UNL     1     -46.418  58.616 -60.515  1.00  0.00     0.070 A 
HETATM   30  C   UNL     1     -49.331  57.411 -62.075  1.00  0.00     0.352 A 
BRANCH  23  31
HETATM   31  C   UNL     1     -44.115  55.600 -60.101  1.00  0.00     0.158 C 
HETATM   32  C   UNL     1     -44.351  54.285 -59.403  1.00  0.00     0.097 C 
HETATM   33  O   UNL     1     -42.982  56.001 -60.360  1.00  0.00    -0.293 OA
ENDBRANCH  23  31
ENDBRANCH  20  22
ENDBRANCH   4  20
TORSDOF 7
ENDMDL
MODEL 2
REMARK VINA RESULT:      -8.5      4.720     10.273
REMARK  7 active torsions:
REMARK  status: ('A' for Active; 'I' for Inactive)
REMARK    1  A    between atoms: C_2  and  C_3 
REMARK    2  A    between atoms: C_3  and  C_4 
REMARK    3  A    between atoms: C_7  and  C_8 
REMARK    4  A    between atoms: C_10  and  C_11 
REMARK    5  A    between atoms: C_14  and  N_15 
REMARK    6  A    between atoms: N_15  and  C_16 
REMARK    7  A    between atoms: C_17  and  C_18 
ROOT
HETATM    1  C   UNL     1     -42.653  56.438 -54.829  1.00  0.00     0.082 C 
HETATM    2  C   UNL     1     -43.765  57.050 -53.993  1.00  0.00     0.024 C 
HETATM    3  N   UNL     1     -44.688  57.557 -53.299  1.00  0.00    -0.096 N 
HETATM    4  C   UNL     1     -41.796  55.519 -54.342  1.00  0.00     0.113 C 
ENDROOT
BRANCH   1   5
HETATM    5  C   UNL     1     -42.584  56.808 -56.205  1.00  0.00     0.119 A 
HETATM    6  N   UNL     1     -42.117  57.944 -56.686  1.00  0.00    -0.239 NA
HETATM    7  C   UNL     1     -42.322  58.034 -58.059  1.00  0.00     0.075 A 
HETATM    8  C   UNL     1     -42.834  56.885 -58.629  1.00  0.00     0.084 A 
HETATM    9  S   UNL     1     -43.150  55.712 -57.423  1.00  0.00    -0.078 SA
BRANCH   7  10
HETATM   10  C   UNL     1     -42.020  59.266 -58.788  1.00  0.00    -0.007 A 
HETATM   11  C   UNL     1     -42.147  59.291 -60.184  1.00  0.00     0.014 A 
HETATM   12  C   UNL     1     -41.833  60.440 -60.917  1.00  0.00     0.008 A 
HETATM   13  C   UNL     1     -41.379  61.594 -60.270  1.00  0.00    -0.058 A 
HETATM   14  C   UNL     1     -41.246  61.576 -58.877  1.00  0.00     0.008 A 
HETATM   15  C   UNL     1     -41.562  60.425 -58.145  1.00  0.00     0.014 A 
BRANCH  13  16
HETATM   16  C   UNL     1     -41.034  62.836 -61.056  1.00  0.00     0.042 C 
BRANCH  16  17
HETATM   17  C   UNL     1     -39.523  63.017 -61.296  1.00  0.00    -0.019 C 
HETATM   18  C   UNL     1     -38.935  64.127 -60.420  1.00  0.00     0.010 C 
HETATM   19  C   UNL     1     -39.265  63.331 -62.770  1.00  0.00     0.010 C 
ENDBRANCH  16  17
ENDBRANCH  13  16
ENDBRANCH   7  10
ENDBRANCH   1   5
BRANCH   4  20
HETATM   20  N   UNL     1     -41.607  54.988 -53.072  1.00  0.00    -0.364 N 
HETATM   21  H   UNL     1     -41.363  55.710 -52.392  1.00  0.00     0.165 HD
BRANCH  20  22
HETATM   22  C   UNL     1     -40.898  53.778 -52.854  1.00  0.00     0.048 A 
HETATM   23  C   UNL     1     -40.567  53.328 -51.544  1.00  0.00     0.039 A 
HETATM   24  C   UNL     1     -40.049  52.042 -51.325  1.00  0.00     0.057 A 
HETATM   25  C   UNL     1     -39.855  51.238 -52.424  1.00  0.00     0.106 A 
HETATM   26  C   UNL     1     -40.138  51.671 -53.697  1.00  0.00     0.107 A 
HETATM   27  O   UNL     1     -39.380  49.965 -52.402  1.00  0.00    -0.323 OA
HETATM   28  O   UNL     1     -39.882  50.720 -54.635  1.00  0.00    -0.323 OA
HETATM   29  C   UNL     1     -40.652  52.928 -53.947  1.00  0.00     0.070 A 
HETATM   30  C   UNL     1     -39.488  49.612 -53.796  1.00  0.00     0.352 A 
BRANCH  23  31
HETATM   31  C   UNL     1     -40.708  54.195 -50.347  1.00  0.00     0.158 C 
HETATM   32  C   UNL     1     -39.524  54.359 -49.427  1.00  0.00     0.097 C 
HETATM   33  O   UNL     1     -41.796  54.709 -50.098  1.00  0.00    -0.293 OA
ENDBRANCH  23  31
ENDBRANCH  20  22
ENDBRANCH   4  20
TORSDOF 7
ENDMDL
MODEL 3
REMARK VINA RESULT:      -8.4      7.508     11.463
REMARK  7 active torsions:
REMARK  status: ('A' for Active; 'I' for Inactive)
REMARK    1  A    between atoms: C_2  and  C_3 
REMARK    2  A    between atoms: C_3  and  C_4 
REMARK    3  A    between atoms: C_7  and  C_8 
REMARK    4  A    between atoms: C_10  and  C_11 
REMARK    5  A    between atoms: C_14  and  N_15 
REMARK    6  A    between atoms: N_15  and  C_16 
REMARK    7  A    between atoms: C_17  and  C_18 
ROOT
HETATM    1  C   UNL     1     -42.780  59.289 -51.140  1.00  0.00     0.082 C 
HETATM    2  C   UNL     1     -41.303  59.559 -50.898  1.00  0.00     0.024 C 
HETATM    3  N   UNL     1     -40.078  59.781 -50.697  1.00  0.00    -0.096 N 
HETATM    4  C   UNL     1     -43.221  58.232 -51.848  1.00  0.00     0.113 C 
ENDROOT
BRANCH   1   5
HETATM    5  C   UNL     1     -43.718  60.162 -50.515  1.00  0.00     0.119 A 
HETATM    6  N   UNL     1     -43.567  60.772 -49.355  1.00  0.00    -0.239 NA
HETATM    7  C   UNL     1     -44.728  61.439 -48.979  1.00  0.00     0.075 A 
HETATM    8  C   UNL     1     -45.717  61.434 -49.942  1.00  0.00     0.084 A 
HETATM    9  S   UNL     1     -45.228  60.507 -51.294  1.00  0.00    -0.078 SA
BRANCH   7  10
HETATM   10  C   UNL     1     -44.846  62.064 -47.661  1.00  0.00    -0.007 A 
HETATM   11  C   UNL     1     -44.884  63.462 -47.561  1.00  0.00     0.014 A 
HETATM   12  C   UNL     1     -44.960  64.095 -46.316  1.00  0.00     0.008 A 
HETATM   13  C   UNL     1     -44.997  63.342 -45.137  1.00  0.00    -0.058 A 
HETATM   14  C   UNL     1     -44.956  61.946 -45.229  1.00  0.00     0.008 A 
HETATM   15  C   UNL     1     -44.880  61.315 -46.476  1.00  0.00     0.014 A 
BRANCH  13  16
HETATM   16  C   UNL     1     -45.075  64.020 -43.790  1.00  0.00     0.042 C 
BRANCH  16  17
HETATM   17  C   UNL     1     -44.291  63.289 -42.683  1.00  0.00    -0.019 C 
HETATM   18  C   UNL     1     -44.930  63.487 -41.305  1.00  0.00     0.010 C 
HETATM   19  C   UNL     1     -42.844  63.784 -42.658  1.00  0.00     0.010 C 
ENDBRANCH  16  17
ENDBRANCH  13  16
ENDBRANCH   7  10
ENDBRANCH   1   5
BRANCH   4  20
HETATM   20  N   UNL     1     -42.565  57.244 -52.575  1.00  0.00    -0.364 N 
HETATM   21  H   UNL     1     -43.023  57.067 -53.470  1.00  0.00     0.165 HD
BRANCH  20  22
HETATM   22  C   UNL     1     -42.078  56.056 -51.971  1.00  0.00     0.048 A 
HETATM   23  C   UNL     1     -41.406  55.053 -52.726  1.00  0.00     0.039 A 
HETATM   24  C   UNL     1     -40.753  53.982 -52.095  1.00  0.00     0.057 A 
HETATM   25  C   UNL     1     -40.800  53.927 -50.721  1.00  0.00     0.106 A 
HETATM   26  C   UNL     1     -41.474  54.870 -49.982  1.00  0.00     0.107 A 
HETATM   27  O   UNL     1     -40.215  52.979 -49.944  1.00  0.00    -0.323 OA
HETATM   28  O   UNL     1     -41.389  54.635 -48.645  1.00  0.00    -0.323 OA
HETATM   29  C   UNL     1     -42.123  55.937 -50.571  1.00  0.00     0.070 A 
HETATM   30  C   UNL     1     -40.514  53.486 -48.628  1.00  0.00     0.352 A 
BRANCH  23  31
HETATM   31  C   UNL     1     -41.390  55.052 -54.210  1.00  0.00     0.158 C 
HETATM   32  C   UNL     1     -40.167  54.532 -54.922  1.00  0.00     0.097 C 
HETATM   33  O   UNL     1     -42.343  55.527 -54.825  1.00  0.00    -0.293 OA
ENDBRANCH  23  31
ENDBRANCH  20  22
ENDBRANCH   4  20
TORSDOF 7
ENDMDL
MODEL 4
REMARK VINA RESULT:      -8.3      2.109      3.339
REMARK  7 active torsions:
REMARK  status: ('A' for Active; 'I' for Inactive)
REMARK    1  A    between atoms: C_2  and  C_3 
REMARK    2  A    between atoms: C_3  and  C_4 
REMARK    3  A    between atoms: C_7  and  C_8 
REMARK    4  A    between atoms: C_10  and  C_11 
REMARK    5  A    between atoms: C_14  and  N_15 
REMARK    6  A    between atoms: N_15  and  C_16 
REMARK    7  A    between atoms: C_17  and  C_18 
ROOT
HETATM    1  C   UNL     1     -44.579  58.717 -54.009  1.00  0.00     0.082 C 
HETATM    2  C   UNL     1     -45.396  59.921 -53.569  1.00  0.00     0.024 C 
HETATM    3  N   UNL     1     -46.074  60.920 -53.204  1.00  0.00    -0.096 N 
HETATM    4  C   UNL     1     -44.226  58.506 -55.292  1.00  0.00     0.113 C 
ENDROOT
BRANCH   1   5
HETATM    5  C   UNL     1     -44.112  57.832 -52.993  1.00  0.00     0.119 A 
HETATM    6  N   UNL     1     -43.095  56.998 -53.089  1.00  0.00    -0.239 NA
HETATM    7  C   UNL     1     -42.998  56.187 -51.963  1.00  0.00     0.075 A 
HETATM    8  C   UNL     1     -43.880  56.516 -50.954  1.00  0.00     0.084 A 
HETATM    9  S   UNL     1     -44.906  57.792 -51.452  1.00  0.00    -0.078 SA
BRANCH   7  10
HETATM   10  C   UNL     1     -42.037  55.085 -51.908  1.00  0.00    -0.007 A 
HETATM   11  C   UNL     1     -41.458  54.615 -53.095  1.00  0.00     0.014 A 
HETATM   12  C   UNL     1     -40.562  53.540 -53.085  1.00  0.00     0.008 A 
HETATM   13  C   UNL     1     -40.227  52.906 -51.884  1.00  0.00    -0.058 A 
HETATM   14  C   UNL     1     -40.804  53.368 -50.695  1.00  0.00     0.008 A 
HETATM   15  C   UNL     1     -41.699  54.443 -50.707  1.00  0.00     0.014 A 
BRANCH  13  16
HETATM   16  C   UNL     1     -39.264  51.742 -51.867  1.00  0.00     0.042 C 
BRANCH  16  17
HETATM   17  C   UNL     1     -39.942  50.375 -52.075  1.00  0.00    -0.019 C 
HETATM   18  C   UNL     1     -39.583  49.384 -50.964  1.00  0.00     0.010 C 
HETATM   19  C   UNL     1     -39.540  49.797 -53.433  1.00  0.00     0.010 C 
ENDBRANCH  16  17
ENDBRANCH  13  16
ENDBRANCH   7  10
ENDBRANCH   1   5
BRANCH   4  20
HETATM   20  N   UNL     1     -44.537  59.165 -56.476  1.00  0.00    -0.364 N 
HETATM   21  H   UNL     1     -45.404  59.698 -56.394  1.00  0.00     0.165 HD
BRANCH  20  22
HETATM   22  C   UNL     1     -44.398  58.548 -57.746  1.00  0.00     0.048 A 
HETATM   23  C   UNL     1     -43.231  58.729 -58.543  1.00  0.00     0.039 A 
HETATM   24  C   UNL     1     -43.013  57.962 -59.698  1.00  0.00     0.057 A 
HETATM   25  C   UNL     1     -43.975  57.041 -60.043  1.00  0.00     0.106 A 
HETATM   26  C   UNL     1     -45.121  56.880 -59.302  1.00  0.00     0.107 A 
HETATM   27  O   UNL     1     -43.925  56.204 -61.112  1.00  0.00    -0.323 OA
HETATM   28  O   UNL     1     -45.933  55.915 -59.811  1.00  0.00    -0.323 OA
HETATM   29  C   UNL     1     -45.365  57.616 -58.159  1.00  0.00     0.070 A 
HETATM   30  C   UNL     1     -45.124  55.431 -60.905  1.00  0.00     0.352 A 
BRANCH  23  31
HETATM   31  C   UNL     1     -42.206  59.756 -58.230  1.00  0.00     0.158 C 
HETATM   32  C   UNL     1     -41.916  60.827 -59.252  1.00  0.00     0.097 C 
HETATM   33  O   UNL     1     -41.576  59.679 -57.178  1.00  0.00    -0.293 OA
ENDBRANCH  23  31
ENDBRANCH  20  22
ENDBRANCH   4  20
TORSDOF 7
ENDMDL
MODEL 5
REMARK VINA RESULT:      -8.0      5.115     10.023
REMARK  7 active torsions:
REMARK  status: ('A' for Active; 'I' for Inactive)
REMARK    1  A    between atoms: C_2  and  C_3 
REMARK    2  A    between atoms: C_3  and  C_4 
REMARK    3  A    between atoms: C_7  and  C_8 
REMARK    4  A    between atoms: C_10  and  C_11 
REMARK    5  A    between atoms: C_14  and  N_15 
REMARK    6  A    between atoms: N_15  and  C_16 
REMARK    7  A    between atoms: C_17  and  C_18 
ROOT
HETATM    1  C   UNL     1     -43.653  56.493 -54.978  1.00  0.00     0.082 C 
HETATM    2  C   UNL     1     -43.216  56.153 -56.394  1.00  0.00     0.024 C 
HETATM    3  N   UNL     1     -42.853  55.871 -57.568  1.00  0.00    -0.096 N 
HETATM    4  C   UNL     1     -43.435  55.674 -53.931  1.00  0.00     0.113 C 
ENDROOT
BRANCH   1   5
HETATM    5  C   UNL     1     -44.244  57.773 -54.762  1.00  0.00     0.119 A 
HETATM    6  N   UNL     1     -44.354  58.399 -53.606  1.00  0.00    -0.239 NA
HETATM    7  C   UNL     1     -45.103  59.565 -53.731  1.00  0.00     0.075 A 
HETATM    8  C   UNL     1     -45.444  59.878 -55.032  1.00  0.00     0.084 A 
HETATM    9  S   UNL     1     -44.905  58.655 -56.101  1.00  0.00    -0.078 SA
BRANCH   7  10
HETATM   10  C   UNL     1     -45.482  60.348 -52.555  1.00  0.00    -0.007 A 
HETATM   11  C   UNL     1     -44.925  60.032 -51.307  1.00  0.00     0.014 A 
HETATM   12  C   UNL     1     -45.291  60.735 -50.154  1.00  0.00     0.008 A 
HETATM   13  C   UNL     1     -46.228  61.772 -50.222  1.00  0.00    -0.058 A 
HETATM   14  C   UNL     1     -46.790  62.091 -51.464  1.00  0.00     0.008 A 
HETATM   15  C   UNL     1     -46.422  61.386 -52.616  1.00  0.00     0.014 A 
BRANCH  13  16
HETATM   16  C   UNL     1     -46.629  62.533 -48.981  1.00  0.00     0.042 C 
BRANCH  16  17
HETATM   17  C   UNL     1     -45.736  62.240 -47.760  1.00  0.00    -0.019 C 
HETATM   18  C   UNL     1     -46.522  61.579 -46.623  1.00  0.00     0.010 C 
HETATM   19  C   UNL     1     -45.098  63.537 -47.261  1.00  0.00     0.010 C 
ENDBRANCH  16  17
ENDBRANCH  13  16
ENDBRANCH   7  10
ENDBRANCH   1   5
BRANCH   4  20
HETATM   20  N   UNL     1     -42.913  54.389 -53.833  1.00  0.00    -0.364 N 
HETATM   21  H   UNL     1     -43.590  53.683 -54.124  1.00  0.00     0.165 HD
BRANCH  20  22
HETATM   22  C   UNL     1     -42.136  53.969 -52.722  1.00  0.00     0.048 A 
HETATM   23  C   UNL     1     -40.897  53.288 -52.889  1.00  0.00     0.039 A 
HETATM   24  C   UNL     1     -40.041  53.057 -51.801  1.00  0.00     0.057 A 
HETATM   25  C   UNL     1     -40.451  53.495 -50.563  1.00  0.00     0.106 A 
HETATM   26  C   UNL     1     -41.660  54.123 -50.382  1.00  0.00     0.107 A 
HETATM   27  O   UNL     1     -39.750  53.374 -49.406  1.00  0.00    -0.323 OA
HETATM   28  O   UNL     1     -41.867  54.482 -49.086  1.00  0.00    -0.323 OA
HETATM   29  C   UNL     1     -42.523  54.370 -51.432  1.00  0.00     0.070 A 
HETATM   30  C   UNL     1     -40.611  54.084 -48.493  1.00  0.00     0.352 A 
BRANCH  23  31
HETATM   31  C   UNL     1     -40.455  52.750 -54.201  1.00  0.00     0.158 C 
HETATM   32  C   UNL     1     -40.232  51.265 -54.337  1.00  0.00     0.097 C 
HETATM   33  O   UNL     1     -40.225  53.526 -55.126  1.00  0.00    -0.293 OA
ENDBRANCH  23  31
ENDBRANCH  20  22
ENDBRANCH   4  20
TORSDOF 7
ENDMDL
MODEL 6
REMARK VINA RESULT:      -8.0      4.315      5.695
REMARK  7 active torsions:
REMARK  status: ('A' for Active; 'I' for Inactive)
REMARK    1  A    between atoms: C_2  and  C_3 
REMARK    2  A    between atoms: C_3  and  C_4 
REMARK    3  A    between atoms: C_7  and  C_8 
REMARK    4  A    between atoms: C_10  and  C_11 
REMARK    5  A    between atoms: C_14  and  N_15 
REMARK    6  A    between atoms: N_15  and  C_16 
REMARK    7  A    between atoms: C_17  and  C_18 
ROOT
HETATM    1  C   UNL     1     -42.625  60.390 -55.505  1.00  0.00     0.082 C 
HETATM    2  C   UNL     1     -43.742  61.259 -54.947  1.00  0.00     0.024 C 
HETATM    3  N   UNL     1     -44.668  61.979 -54.485  1.00  0.00    -0.096 N 
HETATM    4  C   UNL     1     -42.090  60.587 -56.725  1.00  0.00     0.113 C 
ENDROOT
BRANCH   1   5
HETATM    5  C   UNL     1     -42.087  59.384 -54.651  1.00  0.00     0.119 A 
HETATM    6  N   UNL     1     -41.875  58.121 -54.967  1.00  0.00    -0.239 NA
HETATM    7  C   UNL     1     -41.469  57.383 -53.860  1.00  0.00     0.075 A 
HETATM    8  C   UNL     1     -41.247  58.142 -52.728  1.00  0.00     0.084 A 
HETATM    9  S   UNL     1     -41.640  59.781 -53.023  1.00  0.00    -0.078 SA
BRANCH   7  10
HETATM   10  C   UNL     1     -41.318  55.930 -53.936  1.00  0.00    -0.007 A 
HETATM   11  C   UNL     1     -40.386  55.379 -54.828  1.00  0.00     0.014 A 
HETATM   12  C   UNL     1     -40.239  53.993 -54.953  1.00  0.00     0.008 A 
HETATM   13  C   UNL     1     -41.026  53.123 -54.190  1.00  0.00    -0.058 A 
HETATM   14  C   UNL     1     -41.960  53.666 -53.301  1.00  0.00     0.008 A 
HETATM   15  C   UNL     1     -42.105  55.052 -53.176  1.00  0.00     0.014 A 
BRANCH  13  16
HETATM   16  C   UNL     1     -40.875  51.627 -54.324  1.00  0.00     0.042 C 
BRANCH  16  17
HETATM   17  C   UNL     1     -39.528  51.091 -53.801  1.00  0.00    -0.019 C 
HETATM   18  C   UNL     1     -39.443  49.565 -53.899  1.00  0.00     0.010 C 
HETATM   19  C   UNL     1     -39.323  51.528 -52.350  1.00  0.00     0.010 C 
ENDBRANCH  16  17
ENDBRANCH  13  16
ENDBRANCH   7  10
ENDBRANCH   1   5
BRANCH   4  20
HETATM   20  N   UNL     1     -42.407  61.453 -57.766  1.00  0.00    -0.364 N 
HETATM   21  H   UNL     1     -43.339  61.267 -58.140  1.00  0.00     0.165 HD
BRANCH  20  22
HETATM   22  C   UNL     1     -41.474  61.796 -58.778  1.00  0.00     0.048 A 
HETATM   23  C   UNL     1     -41.658  61.399 -60.133  1.00  0.00     0.039 A 
HETATM   24  C   UNL     1     -40.845  61.908 -61.157  1.00  0.00     0.057 A 
HETATM   25  C   UNL     1     -39.852  62.791 -60.804  1.00  0.00     0.106 A 
HETATM   26  C   UNL     1     -39.642  63.157 -59.496  1.00  0.00     0.107 A 
HETATM   27  O   UNL     1     -38.985  63.395 -61.658  1.00  0.00    -0.323 OA
HETATM   28  O   UNL     1     -38.618  64.044 -59.366  1.00  0.00    -0.323 OA
HETATM   29  C   UNL     1     -40.426  62.678 -58.465  1.00  0.00     0.070 A 
HETATM   30  C   UNL     1     -38.269  64.256 -60.751  1.00  0.00     0.352 A 
BRANCH  23  31
HETATM   31  C   UNL     1     -42.681  60.401 -60.537  1.00  0.00     0.158 C 
HETATM   32  C   UNL     1     -42.360  58.935 -60.396  1.00  0.00     0.097 C 
HETATM   33  O   UNL     1     -43.739  60.787 -61.031  1.00  0.00    -0.293 OA
ENDBRANCH  23  31
ENDBRANCH  20  22
ENDBRANCH   4  20
TORSDOF 7
ENDMDL
MODEL 7
REMARK VINA RESULT:      -7.9      4.958     10.224
REMARK  7 active torsions:
REMARK  status: ('A' for Active; 'I' for Inactive)
REMARK    1  A    between atoms: C_2  and  C_3 
REMARK    2  A    between atoms: C_3  and  C_4 
REMARK    3  A    between atoms: C_7  and  C_8 
REMARK    4  A    between atoms: C_10  and  C_11 
REMARK    5  A    between atoms: C_14  and  N_15 
REMARK    6  A    between atoms: N_15  and  C_16 
REMARK    7  A    between atoms: C_17  and  C_18 
ROOT
HETATM    1  C   UNL     1     -42.526  57.518 -53.133  1.00  0.00     0.082 C 
HETATM    2  C   UNL     1     -41.495  58.187 -52.237  1.00  0.00     0.024 C 
HETATM    3  N   UNL     1     -40.640  58.741 -51.494  1.00  0.00    -0.096 N 
HETATM    4  C   UNL     1     -43.045  56.304 -52.867  1.00  0.00     0.113 C 
ENDROOT
BRANCH   1   5
HETATM    5  C   UNL     1     -43.005  58.262 -54.252  1.00  0.00     0.119 A 
HETATM    6  N   UNL     1     -42.288  59.041 -55.038  1.00  0.00    -0.239 NA
HETATM    7  C   UNL     1     -43.092  59.720 -55.947  1.00  0.00     0.075 A 
HETATM    8  C   UNL     1     -44.418  59.338 -55.922  1.00  0.00     0.084 A 
HETATM    9  S   UNL     1     -44.682  58.184 -54.686  1.00  0.00    -0.078 SA
BRANCH   7  10
HETATM   10  C   UNL     1     -42.535  60.753 -56.822  1.00  0.00    -0.007 A 
HETATM   11  C   UNL     1     -41.509  60.418 -57.717  1.00  0.00     0.014 A 
HETATM   12  C   UNL     1     -40.928  61.386 -58.544  1.00  0.00     0.008 A 
HETATM   13  C   UNL     1     -41.359  62.716 -58.492  1.00  0.00    -0.058 A 
HETATM   14  C   UNL     1     -42.381  63.058 -57.599  1.00  0.00     0.008 A 
HETATM   15  C   UNL     1     -42.961  62.088 -56.773  1.00  0.00     0.014 A 
BRANCH  13  16
HETATM   16  C   UNL     1     -40.734  63.766 -59.379  1.00  0.00     0.042 C 
BRANCH  16  17
HETATM   17  C   UNL     1     -39.406  63.321 -60.022  1.00  0.00    -0.019 C 
HETATM   18  C   UNL     1     -38.264  64.290 -59.702  1.00  0.00     0.010 C 
HETATM   19  C   UNL     1     -39.576  63.205 -61.538  1.00  0.00     0.010 C 
ENDBRANCH  16  17
ENDBRANCH  13  16
ENDBRANCH   7  10
ENDBRANCH   1   5
BRANCH   4  20
HETATM   20  N   UNL     1     -42.770  55.356 -51.888  1.00  0.00    -0.364 N 
HETATM   21  H   UNL     1     -42.825  55.755 -50.950  1.00  0.00     0.165 HD
BRANCH  20  22
HETATM   22  C   UNL     1     -41.715  54.417 -52.018  1.00  0.00     0.048 A 
HETATM   23  C   UNL     1     -40.913  54.033 -50.905  1.00  0.00     0.039 A 
HETATM   24  C   UNL     1     -40.009  52.962 -50.995  1.00  0.00     0.057 A 
HETATM   25  C   UNL     1     -39.912  52.309 -52.201  1.00  0.00     0.106 A 
HETATM   26  C   UNL     1     -40.655  52.690 -53.293  1.00  0.00     0.107 A 
HETATM   27  O   UNL     1     -39.109  51.246 -52.466  1.00  0.00    -0.323 OA
HETATM   28  O   UNL     1     -40.415  51.909 -54.380  1.00  0.00    -0.323 OA
HETATM   29  C   UNL     1     -41.556  53.736 -53.237  1.00  0.00     0.070 A 
HETATM   30  C   UNL     1     -39.501  50.941 -53.820  1.00  0.00     0.352 A 
BRANCH  23  31
HETATM   31  C   UNL     1     -40.950  54.757 -49.610  1.00  0.00     0.158 C 
HETATM   32  C   UNL     1     -40.595  54.009 -48.350  1.00  0.00     0.097 C 
HETATM   33  O   UNL     1     -41.325  55.927 -49.583  1.00  0.00    -0.293 OA
ENDBRANCH  23  31
ENDBRANCH  20  22
ENDBRANCH   4  20
TORSDOF 7
ENDMDL
MODEL 8
REMARK VINA RESULT:      -7.8      6.509      9.051
REMARK  7 active torsions:
REMARK  status: ('A' for Active; 'I' for Inactive)
REMARK    1  A    between atoms: C_2  and  C_3 
REMARK    2  A    between atoms: C_3  and  C_4 
REMARK    3  A    between atoms: C_7  and  C_8 
REMARK    4  A    between atoms: C_10  and  C_11 
REMARK    5  A    between atoms: C_14  and  N_15 
REMARK    6  A    between atoms: N_15  and  C_16 
REMARK    7  A    between atoms: C_17  and  C_18 
ROOT
HETATM    1  C   UNL     1     -43.353  60.445 -52.017  1.00  0.00     0.082 C 
HETATM    2  C   UNL     1     -44.483  60.289 -53.024  1.00  0.00     0.024 C 
HETATM    3  N   UNL     1     -45.420  60.160 -53.857  1.00  0.00    -0.096 N 
HETATM    4  C   UNL     1     -43.237  61.519 -51.214  1.00  0.00     0.113 C 
ENDROOT
BRANCH   1   5
HETATM    5  C   UNL     1     -42.439  59.359 -51.883  1.00  0.00     0.119 A 
HETATM    6  N   UNL     1     -42.403  58.270 -52.626  1.00  0.00    -0.239 NA
HETATM    7  C   UNL     1     -41.476  57.355 -52.139  1.00  0.00     0.075 A 
HETATM    8  C   UNL     1     -40.714  57.829 -51.090  1.00  0.00     0.084 A 
HETATM    9  S   UNL     1     -41.224  59.401 -50.646  1.00  0.00    -0.078 SA
BRANCH   7  10
HETATM   10  C   UNL     1     -41.366  56.013 -52.714  1.00  0.00    -0.007 A 
HETATM   11  C   UNL     1     -41.872  54.915 -52.003  1.00  0.00     0.014 A 
HETATM   12  C   UNL     1     -41.753  53.614 -52.505  1.00  0.00     0.008 A 
HETATM   13  C   UNL     1     -41.120  53.381 -53.731  1.00  0.00    -0.058 A 
HETATM   14  C   UNL     1     -40.609  54.471 -54.443  1.00  0.00     0.008 A 
HETATM   15  C   UNL     1     -40.730  55.772 -53.940  1.00  0.00     0.014 A 
BRANCH  13  16
HETATM   16  C   UNL     1     -40.985  51.979 -54.275  1.00  0.00     0.042 C 
BRANCH  16  17
HETATM   17  C   UNL     1     -39.644  51.305 -53.925  1.00  0.00    -0.019 C 
HETATM   18  C   UNL     1     -39.537  49.901 -54.526  1.00  0.00     0.010 C 
HETATM   19  C   UNL     1     -39.480  51.232 -52.406  1.00  0.00     0.010 C 
ENDBRANCH  16  17
ENDBRANCH  13  16
ENDBRANCH   7  10
ENDBRANCH   1   5
BRANCH   4  20
HETATM   20  N   UNL     1     -43.944  62.713 -51.127  1.00  0.00    -0.364 N 
HETATM   21  H   UNL     1     -43.353  63.518 -51.342  1.00  0.00     0.165 HD
BRANCH  20  22
HETATM   22  C   UNL     1     -44.859  62.978 -50.076  1.00  0.00     0.048 A 
HETATM   23  C   UNL     1     -46.241  63.215 -50.327  1.00  0.00     0.039 A 
HETATM   24  C   UNL     1     -47.171  63.275 -49.278  1.00  0.00     0.057 A 
HETATM   25  C   UNL     1     -46.698  63.115 -47.997  1.00  0.00     0.106 A 
HETATM   26  C   UNL     1     -45.363  62.920 -47.737  1.00  0.00     0.107 A 
HETATM   27  O   UNL     1     -47.451  63.127 -46.866  1.00  0.00    -0.323 OA
HETATM   28  O   UNL     1     -45.110  62.777 -46.408  1.00  0.00    -0.323 OA
HETATM   29  C   UNL     1     -44.422  62.851 -48.746  1.00  0.00     0.070 A 
HETATM   30  C   UNL     1     -46.451  62.819 -45.873  1.00  0.00     0.352 A 
BRANCH  23  31
HETATM   31  C   UNL     1     -46.771  63.452 -51.694  1.00  0.00     0.158 C 
HETATM   32  C   UNL     1     -47.758  62.468 -52.270  1.00  0.00     0.097 C 
HETATM   33  O   UNL     1     -46.354  64.406 -52.346  1.00  0.00    -0.293 OA
ENDBRANCH  23  31
ENDBRANCH  20  22
ENDBRANCH   4  20
TORSDOF 7
ENDMDL
MODEL 9
REMARK VINA RESULT:      -7.7      3.801      9.909
REMARK  7 active torsions:
REMARK  status: ('A' for Active; 'I' for Inactive)
REMARK    1  A    between atoms: C_2  and  C_3 
REMARK    2  A    between atoms: C_3  and  C_4 
REMARK    3  A    between atoms: C_7  and  C_8 
REMARK    4  A    between atoms: C_10  and  C_11 
REMARK    5  A    between atoms: C_14  and  N_15 
REMARK    6  A    between atoms: N_15  and  C_16 
REMARK    7  A    between atoms: C_17  and  C_18 
ROOT
HETATM    1  C   UNL     1     -42.778  56.859 -53.139  1.00  0.00     0.082 C 
HETATM    2  C   UNL     1     -43.738  57.099 -51.984  1.00  0.00     0.024 C 
HETATM    3  N   UNL     1     -44.533  57.298 -51.026  1.00  0.00    -0.096 N 
HETATM    4  C   UNL     1     -41.739  56.006 -53.057  1.00  0.00     0.113 C 
ENDROOT
BRANCH   1   5
HETATM    5  C   UNL     1     -43.058  57.516 -54.373  1.00  0.00     0.119 A 
HETATM    6  N   UNL     1     -44.031  57.220 -55.214  1.00  0.00    -0.239 NA
HETATM    7  C   UNL     1     -43.935  57.969 -56.382  1.00  0.00     0.075 A 
HETATM    8  C   UNL     1     -42.949  58.934 -56.353  1.00  0.00     0.084 A 
HETATM    9  S   UNL     1     -42.070  58.845 -54.887  1.00  0.00    -0.078 SA
BRANCH   7  10
HETATM   10  C   UNL     1     -44.817  57.707 -57.520  1.00  0.00    -0.007 A 
HETATM   11  C   UNL     1     -46.184  58.004 -57.416  1.00  0.00     0.014 A 
HETATM   12  C   UNL     1     -47.063  57.735 -58.471  1.00  0.00     0.008 A 
HETATM   13  C   UNL     1     -46.595  57.158 -59.656  1.00  0.00    -0.058 A 
HETATM   14  C   UNL     1     -45.233  56.856 -59.765  1.00  0.00     0.008 A 
HETATM   15  C   UNL     1     -44.355  57.126 -58.710  1.00  0.00     0.014 A 
BRANCH  13  16
HETATM   16  C   UNL     1     -47.540  56.861 -60.796  1.00  0.00     0.042 C 
BRANCH  16  17
HETATM   17  C   UNL     1     -47.755  58.053 -61.748  1.00  0.00    -0.019 C 
HETATM   18  C   UNL     1     -48.085  59.340 -60.986  1.00  0.00     0.010 C 
HETATM   19  C   UNL     1     -48.879  57.734 -62.735  1.00  0.00     0.010 C 
ENDBRANCH  16  17
ENDBRANCH  13  16
ENDBRANCH   7  10
ENDBRANCH   1   5
BRANCH   4  20
HETATM   20  N   UNL     1     -41.215  55.256 -52.011  1.00  0.00    -0.364 N 
HETATM   21  H   UNL     1     -40.678  55.835 -51.364  1.00  0.00     0.165 HD
BRANCH  20  22
HETATM   22  C   UNL     1     -40.629  53.979 -52.212  1.00  0.00     0.048 A 
HETATM   23  C   UNL     1     -40.113  53.213 -51.128  1.00  0.00     0.039 A 
HETATM   24  C   UNL     1     -39.721  51.876 -51.305  1.00  0.00     0.057 A 
HETATM   25  C   UNL     1     -39.835  51.339 -52.566  1.00  0.00     0.106 A 
HETATM   26  C   UNL     1     -40.299  52.078 -53.627  1.00  0.00     0.107 A 
HETATM   27  O   UNL     1     -39.521  50.065 -52.917  1.00  0.00    -0.323 OA
HETATM   28  O   UNL     1     -40.341  51.357 -54.780  1.00  0.00    -0.323 OA
HETATM   29  C   UNL     1     -40.697  53.394 -53.488  1.00  0.00     0.070 A 
HETATM   30  C   UNL     1     -39.932  50.058 -54.299  1.00  0.00     0.352 A 
BRANCH  23  31
HETATM   31  C   UNL     1     -39.920  53.783 -49.771  1.00  0.00     0.158 C 
HETATM   32  C   UNL     1     -40.777  53.270 -48.641  1.00  0.00     0.097 C 
HETATM   33  O   UNL     1     -39.114  54.696 -49.609  1.00  0.00    -0.293 OA
ENDBRANCH  23  31
ENDBRANCH  20  22
ENDBRANCH   4  20
TORSDOF 7
ENDMDL
MODEL 10
REMARK VINA RESULT:      -7.7      2.571      3.822
REMARK  7 active torsions:
REMARK  status: ('A' for Active; 'I' for Inactive)
REMARK    1  A    between atoms: C_2  and  C_3 
REMARK    2  A    between atoms: C_3  and  C_4 
REMARK    3  A    between atoms: C_7  and  C_8 
REMARK    4  A    between atoms: C_10  and  C_11 
REMARK    5  A    between atoms: C_14  and  N_15 
REMARK    6  A    between atoms: N_15  and  C_16 
REMARK    7  A    between atoms: C_17  and  C_18 
ROOT
HETATM    1  C   UNL     1     -44.862  58.749 -53.691  1.00  0.00     0.082 C 
HETATM    2  C   UNL     1     -45.487  59.941 -52.983  1.00  0.00     0.024 C 
HETATM    3  N   UNL     1     -46.006  60.929 -52.396  1.00  0.00    -0.096 N 
HETATM    4  C   UNL     1     -44.812  58.642 -55.032  1.00  0.00     0.113 C 
ENDROOT
BRANCH   1   5
HETATM    5  C   UNL     1     -44.240  57.755 -52.879  1.00  0.00     0.119 A 
HETATM    6  N   UNL     1     -43.295  56.916 -53.256  1.00  0.00    -0.239 NA
HETATM    7  C   UNL     1     -43.010  55.991 -52.257  1.00  0.00     0.075 A 
HETATM    8  C   UNL     1     -43.664  56.231 -51.065  1.00  0.00     0.084 A 
HETATM    9  S   UNL     1     -44.717  57.571 -51.222  1.00  0.00    -0.078 SA
BRANCH   7  10
HETATM   10  C   UNL     1     -42.101  54.871 -52.502  1.00  0.00    -0.007 A 
HETATM   11  C   UNL     1     -41.549  54.180 -51.414  1.00  0.00     0.014 A 
HETATM   12  C   UNL     1     -40.648  53.127 -51.609  1.00  0.00     0.008 A 
HETATM   13  C   UNL     1     -40.275  52.742 -52.902  1.00  0.00    -0.058 A 
HETATM   14  C   UNL     1     -40.819  53.430 -53.992  1.00  0.00     0.008 A 
HETATM   15  C   UNL     1     -41.720  54.483 -53.795  1.00  0.00     0.014 A 
BRANCH  13  16
HETATM   16  C   UNL     1     -39.300  51.610 -53.119  1.00  0.00     0.042 C 
BRANCH  16  17
HETATM   17  C   UNL     1     -39.978  50.248 -53.365  1.00  0.00    -0.019 C 
HETATM   18  C   UNL     1     -39.573  49.210 -52.315  1.00  0.00     0.010 C 
HETATM   19  C   UNL     1     -39.623  49.736 -54.762  1.00  0.00     0.010 C 
ENDBRANCH  16  17
ENDBRANCH  13  16
ENDBRANCH   7  10
ENDBRANCH   1   5
BRANCH   4  20
HETATM   20  N   UNL     1     -45.334  59.420 -56.060  1.00  0.00    -0.364 N 
HETATM   21  H   UNL     1     -46.354  59.437 -56.039  1.00  0.00     0.165 HD
BRANCH  20  22
HETATM   22  C   UNL     1     -44.819  59.375 -57.381  1.00  0.00     0.048 A 
HETATM   23  C   UNL     1     -45.669  59.207 -58.511  1.00  0.00     0.039 A 
HETATM   24  C   UNL     1     -45.182  59.364 -59.818  1.00  0.00     0.057 A 
HETATM   25  C   UNL     1     -43.849  59.668 -59.970  1.00  0.00     0.106 A 
HETATM   26  C   UNL     1     -43.010  59.800 -58.889  1.00  0.00     0.107 A 
HETATM   27  O   UNL     1     -43.211  59.872 -61.151  1.00  0.00    -0.323 OA
HETATM   28  O   UNL     1     -41.738  60.109 -59.258  1.00  0.00    -0.323 OA
HETATM   29  C   UNL     1     -43.458  59.655 -57.590  1.00  0.00     0.070 A 
HETATM   30  C   UNL     1     -41.896  60.242 -60.687  1.00  0.00     0.352 A 
BRANCH  23  31
HETATM   31  C   UNL     1     -47.096  58.819 -58.382  1.00  0.00     0.158 C 
HETATM   32  C   UNL     1     -48.158  59.817 -58.772  1.00  0.00     0.097 C 
HETATM   33  O   UNL     1     -47.383  57.722 -57.907  1.00  0.00    -0.293 OA
ENDBRANCH  23  31
ENDBRANCH  20  22
ENDBRANCH   4  20
TORSDOF 7
ENDMDL
