MODEL 1
REMARK VINA RESULT:      -8.0      0.000      0.000
REMARK  3 active torsions:
REMARK  status: ('A' for Active; 'I' for Inactive)
REMARK    1  A    between atoms: O_2  and  C_3 
REMARK    2  A    between atoms: C_7  and  C_8 
REMARK    3  A    between atoms: C_19  and  N_20 
ROOT
HETATM    1  C   UNL     1     -42.132  54.898 -50.334  1.00  0.00     0.244 A 
HETATM    2  N   UNL     1     -41.323  54.083 -51.209  1.00  0.00    -0.151 N 
HETATM    3  C   UNL     1     -40.279  53.346 -50.712  1.00  0.00     0.734 A 
HETATM    4  N   UNL     1     -39.700  52.688 -51.693  1.00  0.00    -0.060 NA
HETATM    5  C   UNL     1     -40.399  52.995 -52.834  1.00  0.00     0.103 A 
HETATM    6  C   UNL     1     -41.449  53.864 -52.554  1.00  0.00     0.083 A 
HETATM    7  C   UNL     1     -40.194  52.562 -54.151  1.00  0.00     0.034 A 
HETATM    8  C   UNL     1     -41.060  53.017 -55.150  1.00  0.00     0.002 A 
HETATM    9  C   UNL     1     -42.112  53.882 -54.845  1.00  0.00     0.002 A 
HETATM   10  C   UNL     1     -42.333  54.326 -53.537  1.00  0.00     0.033 A 
HETATM   11  N   UNL     1     -39.944  53.339 -49.402  1.00  0.00    -0.033 NA
HETATM   12  C   UNL     1     -40.641  54.031 -48.576  1.00  0.00     0.193 A 
HETATM   13  N   UNL     1     -41.741  54.821 -48.927  1.00  0.00    -0.339 N 
HETATM   14  H   UNL     1     -42.172  55.429 -48.248  1.00  0.00     0.164 HD
ENDROOT
BRANCH   1  15
HETATM   15  C   UNL     1     -42.098  56.364 -50.731  1.00  0.00    -0.014 A 
HETATM   16  C   UNL     1     -40.932  57.135 -50.565  1.00  0.00     0.033 A 
HETATM   17  C   UNL     1     -40.905  58.478 -50.954  1.00  0.00     0.044 A 
HETATM   18  C   UNL     1     -42.037  59.066 -51.522  1.00  0.00     0.085 A 
HETATM   19 BR   UNL     1     -39.297  59.452 -50.710  1.00  0.00    -0.048 Br
HETATM   20  C   UNL     1     -43.211  58.323 -51.654  1.00  0.00     0.039 A 
HETATM   21  C   UNL     1     -43.243  56.981 -51.262  1.00  0.00     0.014 A 
BRANCH  18  22
HETATM   22  O   UNL     1     -42.009  60.388 -51.878  1.00  0.00    -0.355 OA
HETATM   23  C   UNL     1     -42.451  60.592 -53.220  1.00  0.00     0.210 C 
ENDBRANCH  18  22
ENDBRANCH   1  15
BRANCH  12  24
HETATM   24  N   UNL     1     -40.369  54.082 -47.256  1.00  0.00    -0.272 NA
HETATM   25  H   UNL     1     -39.865  53.250 -46.955  1.00  0.00     0.127 HD
HETATM   26  H   UNL     1     -41.146  54.276 -46.639  1.00  0.00     0.127 HD
ENDBRANCH  12  24
TORSDOF 3
ENDMDL
MODEL 2
REMARK VINA RESULT:      -7.8      3.431      4.483
REMARK  3 active torsions:
REMARK  status: ('A' for Active; 'I' for Inactive)
REMARK    1  A    between atoms: O_2  and  C_3 
REMARK    2  A    between atoms: C_7  and  C_8 
REMARK    3  A    between atoms: C_19  and  N_20 
ROOT
HETATM    1  C   UNL     1     -43.675  55.463 -53.321  1.00  0.00     0.244 A 
HETATM    2  N   UNL     1     -42.597  54.793 -52.632  1.00  0.00    -0.151 N 
HETATM    3  C   UNL     1     -42.322  55.079 -51.319  1.00  0.00     0.734 A 
HETATM    4  N   UNL     1     -41.308  54.345 -50.914  1.00  0.00    -0.060 NA
HETATM    5  C   UNL     1     -40.942  53.563 -51.981  1.00  0.00     0.103 A 
HETATM    6  C   UNL     1     -41.756  53.811 -53.081  1.00  0.00     0.083 A 
HETATM    7  C   UNL     1     -39.919  52.610 -52.081  1.00  0.00     0.034 A 
HETATM    8  C   UNL     1     -39.750  51.930 -53.291  1.00  0.00     0.002 A 
HETATM    9  C   UNL     1     -40.585  52.190 -54.379  1.00  0.00     0.002 A 
HETATM   10  C   UNL     1     -41.611  53.138 -54.300  1.00  0.00     0.033 A 
HETATM   11  N   UNL     1     -43.022  55.988 -50.604  1.00  0.00    -0.033 NA
HETATM   12  C   UNL     1     -44.003  56.599 -51.161  1.00  0.00     0.193 A 
HETATM   13  N   UNL     1     -44.414  56.407 -52.485  1.00  0.00    -0.339 N 
HETATM   14  H   UNL     1     -45.117  57.002 -52.894  1.00  0.00     0.164 HD
ENDROOT
BRANCH   1  15
HETATM   15  C   UNL     1     -43.182  56.228 -54.537  1.00  0.00    -0.014 A 
HETATM   16  C   UNL     1     -43.399  55.740 -55.840  1.00  0.00     0.033 A 
HETATM   17  C   UNL     1     -42.959  56.463 -56.954  1.00  0.00     0.044 A 
HETATM   18  C   UNL     1     -42.307  57.685 -56.783  1.00  0.00     0.085 A 
HETATM   19 BR   UNL     1     -43.295  55.749 -58.677  1.00  0.00    -0.048 Br
HETATM   20  C   UNL     1     -42.050  58.159 -55.495  1.00  0.00     0.039 A 
HETATM   21  C   UNL     1     -42.484  57.437 -54.379  1.00  0.00     0.014 A 
BRANCH  18  22
HETATM   22  O   UNL     1     -41.859  58.374 -57.878  1.00  0.00    -0.355 OA
HETATM   23  C   UNL     1     -41.883  59.786 -57.670  1.00  0.00     0.210 C 
ENDBRANCH  18  22
ENDBRANCH   1  15
BRANCH  12  24
HETATM   24  N   UNL     1     -44.746  57.523 -50.519  1.00  0.00    -0.272 NA
HETATM   25  H   UNL     1     -44.516  57.551 -49.527  1.00  0.00     0.127 HD
HETATM   26  H   UNL     1     -45.748  57.476 -50.655  1.00  0.00     0.127 HD
ENDBRANCH  12  24
TORSDOF 3
ENDMDL
MODEL 3
REMARK VINA RESULT:      -7.7      3.027      4.283
REMARK  3 active torsions:
REMARK  status: ('A' for Active; 'I' for Inactive)
REMARK    1  A    between atoms: O_2  and  C_3 
REMARK    2  A    between atoms: C_7  and  C_8 
REMARK    3  A    between atoms: C_19  and  N_20 
ROOT
HETATM    1  C   UNL     1     -43.539  55.135 -53.224  1.00  0.00     0.244 A 
HETATM    2  N   UNL     1     -42.393  54.546 -52.572  1.00  0.00    -0.151 N 
HETATM    3  C   UNL     1     -42.038  54.924 -51.302  1.00  0.00     0.734 A 
HETATM    4  N   UNL     1     -40.973  54.250 -50.925  1.00  0.00    -0.060 NA
HETATM    5  C   UNL     1     -40.654  53.412 -51.964  1.00  0.00     0.103 A 
HETATM    6  C   UNL     1     -41.551  53.562 -53.017  1.00  0.00     0.083 A 
HETATM    7  C   UNL     1     -39.608  52.486 -52.076  1.00  0.00     0.034 A 
HETATM    8  C   UNL     1     -39.499  51.733 -53.250  1.00  0.00     0.002 A 
HETATM    9  C   UNL     1     -40.415  51.896 -54.290  1.00  0.00     0.002 A 
HETATM   10  C   UNL     1     -41.466  52.815 -54.198  1.00  0.00     0.033 A 
HETATM   11  N   UNL     1     -42.718  55.857 -50.598  1.00  0.00    -0.033 NA
HETATM   12  C   UNL     1     -43.757  56.399 -51.122  1.00  0.00     0.193 A 
HETATM   13  N   UNL     1     -44.251  56.109 -52.398  1.00  0.00    -0.339 N 
HETATM   14  H   UNL     1     -45.001  56.654 -52.793  1.00  0.00     0.164 HD
ENDROOT
BRANCH   1  15
HETATM   15  C   UNL     1     -43.158  55.834 -54.518  1.00  0.00    -0.014 A 
HETATM   16  C   UNL     1     -42.862  57.210 -54.541  1.00  0.00     0.033 A 
HETATM   17  C   UNL     1     -42.493  57.839 -55.734  1.00  0.00     0.044 A 
HETATM   18  C   UNL     1     -42.403  57.102 -56.916  1.00  0.00     0.085 A 
HETATM   19 BR   UNL     1     -42.099  59.693 -55.688  1.00  0.00    -0.048 Br
HETATM   20  C   UNL     1     -42.734  55.746 -56.914  1.00  0.00     0.039 A 
HETATM   21  C   UNL     1     -43.109  55.115 -55.724  1.00  0.00     0.014 A 
BRANCH  18  22
HETATM   22  O   UNL     1     -42.064  57.731 -58.084  1.00  0.00    -0.355 OA
HETATM   23  C   UNL     1     -42.708  57.144 -59.216  1.00  0.00     0.210 C 
ENDBRANCH  18  22
ENDBRANCH   1  15
BRANCH  12  24
HETATM   24  N   UNL     1     -44.486  57.340 -50.488  1.00  0.00    -0.272 NA
HETATM   25  H   UNL     1     -44.056  58.258 -50.581  1.00  0.00     0.127 HD
HETATM   26  H   UNL     1     -44.732  57.153 -49.525  1.00  0.00     0.127 HD
ENDBRANCH  12  24
TORSDOF 3
ENDMDL
MODEL 4
REMARK VINA RESULT:      -7.5      3.896      6.848
REMARK  3 active torsions:
REMARK  status: ('A' for Active; 'I' for Inactive)
REMARK    1  A    between atoms: O_2  and  C_3 
REMARK    2  A    between atoms: C_7  and  C_8 
REMARK    3  A    between atoms: C_19  and  N_20 
ROOT
HETATM    1  C   UNL     1     -42.846  55.532 -53.999  1.00  0.00     0.244 A 
HETATM    2  N   UNL     1     -42.251  56.822 -53.741  1.00  0.00    -0.151 N 
HETATM    3  C   UNL     1     -42.208  57.781 -54.720  1.00  0.00     0.734 A 
HETATM    4  N   UNL     1     -41.627  58.863 -54.249  1.00  0.00    -0.060 NA
HETATM    5  C   UNL     1     -41.311  58.597 -52.939  1.00  0.00     0.103 A 
HETATM    6  C   UNL     1     -41.714  57.314 -52.582  1.00  0.00     0.083 A 
HETATM    7  C   UNL     1     -40.680  59.412 -51.990  1.00  0.00     0.034 A 
HETATM    8  C   UNL     1     -40.476  58.907 -50.701  1.00  0.00     0.002 A 
HETATM    9  C   UNL     1     -40.896  57.620 -50.363  1.00  0.00     0.002 A 
HETATM   10  C   UNL     1     -41.528  56.791 -51.297  1.00  0.00     0.033 A 
HETATM   11  N   UNL     1     -42.703  57.584 -55.963  1.00  0.00    -0.033 NA
HETATM   12  C   UNL     1     -43.260  56.462 -56.241  1.00  0.00     0.193 A 
HETATM   13  N   UNL     1     -43.393  55.393 -55.348  1.00  0.00    -0.339 N 
HETATM   14  H   UNL     1     -43.737  54.501 -55.665  1.00  0.00     0.164 HD
ENDROOT
BRANCH   1  15
HETATM   15  C   UNL     1     -41.856  54.399 -53.796  1.00  0.00    -0.014 A 
HETATM   16  C   UNL     1     -41.584  53.893 -52.510  1.00  0.00     0.033 A 
HETATM   17  C   UNL     1     -40.684  52.836 -52.336  1.00  0.00     0.044 A 
HETATM   18  C   UNL     1     -40.054  52.263 -53.443  1.00  0.00     0.085 A 
HETATM   19 BR   UNL     1     -40.374  52.200 -50.578  1.00  0.00    -0.048 Br
HETATM   20  C   UNL     1     -40.285  52.783 -54.718  1.00  0.00     0.039 A 
HETATM   21  C   UNL     1     -41.179  53.843 -54.895  1.00  0.00     0.014 A 
BRANCH  18  22
HETATM   22  O   UNL     1     -39.158  51.244 -53.260  1.00  0.00    -0.355 OA
HETATM   23  C   UNL     1     -39.554  50.053 -53.941  1.00  0.00     0.210 C 
ENDBRANCH  18  22
ENDBRANCH   1  15
BRANCH  12  24
HETATM   24  N   UNL     1     -43.773  56.184 -57.457  1.00  0.00    -0.272 NA
HETATM   25  H   UNL     1     -43.102  55.671 -58.027  1.00  0.00     0.127 HD
HETATM   26  H   UNL     1     -44.165  56.960 -57.974  1.00  0.00     0.127 HD
ENDBRANCH  12  24
TORSDOF 3
ENDMDL
MODEL 5
REMARK VINA RESULT:      -7.3      3.905      6.712
REMARK  3 active torsions:
REMARK  status: ('A' for Active; 'I' for Inactive)
REMARK    1  A    between atoms: O_2  and  C_3 
REMARK    2  A    between atoms: C_7  and  C_8 
REMARK    3  A    between atoms: C_19  and  N_20 
ROOT
HETATM    1  C   UNL     1     -42.831  55.099 -53.418  1.00  0.00     0.244 A 
HETATM    2  N   UNL     1     -42.199  56.397 -53.438  1.00  0.00    -0.151 N 
HETATM    3  C   UNL     1     -42.057  57.088 -54.614  1.00  0.00     0.734 A 
HETATM    4  N   UNL     1     -41.461  58.237 -54.379  1.00  0.00    -0.060 NA
HETATM    5  C   UNL     1     -41.236  58.289 -53.026  1.00  0.00     0.103 A 
HETATM    6  C   UNL     1     -41.713  57.143 -52.398  1.00  0.00     0.083 A 
HETATM    7  C   UNL     1     -40.629  59.293 -52.259  1.00  0.00     0.034 A 
HETATM    8  C   UNL     1     -40.524  59.113 -50.876  1.00  0.00     0.002 A 
HETATM    9  C   UNL     1     -41.017  57.957 -50.267  1.00  0.00     0.002 A 
HETATM   10  C   UNL     1     -41.626  56.943 -51.015  1.00  0.00     0.033 A 
HETATM   11  N   UNL     1     -42.484  56.607 -55.803  1.00  0.00    -0.033 NA
HETATM   12  C   UNL     1     -43.071  55.467 -55.841  1.00  0.00     0.193 A 
HETATM   13  N   UNL     1     -43.301  54.651 -54.727  1.00  0.00    -0.339 N 
HETATM   14  H   UNL     1     -43.663  53.717 -54.843  1.00  0.00     0.164 HD
ENDROOT
BRANCH   1  15
HETATM   15  C   UNL     1     -41.902  54.024 -52.881  1.00  0.00    -0.014 A 
HETATM   16  C   UNL     1     -41.290  53.095 -53.743  1.00  0.00     0.033 A 
HETATM   17  C   UNL     1     -40.420  52.122 -53.240  1.00  0.00     0.044 A 
HETATM   18  C   UNL     1     -40.142  52.070 -51.873  1.00  0.00     0.085 A 
HETATM   19 BR   UNL     1     -39.625  50.910 -54.462  1.00  0.00    -0.048 Br
HETATM   20  C   UNL     1     -40.774  52.960 -51.003  1.00  0.00     0.039 A 
HETATM   21  C   UNL     1     -41.648  53.931 -51.502  1.00  0.00     0.014 A 
BRANCH  18  22
HETATM   22  O   UNL     1     -39.308  51.099 -51.387  1.00  0.00    -0.355 OA
HETATM   23  C   UNL     1     -39.981  50.214 -50.492  1.00  0.00     0.210 C 
ENDBRANCH  18  22
ENDBRANCH   1  15
BRANCH  12  24
HETATM   24  N   UNL     1     -43.520  54.915 -56.986  1.00  0.00    -0.272 NA
HETATM   25  H   UNL     1     -43.514  53.898 -56.928  1.00  0.00     0.127 HD
HETATM   26  H   UNL     1     -43.086  55.229 -57.844  1.00  0.00     0.127 HD
ENDBRANCH  12  24
TORSDOF 3
ENDMDL
MODEL 6
REMARK VINA RESULT:      -7.2      1.797      2.066
REMARK  3 active torsions:
REMARK  status: ('A' for Active; 'I' for Inactive)
REMARK    1  A    between atoms: O_2  and  C_3 
REMARK    2  A    between atoms: C_7  and  C_8 
REMARK    3  A    between atoms: C_19  and  N_20 
ROOT
HETATM    1  C   UNL     1     -41.916  54.743 -50.946  1.00  0.00     0.244 A 
HETATM    2  N   UNL     1     -41.026  53.674 -51.337  1.00  0.00    -0.151 N 
HETATM    3  C   UNL     1     -40.174  53.104 -50.425  1.00  0.00     0.734 A 
HETATM    4  N   UNL     1     -39.474  52.158 -51.011  1.00  0.00    -0.060 NA
HETATM    5  C   UNL     1     -39.899  52.109 -52.315  1.00  0.00     0.103 A 
HETATM    6  C   UNL     1     -40.900  53.048 -52.547  1.00  0.00     0.083 A 
HETATM    7  C   UNL     1     -39.475  51.280 -53.363  1.00  0.00     0.034 A 
HETATM    8  C   UNL     1     -40.079  51.420 -54.617  1.00  0.00     0.002 A 
HETATM    9  C   UNL     1     -41.086  52.363 -54.824  1.00  0.00     0.002 A 
HETATM   10  C   UNL     1     -41.523  53.200 -53.791  1.00  0.00     0.033 A 
HETATM   11  N   UNL     1     -40.110  53.501 -49.134  1.00  0.00    -0.033 NA
HETATM   12  C   UNL     1     -40.892  54.433 -48.728  1.00  0.00     0.193 A 
HETATM   13  N   UNL     1     -41.823  55.101 -49.532  1.00  0.00    -0.339 N 
HETATM   14  H   UNL     1     -42.324  55.901 -49.179  1.00  0.00     0.164 HD
ENDROOT
BRANCH   1  15
HETATM   15  C   UNL     1     -41.669  56.008 -51.749  1.00  0.00    -0.014 A 
HETATM   16  C   UNL     1     -42.100  56.117 -53.085  1.00  0.00     0.033 A 
HETATM   17  C   UNL     1     -41.885  57.295 -53.809  1.00  0.00     0.044 A 
HETATM   18  C   UNL     1     -41.249  58.381 -53.206  1.00  0.00     0.085 A 
HETATM   19 BR   UNL     1     -42.501  57.373 -55.600  1.00  0.00    -0.048 Br
HETATM   20  C   UNL     1     -40.781  58.271 -51.896  1.00  0.00     0.039 A 
HETATM   21  C   UNL     1     -40.989  57.094 -51.171  1.00  0.00     0.014 A 
BRANCH  18  22
HETATM   22  O   UNL     1     -41.023  59.521 -53.930  1.00  0.00    -0.355 OA
HETATM   23  C   UNL     1     -42.080  60.469 -53.782  1.00  0.00     0.210 C 
ENDBRANCH  18  22
ENDBRANCH   1  15
BRANCH  12  24
HETATM   24  N   UNL     1     -40.887  54.889 -47.459  1.00  0.00    -0.272 NA
HETATM   25  H   UNL     1     -41.423  54.275 -46.848  1.00  0.00     0.127 HD
HETATM   26  H   UNL     1     -41.153  55.856 -47.321  1.00  0.00     0.127 HD
ENDBRANCH  12  24
TORSDOF 3
ENDMDL
MODEL 7
REMARK VINA RESULT:      -6.9      2.546      4.311
REMARK  3 active torsions:
REMARK  status: ('A' for Active; 'I' for Inactive)
REMARK    1  A    between atoms: O_2  and  C_3 
REMARK    2  A    between atoms: C_7  and  C_8 
REMARK    3  A    between atoms: C_19  and  N_20 
ROOT
HETATM    1  C   UNL     1     -41.389  56.658 -53.267  1.00  0.00     0.244 A 
HETATM    2  N   UNL     1     -41.259  55.306 -52.775  1.00  0.00    -0.151 N 
HETATM    3  C   UNL     1     -41.417  54.236 -53.619  1.00  0.00     0.734 A 
HETATM    4  N   UNL     1     -41.249  53.119 -52.946  1.00  0.00    -0.060 NA
HETATM    5  C   UNL     1     -40.957  53.481 -51.655  1.00  0.00     0.103 A 
HETATM    6  C   UNL     1     -40.937  54.866 -51.520  1.00  0.00     0.083 A 
HETATM    7  C   UNL     1     -40.694  52.675 -50.539  1.00  0.00     0.034 A 
HETATM    8  C   UNL     1     -40.412  53.293 -49.316  1.00  0.00     0.002 A 
HETATM    9  C   UNL     1     -40.389  54.684 -49.206  1.00  0.00     0.002 A 
HETATM   10  C   UNL     1     -40.649  55.505 -50.308  1.00  0.00     0.033 A 
HETATM   11  N   UNL     1     -41.705  54.375 -54.933  1.00  0.00    -0.033 NA
HETATM   12  C   UNL     1     -41.813  55.554 -55.427  1.00  0.00     0.193 A 
HETATM   13  N   UNL     1     -41.665  56.741 -54.700  1.00  0.00    -0.339 N 
HETATM   14  H   UNL     1     -41.876  57.630 -55.124  1.00  0.00     0.164 HD
ENDROOT
BRANCH   1  15
HETATM   15  C   UNL     1     -42.491  57.418 -52.550  1.00  0.00    -0.014 A 
HETATM   16  C   UNL     1     -42.226  58.636 -51.896  1.00  0.00     0.033 A 
HETATM   17  C   UNL     1     -43.253  59.339 -51.256  1.00  0.00     0.044 A 
HETATM   18  C   UNL     1     -44.557  58.841 -51.271  1.00  0.00     0.085 A 
HETATM   19 BR   UNL     1     -42.824  60.977 -50.404  1.00  0.00    -0.048 Br
HETATM   20  C   UNL     1     -44.824  57.615 -51.881  1.00  0.00     0.039 A 
HETATM   21  C   UNL     1     -43.799  56.907 -52.517  1.00  0.00     0.014 A 
BRANCH  18  22
HETATM   22  O   UNL     1     -45.551  59.524 -50.622  1.00  0.00    -0.355 OA
HETATM   23  C   UNL     1     -46.407  60.217 -51.531  1.00  0.00     0.210 C 
ENDBRANCH  18  22
ENDBRANCH   1  15
BRANCH  12  24
HETATM   24  N   UNL     1     -42.103  55.777 -56.725  1.00  0.00    -0.272 NA
HETATM   25  H   UNL     1     -42.875  56.434 -56.817  1.00  0.00     0.127 HD
HETATM   26  H   UNL     1     -42.252  54.962 -57.305  1.00  0.00     0.127 HD
ENDBRANCH  12  24
TORSDOF 3
ENDMDL
MODEL 8
REMARK VINA RESULT:      -6.8      2.987      4.995
REMARK  3 active torsions:
REMARK  status: ('A' for Active; 'I' for Inactive)
REMARK    1  A    between atoms: O_2  and  C_3 
REMARK    2  A    between atoms: C_7  and  C_8 
REMARK    3  A    between atoms: C_19  and  N_20 
ROOT
HETATM    1  C   UNL     1     -39.650  52.919 -53.246  1.00  0.00     0.244 A 
HETATM    2  N   UNL     1     -39.965  52.558 -51.883  1.00  0.00    -0.151 N 
HETATM    3  C   UNL     1     -40.090  51.242 -51.518  1.00  0.00     0.734 A 
HETATM    4  N   UNL     1     -40.372  51.168 -50.236  1.00  0.00    -0.060 NA
HETATM    5  C   UNL     1     -40.408  52.458 -49.769  1.00  0.00     0.103 A 
HETATM    6  C   UNL     1     -40.133  53.364 -50.789  1.00  0.00     0.083 A 
HETATM    7  C   UNL     1     -40.667  52.933 -48.476  1.00  0.00     0.034 A 
HETATM    8  C   UNL     1     -40.637  54.313 -48.249  1.00  0.00     0.002 A 
HETATM    9  C   UNL     1     -40.351  55.202 -49.286  1.00  0.00     0.002 A 
HETATM   10  C   UNL     1     -40.090  54.748 -50.583  1.00  0.00     0.033 A 
HETATM   11  N   UNL     1     -39.937  50.222 -52.392  1.00  0.00    -0.033 NA
HETATM   12  C   UNL     1     -39.638  50.483 -53.612  1.00  0.00     0.193 A 
HETATM   13  N   UNL     1     -39.463  51.771 -54.132  1.00  0.00    -0.339 N 
HETATM   14  H   UNL     1     -39.343  51.911 -55.123  1.00  0.00     0.164 HD
ENDROOT
BRANCH   1  15
HETATM   15  C   UNL     1     -40.727  53.794 -53.864  1.00  0.00    -0.014 A 
HETATM   16  C   UNL     1     -40.684  55.196 -53.739  1.00  0.00     0.033 A 
HETATM   17  C   UNL     1     -41.669  55.994 -54.330  1.00  0.00     0.044 A 
HETATM   18  C   UNL     1     -42.702  55.406 -55.060  1.00  0.00     0.085 A 
HETATM   19 BR   UNL     1     -41.541  57.875 -54.128  1.00  0.00    -0.048 Br
HETATM   20  C   UNL     1     -42.778  54.015 -55.156  1.00  0.00     0.039 A 
HETATM   21  C   UNL     1     -41.798  53.214 -54.564  1.00  0.00     0.014 A 
BRANCH  18  22
HETATM   22  O   UNL     1     -43.676  56.194 -55.615  1.00  0.00    -0.355 OA
HETATM   23  C   UNL     1     -43.408  56.491 -56.985  1.00  0.00     0.210 C 
ENDBRANCH  18  22
ENDBRANCH   1  15
BRANCH  12  24
HETATM   24  N   UNL     1     -39.474  49.524 -54.545  1.00  0.00    -0.272 NA
HETATM   25  H   UNL     1     -40.285  48.910 -54.583  1.00  0.00     0.127 HD
HETATM   26  H   UNL     1     -38.617  48.987 -54.500  1.00  0.00     0.127 HD
ENDBRANCH  12  24
TORSDOF 3
ENDMDL
MODEL 9
REMARK VINA RESULT:      -6.7      5.695      7.639
REMARK  3 active torsions:
REMARK  status: ('A' for Active; 'I' for Inactive)
REMARK    1  A    between atoms: O_2  and  C_3 
REMARK    2  A    between atoms: C_7  and  C_8 
REMARK    3  A    between atoms: C_19  and  N_20 
ROOT
HETATM    1  C   UNL     1     -42.357  57.705 -56.838  1.00  0.00     0.244 A 
HETATM    2  N   UNL     1     -43.484  57.726 -57.741  1.00  0.00    -0.151 N 
HETATM    3  C   UNL     1     -44.217  58.872 -57.918  1.00  0.00     0.734 A 
HETATM    4  N   UNL     1     -45.182  58.646 -58.783  1.00  0.00    -0.060 NA
HETATM    5  C   UNL     1     -45.050  57.339 -59.182  1.00  0.00     0.103 A 
HETATM    6  C   UNL     1     -43.967  56.734 -58.551  1.00  0.00     0.083 A 
HETATM    7  C   UNL     1     -45.822  56.599 -60.087  1.00  0.00     0.034 A 
HETATM    8  C   UNL     1     -45.475  55.266 -60.334  1.00  0.00     0.002 A 
HETATM    9  C   UNL     1     -44.380  54.683 -59.695  1.00  0.00     0.002 A 
HETATM   10  C   UNL     1     -43.597  55.405 -58.788  1.00  0.00     0.033 A 
HETATM   11  N   UNL     1     -43.942  60.026 -57.270  1.00  0.00    -0.033 NA
HETATM   12  C   UNL     1     -42.939  60.069 -56.471  1.00  0.00     0.193 A 
HETATM   13  N   UNL     1     -42.090  58.991 -56.197  1.00  0.00    -0.339 N 
HETATM   14  H   UNL     1     -41.392  59.060 -55.472  1.00  0.00     0.164 HD
ENDROOT
BRANCH   1  15
HETATM   15  C   UNL     1     -42.533  56.678 -55.734  1.00  0.00    -0.014 A 
HETATM   16  C   UNL     1     -41.623  55.615 -55.578  1.00  0.00     0.033 A 
HETATM   17  C   UNL     1     -41.784  54.686 -54.544  1.00  0.00     0.044 A 
HETATM   18  C   UNL     1     -42.847  54.812 -53.648  1.00  0.00     0.085 A 
HETATM   19 BR   UNL     1     -40.514  53.286 -54.389  1.00  0.00    -0.048 Br
HETATM   20  C   UNL     1     -43.778  55.837 -53.818  1.00  0.00     0.039 A 
HETATM   21  C   UNL     1     -43.624  56.765 -54.852  1.00  0.00     0.014 A 
BRANCH  18  22
HETATM   22  O   UNL     1     -43.009  53.884 -52.654  1.00  0.00    -0.355 OA
HETATM   23  C   UNL     1     -43.175  54.494 -51.374  1.00  0.00     0.210 C 
ENDBRANCH  18  22
ENDBRANCH   1  15
BRANCH  12  24
HETATM   24  N   UNL     1     -42.601  61.179 -55.783  1.00  0.00    -0.272 NA
HETATM   25  H   UNL     1     -41.796  61.006 -55.185  1.00  0.00     0.127 HD
HETATM   26  H   UNL     1     -43.341  61.638 -55.267  1.00  0.00     0.127 HD
ENDBRANCH  12  24
TORSDOF 3
ENDMDL
MODEL 10
REMARK VINA RESULT:      -6.7      4.374      7.261
REMARK  3 active torsions:
REMARK  status: ('A' for Active; 'I' for Inactive)
REMARK    1  A    between atoms: O_2  and  C_3 
REMARK    2  A    between atoms: C_7  and  C_8 
REMARK    3  A    between atoms: C_19  and  N_20 
ROOT
HETATM    1  C   UNL     1     -43.265  55.897 -55.496  1.00  0.00     0.244 A 
HETATM    2  N   UNL     1     -42.862  57.282 -55.429  1.00  0.00    -0.151 N 
HETATM    3  C   UNL     1     -42.576  57.984 -56.572  1.00  0.00     0.734 A 
HETATM    4  N   UNL     1     -42.239  59.216 -56.257  1.00  0.00    -0.060 NA
HETATM    5  C   UNL     1     -42.331  59.308 -54.890  1.00  0.00     0.103 A 
HETATM    6  C   UNL     1     -42.744  58.100 -54.338  1.00  0.00     0.083 A 
HETATM    7  C   UNL     1     -42.078  60.401 -54.050  1.00  0.00     0.034 A 
HETATM    8  C   UNL     1     -42.255  60.243 -52.671  1.00  0.00     0.002 A 
HETATM    9  C   UNL     1     -42.679  59.023 -52.140  1.00  0.00     0.002 A 
HETATM   10  C   UNL     1     -42.935  57.921 -52.963  1.00  0.00     0.033 A 
HETATM   11  N   UNL     1     -42.645  57.436 -57.806  1.00  0.00    -0.033 NA
HETATM   12  C   UNL     1     -43.018  56.214 -57.926  1.00  0.00     0.193 A 
HETATM   13  N   UNL     1     -43.355  55.374 -56.859  1.00  0.00    -0.339 N 
HETATM   14  H   UNL     1     -43.527  54.393 -57.014  1.00  0.00     0.164 HD
ENDROOT
BRANCH   1  15
HETATM   15  C   UNL     1     -42.319  54.992 -54.728  1.00  0.00    -0.014 A 
HETATM   16  C   UNL     1     -42.484  54.773 -53.347  1.00  0.00     0.033 A 
HETATM   17  C   UNL     1     -41.618  53.921 -52.653  1.00  0.00     0.044 A 
HETATM   18  C   UNL     1     -40.585  53.269 -53.329  1.00  0.00     0.085 A 
HETATM   19 BR   UNL     1     -41.906  53.666 -50.797  1.00  0.00    -0.048 Br
HETATM   20  C   UNL     1     -40.386  53.511 -54.689  1.00  0.00     0.039 A 
HETATM   21  C   UNL     1     -41.246  54.365 -55.385  1.00  0.00     0.014 A 
BRANCH  18  22
HETATM   22  O   UNL     1     -39.728  52.456 -52.636  1.00  0.00    -0.355 OA
HETATM   23  C   UNL     1     -39.460  51.241 -53.336  1.00  0.00     0.210 C 
ENDBRANCH  18  22
ENDBRANCH   1  15
BRANCH  12  24
HETATM   24  N   UNL     1     -43.107  55.593 -59.119  1.00  0.00    -0.272 NA
HETATM   25  H   UNL     1     -43.738  56.092 -59.744  1.00  0.00     0.127 HD
HETATM   26  H   UNL     1     -43.324  54.605 -59.103  1.00  0.00     0.127 HD
ENDBRANCH  12  24
TORSDOF 3
ENDMDL
