MODEL 1
REMARK VINA RESULT:      -9.0      0.000      0.000
REMARK  7 active torsions:
REMARK  status: ('A' for Active; 'I' for Inactive)
REMARK    1  A    between atoms: C_3  and  C_4 
REMARK    2  A    between atoms: C_4  and  S_5 
REMARK    3  A    between atoms: S_5  and  C_6 
REMARK    4  A    between atoms: C_6  and  C_7 
REMARK    5  A    between atoms: C_16  and  C_17 
REMARK       I    between atoms: C_17  and  N_18 
REMARK    6  A    between atoms: N_18  and  C_19 
REMARK    7  A    between atoms: C_19  and  C_20 
ROOT
HETATM    1  C   UNL     1     -42.586  55.418 -53.310  1.00  0.00     0.162 C 
HETATM    2  N   UNL     1     -43.231  54.879 -54.536  1.00  0.00    -0.277 NA
HETATM    3  C   UNL     1     -42.987  55.656 -55.687  1.00  0.00     0.036 A 
HETATM    4  C   UNL     1     -42.709  57.028 -55.613  1.00  0.00     0.057 A 
HETATM    5  N   UNL     1     -42.633  57.653 -54.363  1.00  0.00    -0.324 N 
HETATM    6  C   UNL     1     -42.700  56.950 -53.185  1.00  0.00     0.240 C 
HETATM    7  O   UNL     1     -42.734  57.542 -52.107  1.00  0.00    -0.271 OA
HETATM    8  C   UNL     1     -43.159  55.072 -56.943  1.00  0.00     0.027 A 
HETATM    9  C   UNL     1     -42.973  55.822 -58.111  1.00  0.00     0.019 A 
HETATM   10  C   UNL     1     -42.656  57.185 -58.033  1.00  0.00     0.034 A 
HETATM   11  C   UNL     1     -42.544  57.789 -56.771  1.00  0.00     0.048 A 
HETATM   12  H   UNL     1     -44.238  54.781 -54.404  1.00  0.00     0.128 HD
HETATM   13  H   UNL     1     -42.577  58.661 -54.292  1.00  0.00     0.169 HD
ENDROOT
BRANCH  10  14
HETATM   14  C   UNL     1     -42.381  58.039 -59.231  1.00  0.00     0.252 C 
HETATM   15  N   UNL     1     -42.968  59.283 -59.284  1.00  0.00    -0.353 N 
HETATM   16  H   UNL     1     -43.390  59.697 -58.470  1.00  0.00     0.163 HD
HETATM   17  O   UNL     1     -41.663  57.610 -60.128  1.00  0.00    -0.268 OA
BRANCH  15  18
HETATM   18  C   UNL     1     -42.784  60.142 -60.435  1.00  0.00     0.161 C 
BRANCH  18  19
HETATM   19  C   UNL     1     -41.712  61.175 -60.183  1.00  0.00    -0.040 A 
HETATM   20  C   UNL     1     -41.240  61.408 -58.883  1.00  0.00     0.010 A 
HETATM   21  C   UNL     1     -40.221  62.339 -58.655  1.00  0.00     0.024 A 
HETATM   22  C   UNL     1     -39.667  63.037 -59.725  1.00  0.00     0.034 A 
HETATM   23 CL   UNL     1     -38.414  64.181 -59.443  1.00  0.00    -0.084 Cl
HETATM   24  C   UNL     1     -40.115  62.809 -61.023  1.00  0.00     0.024 A 
HETATM   25  C   UNL     1     -41.129  61.875 -61.252  1.00  0.00     0.010 A 
ENDBRANCH  18  19
ENDBRANCH  15  18
ENDBRANCH  10  14
BRANCH   1  26
HETATM   26  C   UNL     1     -43.139  54.753 -52.038  1.00  0.00     0.103 C 
BRANCH  26  27
HETATM   27  S   UNL     1     -41.885  54.061 -50.889  1.00  0.00    -0.162 SA
BRANCH  27  28
HETATM   28  C   UNL     1     -40.465  53.941 -52.022  1.00  0.00     0.112 C 
BRANCH  28  29
HETATM   29  C   UNL     1     -40.149  52.507 -52.383  1.00  0.00    -0.043 A 
HETATM   30  C   UNL     1     -40.087  52.062 -53.721  1.00  0.00    -0.055 A 
HETATM   31  C   UNL     1     -40.325  52.990 -54.882  1.00  0.00     0.049 C 
HETATM   32  C   UNL     1     -39.764  50.720 -53.984  1.00  0.00     0.007 A 
HETATM   33  C   UNL     1     -39.527  49.823 -52.942  1.00  0.00     0.001 A 
HETATM   34  C   UNL     1     -39.609  50.254 -51.623  1.00  0.00     0.001 A 
HETATM   35  C   UNL     1     -39.920  51.584 -51.345  1.00  0.00     0.008 A 
ENDBRANCH  28  29
ENDBRANCH  27  28
ENDBRANCH  26  27
ENDBRANCH   1  26
TORSDOF 7
ENDMDL
MODEL 2
REMARK VINA RESULT:      -8.9      6.631      9.544
REMARK  7 active torsions:
REMARK  status: ('A' for Active; 'I' for Inactive)
REMARK    1  A    between atoms: C_3  and  C_4 
REMARK    2  A    between atoms: C_4  and  S_5 
REMARK    3  A    between atoms: S_5  and  C_6 
REMARK    4  A    between atoms: C_6  and  C_7 
REMARK    5  A    between atoms: C_16  and  C_17 
REMARK       I    between atoms: C_17  and  N_18 
REMARK    6  A    between atoms: N_18  and  C_19 
REMARK    7  A    between atoms: C_19  and  C_20 
ROOT
HETATM    1  C   UNL     1     -42.284  58.124 -53.527  1.00  0.00     0.162 C 
HETATM    2  N   UNL     1     -43.344  57.668 -52.590  1.00  0.00    -0.277 NA
HETATM    3  C   UNL     1     -43.836  58.693 -51.757  1.00  0.00     0.036 A 
HETATM    4  C   UNL     1     -43.060  59.810 -51.413  1.00  0.00     0.057 A 
HETATM    5  N   UNL     1     -41.768  59.942 -51.935  1.00  0.00    -0.324 N 
HETATM    6  C   UNL     1     -41.263  59.078 -52.876  1.00  0.00     0.240 C 
HETATM    7  O   UNL     1     -40.089  59.163 -53.235  1.00  0.00    -0.271 OA
HETATM    8  C   UNL     1     -45.080  58.528 -51.147  1.00  0.00     0.027 A 
HETATM    9  C   UNL     1     -45.584  59.501 -50.276  1.00  0.00     0.019 A 
HETATM   10  C   UNL     1     -44.822  60.637 -49.966  1.00  0.00     0.034 A 
HETATM   11  C   UNL     1     -43.544  60.774 -50.529  1.00  0.00     0.048 A 
HETATM   12  H   UNL     1     -43.010  56.897 -52.011  1.00  0.00     0.128 HD
HETATM   13  H   UNL     1     -41.143  60.660 -51.591  1.00  0.00     0.169 HD
ENDROOT
BRANCH  10  14
HETATM   14  C   UNL     1     -45.314  61.749 -49.095  1.00  0.00     0.252 C 
HETATM   15  N   UNL     1     -45.944  61.415 -47.918  1.00  0.00    -0.353 N 
HETATM   16  H   UNL     1     -45.894  60.481 -47.544  1.00  0.00     0.163 HD
HETATM   17  O   UNL     1     -45.161  62.912 -49.453  1.00  0.00    -0.268 OA
BRANCH  15  18
HETATM   18  C   UNL     1     -46.487  62.438 -47.049  1.00  0.00     0.161 C 
BRANCH  18  19
HETATM   19  C   UNL     1     -45.630  62.629 -45.822  1.00  0.00    -0.040 A 
HETATM   20  C   UNL     1     -45.613  63.860 -45.150  1.00  0.00     0.010 A 
HETATM   21  C   UNL     1     -44.847  64.025 -43.991  1.00  0.00     0.024 A 
HETATM   22  C   UNL     1     -44.097  62.959 -43.498  1.00  0.00     0.034 A 
HETATM   23 CL   UNL     1     -43.156  63.165 -42.073  1.00  0.00    -0.084 Cl
HETATM   24  C   UNL     1     -44.111  61.727 -44.146  1.00  0.00     0.024 A 
HETATM   25  C   UNL     1     -44.881  61.561 -45.299  1.00  0.00     0.010 A 
ENDBRANCH  18  19
ENDBRANCH  15  18
ENDBRANCH  10  14
BRANCH   1  26
HETATM   26  C   UNL     1     -41.546  56.938 -54.170  1.00  0.00     0.103 C 
BRANCH  26  27
HETATM   27  S   UNL     1     -42.408  55.319 -54.085  1.00  0.00    -0.162 SA
BRANCH  27  28
HETATM   28  C   UNL     1     -41.675  54.662 -52.554  1.00  0.00     0.112 C 
BRANCH  28  29
HETATM   29  C   UNL     1     -40.888  53.395 -52.804  1.00  0.00    -0.043 A 
HETATM   30  C   UNL     1     -40.106  52.782 -51.801  1.00  0.00    -0.055 A 
HETATM   31  C   UNL     1     -40.009  53.347 -50.408  1.00  0.00     0.049 C 
HETATM   32  C   UNL     1     -39.420  51.592 -52.096  1.00  0.00     0.007 A 
HETATM   33  C   UNL     1     -39.485  51.025 -53.368  1.00  0.00     0.001 A 
HETATM   34  C   UNL     1     -40.236  51.638 -54.365  1.00  0.00     0.001 A 
HETATM   35  C   UNL     1     -40.930  52.815 -54.085  1.00  0.00     0.008 A 
ENDBRANCH  28  29
ENDBRANCH  27  28
ENDBRANCH  26  27
ENDBRANCH   1  26
TORSDOF 7
ENDMDL
MODEL 3
REMARK VINA RESULT:      -8.8      1.410      2.239
REMARK  7 active torsions:
REMARK  status: ('A' for Active; 'I' for Inactive)
REMARK    1  A    between atoms: C_3  and  C_4 
REMARK    2  A    between atoms: C_4  and  S_5 
REMARK    3  A    between atoms: S_5  and  C_6 
REMARK    4  A    between atoms: C_6  and  C_7 
REMARK    5  A    between atoms: C_16  and  C_17 
REMARK       I    between atoms: C_17  and  N_18 
REMARK    6  A    between atoms: N_18  and  C_19 
REMARK    7  A    between atoms: C_19  and  C_20 
ROOT
HETATM    1  C   UNL     1     -41.267  55.629 -52.249  1.00  0.00     0.162 C 
HETATM    2  N   UNL     1     -42.127  54.757 -53.092  1.00  0.00    -0.277 NA
HETATM    3  C   UNL     1     -42.357  55.275 -54.382  1.00  0.00     0.036 A 
HETATM    4  C   UNL     1     -42.314  56.651 -54.651  1.00  0.00     0.057 A 
HETATM    5  N   UNL     1     -42.000  57.547 -53.623  1.00  0.00    -0.324 N 
HETATM    6  C   UNL     1     -41.608  57.127 -52.375  1.00  0.00     0.240 C 
HETATM    7  O   UNL     1     -41.440  57.940 -51.468  1.00  0.00    -0.271 OA
HETATM    8  C   UNL     1     -42.771  54.407 -55.393  1.00  0.00     0.027 A 
HETATM    9  C   UNL     1     -43.055  54.888 -56.677  1.00  0.00     0.019 A 
HETATM   10  C   UNL     1     -42.973  56.260 -56.953  1.00  0.00     0.034 A 
HETATM   11  C   UNL     1     -42.617  57.142 -55.921  1.00  0.00     0.048 A 
HETATM   12  H   UNL     1     -43.023  54.580 -52.636  1.00  0.00     0.128 HD
HETATM   13  H   UNL     1     -42.103  58.545 -53.759  1.00  0.00     0.169 HD
ENDROOT
BRANCH  10  14
HETATM   14  C   UNL     1     -43.199  56.845 -58.311  1.00  0.00     0.252 C 
HETATM   15  N   UNL     1     -42.109  57.342 -58.989  1.00  0.00    -0.353 N 
HETATM   16  H   UNL     1     -41.169  57.136 -58.691  1.00  0.00     0.163 HD
HETATM   17  O   UNL     1     -44.335  56.881 -58.773  1.00  0.00    -0.268 OA
BRANCH  15  18
HETATM   18  C   UNL     1     -42.261  57.965 -60.287  1.00  0.00     0.161 C 
BRANCH  18  19
HETATM   19  C   UNL     1     -41.980  59.447 -60.221  1.00  0.00    -0.040 A 
HETATM   20  C   UNL     1     -41.863  60.201 -61.397  1.00  0.00     0.010 A 
HETATM   21  C   UNL     1     -41.639  61.580 -61.335  1.00  0.00     0.024 A 
HETATM   22  C   UNL     1     -41.535  62.211 -60.097  1.00  0.00     0.034 A 
HETATM   23 CL   UNL     1     -41.260  63.908 -60.023  1.00  0.00    -0.084 Cl
HETATM   24  C   UNL     1     -41.660  61.479 -58.920  1.00  0.00     0.024 A 
HETATM   25  C   UNL     1     -41.890  60.103 -58.982  1.00  0.00     0.010 A 
ENDBRANCH  18  19
ENDBRANCH  15  18
ENDBRANCH  10  14
BRANCH   1  26
HETATM   26  C   UNL     1     -41.315  55.212 -50.768  1.00  0.00     0.103 C 
BRANCH  26  27
HETATM   27  S   UNL     1     -41.363  53.405 -50.449  1.00  0.00    -0.162 SA
BRANCH  27  28
HETATM   28  C   UNL     1     -39.710  52.942 -51.058  1.00  0.00     0.112 C 
BRANCH  28  29
HETATM   29  C   UNL     1     -39.785  51.922 -52.171  1.00  0.00    -0.043 A 
HETATM   30  C   UNL     1     -39.696  50.534 -51.929  1.00  0.00    -0.055 A 
HETATM   31  C   UNL     1     -39.529  49.975 -50.541  1.00  0.00     0.049 C 
HETATM   32  C   UNL     1     -39.798  49.641 -53.010  1.00  0.00     0.007 A 
HETATM   33  C   UNL     1     -39.962  50.110 -54.313  1.00  0.00     0.001 A 
HETATM   34  C   UNL     1     -40.027  51.477 -54.556  1.00  0.00     0.001 A 
HETATM   35  C   UNL     1     -39.937  52.376 -53.495  1.00  0.00     0.008 A 
ENDBRANCH  28  29
ENDBRANCH  27  28
ENDBRANCH  26  27
ENDBRANCH   1  26
TORSDOF 7
ENDMDL
MODEL 4
REMARK VINA RESULT:      -8.7      3.535      4.691
REMARK  7 active torsions:
REMARK  status: ('A' for Active; 'I' for Inactive)
REMARK    1  A    between atoms: C_3  and  C_4 
REMARK    2  A    between atoms: C_4  and  S_5 
REMARK    3  A    between atoms: S_5  and  C_6 
REMARK    4  A    between atoms: C_6  and  C_7 
REMARK    5  A    between atoms: C_16  and  C_17 
REMARK       I    between atoms: C_17  and  N_18 
REMARK    6  A    between atoms: N_18  and  C_19 
REMARK    7  A    between atoms: C_19  and  C_20 
ROOT
HETATM    1  C   UNL     1     -42.017  55.903 -50.265  1.00  0.00     0.162 C 
HETATM    2  N   UNL     1     -40.944  56.644 -50.979  1.00  0.00    -0.277 NA
HETATM    3  C   UNL     1     -41.375  57.233 -52.184  1.00  0.00     0.036 A 
HETATM    4  C   UNL     1     -42.450  56.716 -52.923  1.00  0.00     0.057 A 
HETATM    5  N   UNL     1     -43.148  55.602 -52.441  1.00  0.00    -0.324 N 
HETATM    6  C   UNL     1     -42.903  55.059 -51.204  1.00  0.00     0.240 C 
HETATM    7  O   UNL     1     -43.463  54.021 -50.857  1.00  0.00    -0.271 OA
HETATM    8  C   UNL     1     -40.628  58.278 -52.730  1.00  0.00     0.027 A 
HETATM    9  C   UNL     1     -40.995  58.859 -53.949  1.00  0.00     0.019 A 
HETATM   10  C   UNL     1     -42.095  58.365 -54.665  1.00  0.00     0.034 A 
HETATM   11  C   UNL     1     -42.810  57.273 -54.150  1.00  0.00     0.048 A 
HETATM   12  H   UNL     1     -40.146  56.036 -51.168  1.00  0.00     0.128 HD
HETATM   13  H   UNL     1     -43.829  55.129 -53.022  1.00  0.00     0.169 HD
ENDROOT
BRANCH  10  14
HETATM   14  C   UNL     1     -42.587  58.970 -55.942  1.00  0.00     0.252 C 
HETATM   15  N   UNL     1     -43.916  58.804 -56.263  1.00  0.00    -0.353 N 
HETATM   16  H   UNL     1     -44.582  58.481 -55.581  1.00  0.00     0.163 HD
HETATM   17  O   UNL     1     -41.805  59.574 -56.668  1.00  0.00    -0.268 OA
BRANCH  15  18
HETATM   18  C   UNL     1     -44.451  59.321 -57.505  1.00  0.00     0.161 C 
BRANCH  18  19
HETATM   19  C   UNL     1     -44.609  58.226 -58.532  1.00  0.00    -0.040 A 
HETATM   20  C   UNL     1     -45.856  57.620 -58.740  1.00  0.00     0.010 A 
HETATM   21  C   UNL     1     -46.010  56.632 -59.718  1.00  0.00     0.024 A 
HETATM   22  C   UNL     1     -44.918  56.248 -60.494  1.00  0.00     0.034 A 
HETATM   23 CL   UNL     1     -45.109  55.033 -61.696  1.00  0.00    -0.084 Cl
HETATM   24  C   UNL     1     -43.675  56.848 -60.309  1.00  0.00     0.024 A 
HETATM   25  C   UNL     1     -43.524  57.839 -59.336  1.00  0.00     0.010 A 
ENDBRANCH  18  19
ENDBRANCH  15  18
ENDBRANCH  10  14
BRANCH   1  26
HETATM   26  C   UNL     1     -41.444  55.006 -49.153  1.00  0.00     0.103 C 
BRANCH  26  27
HETATM   27  S   UNL     1     -39.811  54.245 -49.503  1.00  0.00    -0.162 SA
BRANCH  27  28
HETATM   28  C   UNL     1     -40.346  52.561 -49.943  1.00  0.00     0.112 C 
BRANCH  28  29
HETATM   29  C   UNL     1     -40.155  52.275 -51.416  1.00  0.00    -0.043 A 
HETATM   30  C   UNL     1     -39.749  51.009 -51.892  1.00  0.00    -0.055 A 
HETATM   31  C   UNL     1     -39.485  49.855 -50.963  1.00  0.00     0.049 C 
HETATM   32  C   UNL     1     -39.615  50.808 -53.276  1.00  0.00     0.007 A 
HETATM   33  C   UNL     1     -39.857  51.844 -54.178  1.00  0.00     0.001 A 
HETATM   34  C   UNL     1     -40.235  53.097 -53.710  1.00  0.00     0.001 A 
HETATM   35  C   UNL     1     -40.381  53.312 -52.340  1.00  0.00     0.008 A 
ENDBRANCH  28  29
ENDBRANCH  27  28
ENDBRANCH  26  27
ENDBRANCH   1  26
TORSDOF 7
ENDMDL
MODEL 5
REMARK VINA RESULT:      -8.7      6.088      7.603
REMARK  7 active torsions:
REMARK  status: ('A' for Active; 'I' for Inactive)
REMARK    1  A    between atoms: C_3  and  C_4 
REMARK    2  A    between atoms: C_4  and  S_5 
REMARK    3  A    between atoms: S_5  and  C_6 
REMARK    4  A    between atoms: C_6  and  C_7 
REMARK    5  A    between atoms: C_16  and  C_17 
REMARK       I    between atoms: C_17  and  N_18 
REMARK    6  A    between atoms: N_18  and  C_19 
REMARK    7  A    between atoms: C_19  and  C_20 
ROOT
HETATM    1  C   UNL     1     -43.063  55.569 -52.355  1.00  0.00     0.162 C 
HETATM    2  N   UNL     1     -43.801  56.211 -53.474  1.00  0.00    -0.277 NA
HETATM    3  C   UNL     1     -44.407  57.434 -53.119  1.00  0.00     0.036 A 
HETATM    4  C   UNL     1     -44.791  57.719 -51.800  1.00  0.00     0.057 A 
HETATM    5  N   UNL     1     -44.538  56.785 -50.788  1.00  0.00    -0.324 N 
HETATM    6  C   UNL     1     -43.814  55.639 -51.010  1.00  0.00     0.240 C 
HETATM    7  O   UNL     1     -43.701  54.792 -50.125  1.00  0.00    -0.271 OA
HETATM    8  C   UNL     1     -44.758  58.331 -54.128  1.00  0.00     0.027 A 
HETATM    9  C   UNL     1     -45.404  59.535 -53.822  1.00  0.00     0.019 A 
HETATM   10  C   UNL     1     -45.750  59.835 -52.497  1.00  0.00     0.034 A 
HETATM   11  C   UNL     1     -45.454  58.906 -51.488  1.00  0.00     0.048 A 
HETATM   12  H   UNL     1     -44.510  55.582 -53.850  1.00  0.00     0.128 HD
HETATM   13  H   UNL     1     -44.931  56.907 -49.864  1.00  0.00     0.169 HD
ENDROOT
BRANCH  10  14
HETATM   14  C   UNL     1     -46.384  61.124 -52.081  1.00  0.00     0.252 C 
HETATM   15  N   UNL     1     -47.621  61.431 -52.601  1.00  0.00    -0.353 N 
HETATM   16  H   UNL     1     -48.179  60.736 -53.070  1.00  0.00     0.163 HD
HETATM   17  O   UNL     1     -45.789  61.872 -51.312  1.00  0.00    -0.268 OA
BRANCH  15  18
HETATM   18  C   UNL     1     -48.273  62.684 -52.279  1.00  0.00     0.161 C 
BRANCH  18  19
HETATM   19  C   UNL     1     -49.706  62.695 -52.754  1.00  0.00    -0.040 A 
HETATM   20  C   UNL     1     -50.717  63.240 -51.950  1.00  0.00     0.010 A 
HETATM   21  C   UNL     1     -52.038  63.284 -52.405  1.00  0.00     0.024 A 
HETATM   22  C   UNL     1     -52.354  62.786 -53.667  1.00  0.00     0.034 A 
HETATM   23 CL   UNL     1     -53.980  62.841 -54.225  1.00  0.00    -0.084 Cl
HETATM   24  C   UNL     1     -51.361  62.251 -54.483  1.00  0.00     0.024 A 
HETATM   25  C   UNL     1     -50.040  62.214 -54.030  1.00  0.00     0.010 A 
ENDBRANCH  18  19
ENDBRANCH  15  18
ENDBRANCH  10  14
BRANCH   1  26
HETATM   26  C   UNL     1     -42.710  54.106 -52.673  1.00  0.00     0.103 C 
BRANCH  26  27
HETATM   27  S   UNL     1     -42.079  53.788 -54.368  1.00  0.00    -0.162 SA
BRANCH  27  28
HETATM   28  C   UNL     1     -40.315  53.536 -53.996  1.00  0.00     0.112 C 
BRANCH  28  29
HETATM   29  C   UNL     1     -40.043  52.149 -53.459  1.00  0.00    -0.043 A 
HETATM   30  C   UNL     1     -39.737  51.913 -52.101  1.00  0.00    -0.055 A 
HETATM   31  C   UNL     1     -39.666  53.029 -51.093  1.00  0.00     0.049 C 
HETATM   32  C   UNL     1     -39.520  50.594 -51.666  1.00  0.00     0.007 A 
HETATM   33  C   UNL     1     -39.583  49.526 -52.559  1.00  0.00     0.001 A 
HETATM   34  C   UNL     1     -39.863  49.758 -53.901  1.00  0.00     0.001 A 
HETATM   35  C   UNL     1     -40.089  51.059 -54.348  1.00  0.00     0.008 A 
ENDBRANCH  28  29
ENDBRANCH  27  28
ENDBRANCH  26  27
ENDBRANCH   1  26
TORSDOF 7
ENDMDL
MODEL 6
REMARK VINA RESULT:      -8.5      1.809      2.878
REMARK  7 active torsions:
REMARK  status: ('A' for Active; 'I' for Inactive)
REMARK    1  A    between atoms: C_3  and  C_4 
REMARK    2  A    between atoms: C_4  and  S_5 
REMARK    3  A    between atoms: S_5  and  C_6 
REMARK    4  A    between atoms: C_6  and  C_7 
REMARK    5  A    between atoms: C_16  and  C_17 
REMARK       I    between atoms: C_17  and  N_18 
REMARK    6  A    between atoms: N_18  and  C_19 
REMARK    7  A    between atoms: C_19  and  C_20 
ROOT
HETATM    1  C   UNL     1     -42.404  55.630 -50.787  1.00  0.00     0.162 C 
HETATM    2  N   UNL     1     -41.409  56.297 -51.667  1.00  0.00    -0.277 NA
HETATM    3  C   UNL     1     -41.938  56.691 -52.913  1.00  0.00     0.036 A 
HETATM    4  C   UNL     1     -43.031  56.036 -53.499  1.00  0.00     0.057 A 
HETATM    5  N   UNL     1     -43.650  54.980 -52.820  1.00  0.00    -0.324 N 
HETATM    6  C   UNL     1     -43.307  54.630 -51.536  1.00  0.00     0.240 C 
HETATM    7  O   UNL     1     -43.799  53.633 -51.009  1.00  0.00    -0.271 OA
HETATM    8  C   UNL     1     -41.271  57.672 -53.649  1.00  0.00     0.027 A 
HETATM    9  C   UNL     1     -41.736  58.057 -54.912  1.00  0.00     0.019 A 
HETATM   10  C   UNL     1     -42.854  57.428 -55.477  1.00  0.00     0.034 A 
HETATM   11  C   UNL     1     -43.488  56.398 -54.766  1.00  0.00     0.048 A 
HETATM   12  H   UNL     1     -40.598  55.697 -51.820  1.00  0.00     0.128 HD
HETATM   13  H   UNL     1     -44.343  54.405 -53.281  1.00  0.00     0.169 HD
ENDROOT
BRANCH  10  14
HETATM   14  C   UNL     1     -43.449  57.824 -56.791  1.00  0.00     0.252 C 
HETATM   15  N   UNL     1     -43.558  59.168 -57.070  1.00  0.00    -0.353 N 
HETATM   16  H   UNL     1     -43.071  59.858 -56.521  1.00  0.00     0.163 HD
HETATM   17  O   UNL     1     -43.833  56.957 -57.569  1.00  0.00    -0.268 OA
BRANCH  15  18
HETATM   18  C   UNL     1     -44.167  59.625 -58.302  1.00  0.00     0.161 C 
BRANCH  18  19
HETATM   19  C   UNL     1     -43.177  60.378 -59.158  1.00  0.00    -0.040 A 
HETATM   20  C   UNL     1     -42.399  61.407 -58.608  1.00  0.00     0.010 A 
HETATM   21  C   UNL     1     -41.456  62.079 -59.392  1.00  0.00     0.024 A 
HETATM   22  C   UNL     1     -41.285  61.724 -60.728  1.00  0.00     0.034 A 
HETATM   23 CL   UNL     1     -40.124  62.552 -61.690  1.00  0.00    -0.084 Cl
HETATM   24  C   UNL     1     -42.040  60.697 -61.287  1.00  0.00     0.024 A 
HETATM   25  C   UNL     1     -42.977  60.021 -60.502  1.00  0.00     0.010 A 
ENDBRANCH  18  19
ENDBRANCH  15  18
ENDBRANCH  10  14
BRANCH   1  26
HETATM   26  C   UNL     1     -41.727  54.924 -49.599  1.00  0.00     0.103 C 
BRANCH  26  27
HETATM   27  S   UNL     1     -40.006  54.351 -49.886  1.00  0.00    -0.162 SA
BRANCH  27  28
HETATM   28  C   UNL     1     -40.311  52.571 -50.115  1.00  0.00     0.112 C 
BRANCH  28  29
HETATM   29  C   UNL     1     -40.145  52.151 -51.559  1.00  0.00    -0.043 A 
HETATM   30  C   UNL     1     -39.764  50.842 -51.925  1.00  0.00    -0.055 A 
HETATM   31  C   UNL     1     -39.501  49.771 -50.899  1.00  0.00     0.049 C 
HETATM   32  C   UNL     1     -39.653  50.515 -53.287  1.00  0.00     0.007 A 
HETATM   33  C   UNL     1     -39.894  51.470 -54.274  1.00  0.00     0.001 A 
HETATM   34  C   UNL     1     -40.248  52.765 -53.916  1.00  0.00     0.001 A 
HETATM   35  C   UNL     1     -40.371  53.104 -52.569  1.00  0.00     0.008 A 
ENDBRANCH  28  29
ENDBRANCH  27  28
ENDBRANCH  26  27
ENDBRANCH   1  26
TORSDOF 7
ENDMDL
MODEL 7
REMARK VINA RESULT:      -8.2      3.571      4.477
REMARK  7 active torsions:
REMARK  status: ('A' for Active; 'I' for Inactive)
REMARK    1  A    between atoms: C_3  and  C_4 
REMARK    2  A    between atoms: C_4  and  S_5 
REMARK    3  A    between atoms: S_5  and  C_6 
REMARK    4  A    between atoms: C_6  and  C_7 
REMARK    5  A    between atoms: C_16  and  C_17 
REMARK       I    between atoms: C_17  and  N_18 
REMARK    6  A    between atoms: N_18  and  C_19 
REMARK    7  A    between atoms: C_19  and  C_20 
ROOT
HETATM    1  C   UNL     1     -41.249  55.891 -51.585  1.00  0.00     0.162 C 
HETATM    2  N   UNL     1     -42.225  55.286 -52.528  1.00  0.00    -0.277 NA
HETATM    3  C   UNL     1     -42.486  56.087 -53.658  1.00  0.00     0.036 A 
HETATM    4  C   UNL     1     -42.345  57.482 -53.630  1.00  0.00     0.057 A 
HETATM    5  N   UNL     1     -41.898  58.109 -52.460  1.00  0.00    -0.324 N 
HETATM    6  C   UNL     1     -41.471  57.401 -51.364  1.00  0.00     0.240 C 
HETATM    7  O   UNL     1     -41.183  57.983 -50.319  1.00  0.00    -0.271 OA
HETATM    8  C   UNL     1     -43.029  55.491 -54.797  1.00  0.00     0.027 A 
HETATM    9  C   UNL     1     -43.346  56.259 -55.924  1.00  0.00     0.019 A 
HETATM   10  C   UNL     1     -43.166  57.649 -55.906  1.00  0.00     0.034 A 
HETATM   11  C   UNL     1     -42.679  58.259 -54.739  1.00  0.00     0.048 A 
HETATM   12  H   UNL     1     -43.105  55.075 -52.055  1.00  0.00     0.128 HD
HETATM   13  H   UNL     1     -41.925  59.117 -52.372  1.00  0.00     0.169 HD
ENDROOT
BRANCH  10  14
HETATM   14  C   UNL     1     -43.421  58.530 -57.087  1.00  0.00     0.252 C 
HETATM   15  N   UNL     1     -44.110  57.996 -58.153  1.00  0.00    -0.353 N 
HETATM   16  H   UNL     1     -44.610  57.126 -58.069  1.00  0.00     0.163 HD
HETATM   17  O   UNL     1     -43.004  59.684 -57.085  1.00  0.00    -0.268 OA
BRANCH  15  18
HETATM   18  C   UNL     1     -44.352  58.776 -59.348  1.00  0.00     0.161 C 
BRANCH  18  19
HETATM   19  C   UNL     1     -45.556  58.266 -60.103  1.00  0.00    -0.040 A 
HETATM   20  C   UNL     1     -45.817  56.891 -60.181  1.00  0.00     0.010 A 
HETATM   21  C   UNL     1     -46.952  56.421 -60.848  1.00  0.00     0.024 A 
HETATM   22  C   UNL     1     -47.834  57.325 -61.437  1.00  0.00     0.034 A 
HETATM   23 CL   UNL     1     -49.230  56.745 -62.258  1.00  0.00    -0.084 Cl
HETATM   24  C   UNL     1     -47.597  58.694 -61.360  1.00  0.00     0.024 A 
HETATM   25  C   UNL     1     -46.465  59.163 -60.688  1.00  0.00     0.010 A 
ENDBRANCH  18  19
ENDBRANCH  15  18
ENDBRANCH  10  14
BRANCH   1  26
HETATM   26  C   UNL     1     -41.245  55.166 -50.228  1.00  0.00     0.103 C 
BRANCH  26  27
HETATM   27  S   UNL     1     -41.111  53.336 -50.302  1.00  0.00    -0.162 SA
BRANCH  27  28
HETATM   28  C   UNL     1     -39.663  53.179 -51.395  1.00  0.00     0.112 C 
BRANCH  28  29
HETATM   29  C   UNL     1     -39.715  51.913 -52.221  1.00  0.00    -0.043 A 
HETATM   30  C   UNL     1     -39.933  51.932 -53.616  1.00  0.00    -0.055 A 
HETATM   31  C   UNL     1     -40.122  53.217 -54.377  1.00  0.00     0.049 C 
HETATM   32  C   UNL     1     -39.945  50.719 -54.325  1.00  0.00     0.007 A 
HETATM   33  C   UNL     1     -39.766  49.503 -53.666  1.00  0.00     0.001 A 
HETATM   34  C   UNL     1     -39.574  49.480 -52.290  1.00  0.00     0.001 A 
HETATM   35  C   UNL     1     -39.551  50.675 -51.573  1.00  0.00     0.008 A 
ENDBRANCH  28  29
ENDBRANCH  27  28
ENDBRANCH  26  27
ENDBRANCH   1  26
TORSDOF 7
ENDMDL
MODEL 8
REMARK VINA RESULT:      -8.1      3.738     10.356
REMARK  7 active torsions:
REMARK  status: ('A' for Active; 'I' for Inactive)
REMARK    1  A    between atoms: C_3  and  C_4 
REMARK    2  A    between atoms: C_4  and  S_5 
REMARK    3  A    between atoms: S_5  and  C_6 
REMARK    4  A    between atoms: C_6  and  C_7 
REMARK    5  A    between atoms: C_16  and  C_17 
REMARK       I    between atoms: C_17  and  N_18 
REMARK    6  A    between atoms: N_18  and  C_19 
REMARK    7  A    between atoms: C_19  and  C_20 
ROOT
HETATM    1  C   UNL     1     -41.860  58.872 -59.527  1.00  0.00     0.162 C 
HETATM    2  N   UNL     1     -42.336  59.594 -58.318  1.00  0.00    -0.277 NA
HETATM    3  C   UNL     1     -42.302  58.811 -57.147  1.00  0.00     0.036 A 
HETATM    4  C   UNL     1     -42.397  57.412 -57.183  1.00  0.00     0.057 A 
HETATM    5  N   UNL     1     -42.493  56.757 -58.416  1.00  0.00    -0.324 N 
HETATM    6  C   UNL     1     -42.376  57.422 -59.613  1.00  0.00     0.240 C 
HETATM    7  O   UNL     1     -42.568  56.831 -60.675  1.00  0.00    -0.271 OA
HETATM    8  C   UNL     1     -42.310  59.452 -55.907  1.00  0.00     0.027 A 
HETATM    9  C   UNL     1     -42.324  58.711 -54.719  1.00  0.00     0.019 A 
HETATM   10  C   UNL     1     -42.379  57.310 -54.760  1.00  0.00     0.034 A 
HETATM   11  C   UNL     1     -42.435  56.666 -56.005  1.00  0.00     0.048 A 
HETATM   12  H   UNL     1     -43.282  59.951 -58.457  1.00  0.00     0.128 HD
HETATM   13  H   UNL     1     -42.705  55.768 -58.460  1.00  0.00     0.169 HD
ENDROOT
BRANCH  10  14
HETATM   14  C   UNL     1     -42.335  56.447 -53.539  1.00  0.00     0.252 C 
HETATM   15  N   UNL     1     -41.143  55.832 -53.227  1.00  0.00    -0.353 N 
HETATM   16  H   UNL     1     -40.280  56.111 -53.666  1.00  0.00     0.163 HD
HETATM   17  O   UNL     1     -43.349  56.296 -52.866  1.00  0.00    -0.268 OA
BRANCH  15  18
HETATM   18  C   UNL     1     -41.040  54.945 -52.088  1.00  0.00     0.161 C 
BRANCH  18  19
HETATM   19  C   UNL     1     -40.620  53.557 -52.509  1.00  0.00    -0.040 A 
HETATM   20  C   UNL     1     -40.832  53.118 -53.823  1.00  0.00     0.010 A 
HETATM   21  C   UNL     1     -40.410  51.846 -54.223  1.00  0.00     0.024 A 
HETATM   22  C   UNL     1     -39.770  51.009 -53.311  1.00  0.00     0.034 A 
HETATM   23 CL   UNL     1     -39.251  49.445 -53.804  1.00  0.00    -0.084 Cl
HETATM   24  C   UNL     1     -39.540  51.434 -52.005  1.00  0.00     0.024 A 
HETATM   25  C   UNL     1     -39.957  52.707 -51.608  1.00  0.00     0.010 A 
ENDBRANCH  18  19
ENDBRANCH  15  18
ENDBRANCH  10  14
BRANCH   1  26
HETATM   26  C   UNL     1     -42.222  59.626 -60.818  1.00  0.00     0.103 C 
BRANCH  26  27
HETATM   27  S   UNL     1     -43.730  60.670 -60.737  1.00  0.00    -0.162 SA
BRANCH  27  28
HETATM   28  C   UNL     1     -43.039  62.251 -61.317  1.00  0.00     0.112 C 
BRANCH  28  29
HETATM   29  C   UNL     1     -41.839  62.677 -60.501  1.00  0.00    -0.043 A 
HETATM   30  C   UNL     1     -40.553  62.817 -61.067  1.00  0.00    -0.055 A 
HETATM   31  C   UNL     1     -40.292  62.559 -62.527  1.00  0.00     0.049 C 
HETATM   32  C   UNL     1     -39.488  63.240 -60.254  1.00  0.00     0.007 A 
HETATM   33  C   UNL     1     -39.682  63.500 -58.898  1.00  0.00     0.001 A 
HETATM   34  C   UNL     1     -40.942  63.341 -58.333  1.00  0.00     0.001 A 
HETATM   35  C   UNL     1     -42.011  62.930 -59.127  1.00  0.00     0.008 A 
ENDBRANCH  28  29
ENDBRANCH  27  28
ENDBRANCH  26  27
ENDBRANCH   1  26
TORSDOF 7
ENDMDL
MODEL 9
REMARK VINA RESULT:      -8.1      1.895      2.232
REMARK  7 active torsions:
REMARK  status: ('A' for Active; 'I' for Inactive)
REMARK    1  A    between atoms: C_3  and  C_4 
REMARK    2  A    between atoms: C_4  and  S_5 
REMARK    3  A    between atoms: S_5  and  C_6 
REMARK    4  A    between atoms: C_6  and  C_7 
REMARK    5  A    between atoms: C_16  and  C_17 
REMARK       I    between atoms: C_17  and  N_18 
REMARK    6  A    between atoms: N_18  and  C_19 
REMARK    7  A    between atoms: C_19  and  C_20 
ROOT
HETATM    1  C   UNL     1     -41.498  57.471 -52.193  1.00  0.00     0.162 C 
HETATM    2  N   UNL     1     -42.862  57.400 -52.781  1.00  0.00    -0.277 NA
HETATM    3  C   UNL     1     -42.960  58.013 -54.046  1.00  0.00     0.036 A 
HETATM    4  C   UNL     1     -42.106  59.054 -54.438  1.00  0.00     0.057 A 
HETATM    5  N   UNL     1     -41.096  59.484 -53.569  1.00  0.00    -0.324 N 
HETATM    6  C   UNL     1     -40.823  58.844 -52.385  1.00  0.00     0.240 C 
HETATM    7  O   UNL     1     -39.999  59.310 -51.600  1.00  0.00    -0.271 OA
HETATM    8  C   UNL     1     -44.024  57.668 -54.881  1.00  0.00     0.027 A 
HETATM    9  C   UNL     1     -44.185  58.288 -56.126  1.00  0.00     0.019 A 
HETATM   10  C   UNL     1     -43.305  59.301 -56.532  1.00  0.00     0.034 A 
HETATM   11  C   UNL     1     -42.272  59.693 -55.666  1.00  0.00     0.048 A 
HETATM   12  H   UNL     1     -43.551  57.814 -52.152  1.00  0.00     0.128 HD
HETATM   13  H   UNL     1     -40.564  60.322 -53.770  1.00  0.00     0.169 HD
ENDROOT
BRANCH  10  14
HETATM   14  C   UNL     1     -43.372  59.967 -57.869  1.00  0.00     0.252 C 
HETATM   15  N   UNL     1     -42.404  59.652 -58.796  1.00  0.00    -0.353 N 
HETATM   16  H   UNL     1     -41.800  58.855 -58.672  1.00  0.00     0.163 HD
HETATM   17  O   UNL     1     -44.264  60.777 -58.099  1.00  0.00    -0.268 OA
BRANCH  15  18
HETATM   18  C   UNL     1     -42.379  60.293 -60.094  1.00  0.00     0.161 C 
BRANCH  18  19
HETATM   19  C   UNL     1     -41.367  61.412 -60.134  1.00  0.00    -0.040 A 
HETATM   20  C   UNL     1     -40.794  61.896 -58.949  1.00  0.00     0.010 A 
HETATM   21  C   UNL     1     -39.829  62.907 -58.990  1.00  0.00     0.024 A 
HETATM   22  C   UNL     1     -39.429  63.436 -60.215  1.00  0.00     0.034 A 
HETATM   23 CL   UNL     1     -38.241  64.679 -60.263  1.00  0.00    -0.084 Cl
HETATM   24  C   UNL     1     -39.978  62.959 -61.402  1.00  0.00     0.024 A 
HETATM   25  C   UNL     1     -40.938  61.945 -61.361  1.00  0.00     0.010 A 
ENDBRANCH  18  19
ENDBRANCH  15  18
ENDBRANCH  10  14
BRANCH   1  26
HETATM   26  C   UNL     1     -41.504  57.103 -50.699  1.00  0.00     0.103 C 
BRANCH  26  27
HETATM   27  S   UNL     1     -40.692  55.514 -50.266  1.00  0.00    -0.162 SA
BRANCH  27  28
HETATM   28  C   UNL     1     -41.811  54.356 -51.117  1.00  0.00     0.112 C 
BRANCH  28  29
HETATM   29  C   UNL     1     -41.055  53.383 -51.994  1.00  0.00    -0.043 A 
HETATM   30  C   UNL     1     -41.310  53.259 -53.377  1.00  0.00    -0.055 A 
HETATM   31  C   UNL     1     -42.349  54.097 -54.075  1.00  0.00     0.049 C 
HETATM   32  C   UNL     1     -40.552  52.351 -54.136  1.00  0.00     0.007 A 
HETATM   33  C   UNL     1     -39.573  51.560 -53.537  1.00  0.00     0.001 A 
HETATM   34  C   UNL     1     -39.336  51.663 -52.171  1.00  0.00     0.001 A 
HETATM   35  C   UNL     1     -40.073  52.566 -51.405  1.00  0.00     0.008 A 
ENDBRANCH  28  29
ENDBRANCH  27  28
ENDBRANCH  26  27
ENDBRANCH   1  26
TORSDOF 7
ENDMDL
MODEL 10
REMARK VINA RESULT:      -8.0      6.030      7.643
REMARK  7 active torsions:
REMARK  status: ('A' for Active; 'I' for Inactive)
REMARK    1  A    between atoms: C_3  and  C_4 
REMARK    2  A    between atoms: C_4  and  S_5 
REMARK    3  A    between atoms: S_5  and  C_6 
REMARK    4  A    between atoms: C_6  and  C_7 
REMARK    5  A    between atoms: C_16  and  C_17 
REMARK       I    between atoms: C_17  and  N_18 
REMARK    6  A    between atoms: N_18  and  C_19 
REMARK    7  A    between atoms: C_19  and  C_20 
ROOT
HETATM    1  C   UNL     1     -43.969  56.033 -54.601  1.00  0.00     0.162 C 
HETATM    2  N   UNL     1     -43.866  56.341 -53.151  1.00  0.00    -0.277 NA
HETATM    3  C   UNL     1     -44.554  57.513 -52.775  1.00  0.00     0.036 A 
HETATM    4  C   UNL     1     -44.785  58.562 -53.677  1.00  0.00     0.057 A 
HETATM    5  N   UNL     1     -44.357  58.440 -55.005  1.00  0.00    -0.324 N 
HETATM    6  C   UNL     1     -43.820  57.276 -55.500  1.00  0.00     0.240 C 
HETATM    7  O   UNL     1     -43.361  57.239 -56.641  1.00  0.00    -0.271 OA
HETATM    8  C   UNL     1     -44.896  57.694 -51.434  1.00  0.00     0.027 A 
HETATM    9  C   UNL     1     -45.538  58.864 -51.012  1.00  0.00     0.019 A 
HETATM   10  C   UNL     1     -45.804  59.894 -51.925  1.00  0.00     0.034 A 
HETATM   11  C   UNL     1     -45.404  59.741 -53.261  1.00  0.00     0.048 A 
HETATM   12  H   UNL     1     -42.890  56.418 -52.864  1.00  0.00     0.128 HD
HETATM   13  H   UNL     1     -44.385  59.235 -55.631  1.00  0.00     0.169 HD
ENDROOT
BRANCH  10  14
HETATM   14  C   UNL     1     -46.539  61.146 -51.567  1.00  0.00     0.252 C 
HETATM   15  N   UNL     1     -47.128  61.862 -52.585  1.00  0.00    -0.353 N 
HETATM   16  H   UNL     1     -47.250  61.464 -53.502  1.00  0.00     0.163 HD
HETATM   17  O   UNL     1     -46.586  61.508 -50.395  1.00  0.00    -0.268 OA
BRANCH  15  18
HETATM   18  C   UNL     1     -47.815  63.108 -52.317  1.00  0.00     0.161 C 
BRANCH  18  19
HETATM   19  C   UNL     1     -49.248  63.058 -52.791  1.00  0.00    -0.040 A 
HETATM   20  C   UNL     1     -49.929  61.835 -52.868  1.00  0.00     0.010 A 
HETATM   21  C   UNL     1     -51.267  61.793 -53.272  1.00  0.00     0.024 A 
HETATM   22  C   UNL     1     -51.931  62.975 -53.597  1.00  0.00     0.034 A 
HETATM   23 CL   UNL     1     -53.577  62.921 -54.094  1.00  0.00    -0.084 Cl
HETATM   24  C   UNL     1     -51.273  64.199 -53.515  1.00  0.00     0.024 A 
HETATM   25  C   UNL     1     -49.938  64.240 -53.105  1.00  0.00     0.010 A 
ENDBRANCH  18  19
ENDBRANCH  15  18
ENDBRANCH  10  14
BRANCH   1  26
HETATM   26  C   UNL     1     -42.949  54.963 -55.028  1.00  0.00     0.103 C 
BRANCH  26  27
HETATM   27  S   UNL     1     -41.211  55.271 -54.525  1.00  0.00    -0.162 SA
BRANCH  27  28
HETATM   28  C   UNL     1     -41.211  54.448 -52.901  1.00  0.00     0.112 C 
BRANCH  28  29
HETATM   29  C   UNL     1     -40.623  53.056 -52.973  1.00  0.00    -0.043 A 
HETATM   30  C   UNL     1     -40.068  52.413 -51.846  1.00  0.00    -0.055 A 
HETATM   31  C   UNL     1     -40.030  53.069 -50.491  1.00  0.00     0.049 C 
HETATM   32  C   UNL     1     -39.561  51.109 -51.981  1.00  0.00     0.007 A 
HETATM   33  C   UNL     1     -39.581  50.457 -53.213  1.00  0.00     0.001 A 
HETATM   34  C   UNL     1     -40.107  51.097 -54.329  1.00  0.00     0.001 A 
HETATM   35  C   UNL     1     -40.622  52.387 -54.211  1.00  0.00     0.008 A 
ENDBRANCH  28  29
ENDBRANCH  27  28
ENDBRANCH  26  27
ENDBRANCH   1  26
TORSDOF 7
ENDMDL
