MODEL 1
REMARK VINA RESULT:     -10.0      0.000      0.000
REMARK  5 active torsions:
REMARK  status: ('A' for Active; 'I' for Inactive)
REMARK    1  A    between atoms: C_11  and  C_12 
REMARK    2  A    between atoms: C_12  and  S_13 
REMARK    3  A    between atoms: S_13  and  C_14 
REMARK    4  A    between atoms: C_16  and  N_17 
REMARK    5  A    between atoms: N_17  and  C_18 
ROOT
HETATM    1  C   UNL     1     -40.739  54.903 -52.890  1.00  0.00     0.121 C 
ENDROOT
BRANCH   1   2
HETATM    2  C   UNL     1     -40.718  54.252 -51.528  1.00  0.00    -0.029 A 
HETATM    3  C   UNL     1     -40.410  52.780 -51.404  1.00  0.00     0.016 A 
HETATM    4  C   UNL     1     -40.155  51.822 -52.473  1.00  0.00    -0.012 A 
HETATM    5  C   UNL     1     -40.363  52.285 -50.083  1.00  0.00     0.091 A 
HETATM    6  C   UNL     1     -39.855  50.467 -52.116  1.00  0.00    -0.025 A 
HETATM    7  C   UNL     1     -40.166  52.052 -53.883  1.00  0.00     0.013 A 
HETATM    8  C   UNL     1     -39.587  49.484 -53.085  1.00  0.00     0.012 A 
HETATM    9  C   UNL     1     -39.817  50.062 -50.782  1.00  0.00     0.015 A 
HETATM   10  C   UNL     1     -39.605  49.775 -54.440  1.00  0.00     0.001 A 
HETATM   11  C   UNL     1     -39.898  51.062 -54.841  1.00  0.00     0.001 A 
HETATM   12  C   UNL     1     -40.074  50.962 -49.766  1.00  0.00     0.039 A 
HETATM   13  O   UNL     1     -40.609  53.077 -48.943  1.00  0.00    -0.275 OA
HETATM   14  C   UNL     1     -40.928  54.405 -49.047  1.00  0.00     0.288 A 
HETATM   15  O   UNL     1     -41.165  55.109 -48.074  1.00  0.00    -0.260 OA
HETATM   16  C   UNL     1     -40.957  54.952 -50.403  1.00  0.00     0.091 A 
ENDBRANCH   1   2
BRANCH   1  17
HETATM   17  S   UNL     1     -41.410  56.587 -53.034  1.00  0.00    -0.096 SA
BRANCH  17  18
HETATM   18  C   UNL     1     -42.016  56.512 -54.676  1.00  0.00     0.160 A 
HETATM   19  S   UNL     1     -42.497  57.888 -55.566  1.00  0.00    -0.022 SA
HETATM   20  C   UNL     1     -42.834  56.831 -56.896  1.00  0.00     0.195 A 
HETATM   21  N   UNL     1     -42.598  55.566 -56.608  1.00  0.00    -0.123 NA
HETATM   22  N   UNL     1     -42.128  55.378 -55.328  1.00  0.00    -0.133 NA
BRANCH  20  23
HETATM   23  N   UNL     1     -43.283  57.351 -58.061  1.00  0.00    -0.331 N 
HETATM   24  H   UNL     1     -42.805  58.167 -58.432  1.00  0.00     0.168 HD
BRANCH  23  25
HETATM   25  C   UNL     1     -44.314  56.892 -58.907  1.00  0.00     0.073 A 
HETATM   26  C   UNL     1     -43.998  55.920 -59.873  1.00  0.00     0.143 A 
HETATM   27  F   UNL     1     -42.735  55.467 -59.951  1.00  0.00    -0.204 F 
HETATM   28  C   UNL     1     -44.947  55.405 -60.753  1.00  0.00     0.044 A 
HETATM   29  C   UNL     1     -46.260  55.862 -60.685  1.00  0.00     0.003 A 
HETATM   30  C   UNL     1     -46.604  56.826 -59.739  1.00  0.00     0.002 A 
HETATM   31  C   UNL     1     -45.639  57.338 -58.860  1.00  0.00     0.033 A 
ENDBRANCH  23  25
ENDBRANCH  20  23
ENDBRANCH  17  18
ENDBRANCH   1  17
TORSDOF 5
ENDMDL
MODEL 2
REMARK VINA RESULT:      -9.8      2.030      2.655
REMARK  5 active torsions:
REMARK  status: ('A' for Active; 'I' for Inactive)
REMARK    1  A    between atoms: C_11  and  C_12 
REMARK    2  A    between atoms: C_12  and  S_13 
REMARK    3  A    between atoms: S_13  and  C_14 
REMARK    4  A    between atoms: C_16  and  N_17 
REMARK    5  A    between atoms: N_17  and  C_18 
ROOT
HETATM    1  C   UNL     1     -41.404  56.596 -51.018  1.00  0.00     0.121 C 
ENDROOT
BRANCH   1   2
HETATM    2  C   UNL     1     -41.050  55.263 -50.403  1.00  0.00    -0.029 A 
HETATM    3  C   UNL     1     -40.651  54.108 -51.289  1.00  0.00     0.016 A 
HETATM    4  C   UNL     1     -40.594  54.072 -52.746  1.00  0.00    -0.012 A 
HETATM    5  C   UNL     1     -40.287  52.927 -50.609  1.00  0.00     0.091 A 
HETATM    6  C   UNL     1     -40.156  52.864 -53.379  1.00  0.00    -0.025 A 
HETATM    7  C   UNL     1     -40.928  55.111 -53.667  1.00  0.00     0.013 A 
HETATM    8  C   UNL     1     -40.063  52.748 -54.777  1.00  0.00     0.012 A 
HETATM    9  C   UNL     1     -39.804  51.741 -52.630  1.00  0.00     0.015 A 
HETATM   10  C   UNL     1     -40.394  53.800 -55.617  1.00  0.00     0.001 A 
HETATM   11  C   UNL     1     -40.831  54.984 -55.060  1.00  0.00     0.001 A 
HETATM   12  C   UNL     1     -39.872  51.765 -51.251  1.00  0.00     0.039 A 
HETATM   13  O   UNL     1     -40.313  52.794 -49.206  1.00  0.00    -0.275 OA
HETATM   14  C   UNL     1     -40.711  53.823 -48.394  1.00  0.00     0.288 A 
HETATM   15  O   UNL     1     -40.760  53.727 -47.175  1.00  0.00    -0.260 OA
HETATM   16  C   UNL     1     -41.066  55.071 -49.071  1.00  0.00     0.091 A 
ENDBRANCH   1   2
BRANCH   1  17
HETATM   17  S   UNL     1     -43.160  57.052 -51.141  1.00  0.00    -0.096 SA
BRANCH  17  18
HETATM   18  C   UNL     1     -43.256  57.351 -52.865  1.00  0.00     0.160 A 
HETATM   19  S   UNL     1     -44.363  56.561 -53.898  1.00  0.00    -0.022 SA
HETATM   20  C   UNL     1     -43.722  57.505 -55.202  1.00  0.00     0.195 A 
HETATM   21  N   UNL     1     -42.749  58.305 -54.814  1.00  0.00    -0.123 NA
HETATM   22  N   UNL     1     -42.475  58.218 -53.468  1.00  0.00    -0.133 NA
BRANCH  20  23
HETATM   23  N   UNL     1     -44.240  57.361 -56.443  1.00  0.00    -0.331 N 
HETATM   24  H   UNL     1     -45.248  57.272 -56.529  1.00  0.00     0.168 HD
BRANCH  23  25
HETATM   25  C   UNL     1     -43.584  57.370 -57.692  1.00  0.00     0.073 A 
HETATM   26  C   UNL     1     -43.140  56.143 -58.218  1.00  0.00     0.143 A 
HETATM   27  F   UNL     1     -43.358  55.018 -57.517  1.00  0.00    -0.204 F 
HETATM   28  C   UNL     1     -42.482  56.050 -59.443  1.00  0.00     0.044 A 
HETATM   29  C   UNL     1     -42.251  57.206 -60.182  1.00  0.00     0.003 A 
HETATM   30  C   UNL     1     -42.677  58.437 -59.686  1.00  0.00     0.002 A 
HETATM   31  C   UNL     1     -43.336  58.518 -58.452  1.00  0.00     0.033 A 
ENDBRANCH  23  25
ENDBRANCH  20  23
ENDBRANCH  17  18
ENDBRANCH   1  17
TORSDOF 5
ENDMDL
MODEL 3
REMARK VINA RESULT:      -9.3      2.855      3.654
REMARK  5 active torsions:
REMARK  status: ('A' for Active; 'I' for Inactive)
REMARK    1  A    between atoms: C_11  and  C_12 
REMARK    2  A    between atoms: C_12  and  S_13 
REMARK    3  A    between atoms: S_13  and  C_14 
REMARK    4  A    between atoms: C_16  and  N_17 
REMARK    5  A    between atoms: N_17  and  C_18 
ROOT
HETATM    1  C   UNL     1     -41.235  54.839 -55.054  1.00  0.00     0.121 C 
ENDROOT
BRANCH   1   2
HETATM    2  C   UNL     1     -41.162  55.112 -53.571  1.00  0.00    -0.029 A 
HETATM    3  C   UNL     1     -40.731  54.017 -52.626  1.00  0.00     0.016 A 
HETATM    4  C   UNL     1     -40.393  52.635 -52.947  1.00  0.00    -0.012 A 
HETATM    5  C   UNL     1     -40.644  54.393 -51.269  1.00  0.00     0.091 A 
HETATM    6  C   UNL     1     -39.980  51.771 -51.881  1.00  0.00    -0.025 A 
HETATM    7  C   UNL     1     -40.421  51.995 -54.224  1.00  0.00     0.013 A 
HETATM    8  C   UNL     1     -39.628  50.428 -52.106  1.00  0.00     0.012 A 
HETATM    9  C   UNL     1     -39.912  52.227 -50.565  1.00  0.00     0.015 A 
HETATM   10  C   UNL     1     -39.667  49.869 -53.374  1.00  0.00     0.001 A 
HETATM   11  C   UNL     1     -40.067  50.654 -54.436  1.00  0.00     0.001 A 
HETATM   12  C   UNL     1     -40.246  53.530 -50.254  1.00  0.00     0.039 A 
HETATM   13  O   UNL     1     -40.959  55.683 -50.795  1.00  0.00    -0.275 OA
HETATM   14  C   UNL     1     -41.389  56.673 -51.639  1.00  0.00     0.288 A 
HETATM   15  O   UNL     1     -41.687  57.795 -51.250  1.00  0.00    -0.260 OA
HETATM   16  C   UNL     1     -41.461  56.319 -53.056  1.00  0.00     0.091 A 
ENDBRANCH   1   2
BRANCH   1  17
HETATM   17  S   UNL     1     -42.864  54.517 -55.796  1.00  0.00    -0.096 SA
BRANCH  17  18
HETATM   18  C   UNL     1     -43.006  55.946 -56.799  1.00  0.00     0.160 A 
HETATM   19  S   UNL     1     -43.290  57.511 -56.176  1.00  0.00    -0.022 SA
HETATM   20  C   UNL     1     -43.215  58.103 -57.802  1.00  0.00     0.195 A 
HETATM   21  N   UNL     1     -43.012  57.141 -58.680  1.00  0.00    -0.123 NA
HETATM   22  N   UNL     1     -42.892  55.896 -58.107  1.00  0.00    -0.133 NA
BRANCH  20  23
HETATM   23  N   UNL     1     -43.358  59.428 -58.034  1.00  0.00    -0.331 N 
HETATM   24  H   UNL     1     -44.217  59.873 -57.724  1.00  0.00     0.168 HD
BRANCH  23  25
HETATM   25  C   UNL     1     -42.448  60.339 -58.609  1.00  0.00     0.073 A 
HETATM   26  C   UNL     1     -42.445  60.482 -60.008  1.00  0.00     0.143 A 
HETATM   27  F   UNL     1     -43.306  59.752 -60.738  1.00  0.00    -0.204 F 
HETATM   28  C   UNL     1     -41.583  61.355 -60.668  1.00  0.00     0.044 A 
HETATM   29  C   UNL     1     -40.688  62.120 -59.927  1.00  0.00     0.003 A 
HETATM   30  C   UNL     1     -40.665  61.999 -58.539  1.00  0.00     0.002 A 
HETATM   31  C   UNL     1     -41.536  61.115 -57.886  1.00  0.00     0.033 A 
ENDBRANCH  23  25
ENDBRANCH  20  23
ENDBRANCH  17  18
ENDBRANCH   1  17
TORSDOF 5
ENDMDL
MODEL 4
REMARK VINA RESULT:      -9.2      3.577      5.950
REMARK  5 active torsions:
REMARK  status: ('A' for Active; 'I' for Inactive)
REMARK    1  A    between atoms: C_11  and  C_12 
REMARK    2  A    between atoms: C_12  and  S_13 
REMARK    3  A    between atoms: S_13  and  C_14 
REMARK    4  A    between atoms: C_16  and  N_17 
REMARK    5  A    between atoms: N_17  and  C_18 
ROOT
HETATM    1  C   UNL     1     -41.055  54.194 -55.027  1.00  0.00     0.121 C 
ENDROOT
BRANCH   1   2
HETATM    2  C   UNL     1     -40.616  53.035 -54.166  1.00  0.00    -0.029 A 
HETATM    3  C   UNL     1     -40.554  53.194 -52.667  1.00  0.00     0.016 A 
HETATM    4  C   UNL     1     -40.833  54.388 -51.878  1.00  0.00    -0.012 A 
HETATM    5  C   UNL     1     -40.184  52.034 -51.954  1.00  0.00     0.091 A 
HETATM    6  C   UNL     1     -40.736  54.298 -50.451  1.00  0.00    -0.025 A 
HETATM    7  C   UNL     1     -41.200  55.687 -52.345  1.00  0.00     0.013 A 
HETATM    8  C   UNL     1     -40.997  55.400 -49.617  1.00  0.00     0.012 A 
HETATM    9  C   UNL     1     -40.372  53.107 -49.824  1.00  0.00     0.015 A 
HETATM   10  C   UNL     1     -41.360  56.634 -50.135  1.00  0.00     0.001 A 
HETATM   11  C   UNL     1     -41.459  56.779 -51.503  1.00  0.00     0.001 A 
HETATM   12  C   UNL     1     -40.092  51.978 -50.567  1.00  0.00     0.039 A 
HETATM   13  O   UNL     1     -39.860  50.808 -52.571  1.00  0.00    -0.275 OA
HETATM   14  C   UNL     1     -39.875  50.664 -53.933  1.00  0.00     0.288 A 
HETATM   15  O   UNL     1     -39.580  49.617 -54.494  1.00  0.00    -0.260 OA
HETATM   16  C   UNL     1     -40.283  51.843 -54.697  1.00  0.00     0.091 A 
ENDBRANCH   1   2
BRANCH   1  17
HETATM   17  S   UNL     1     -42.803  54.293 -55.519  1.00  0.00    -0.096 SA
BRANCH  17  18
HETATM   18  C   UNL     1     -43.046  56.020 -55.361  1.00  0.00     0.160 A 
HETATM   19  S   UNL     1     -44.071  56.725 -54.191  1.00  0.00    -0.022 SA
HETATM   20  C   UNL     1     -43.599  58.276 -54.804  1.00  0.00     0.195 A 
HETATM   21  N   UNL     1     -42.758  58.184 -55.814  1.00  0.00    -0.123 NA
HETATM   22  N   UNL     1     -42.437  56.885 -56.140  1.00  0.00    -0.133 NA
BRANCH  20  23
HETATM   23  N   UNL     1     -44.098  59.395 -54.233  1.00  0.00    -0.331 N 
HETATM   24  H   UNL     1     -44.621  60.036 -54.821  1.00  0.00     0.168 HD
BRANCH  23  25
HETATM   25  C   UNL     1     -44.055  59.805 -52.883  1.00  0.00     0.073 A 
HETATM   26  C   UNL     1     -42.819  60.219 -52.354  1.00  0.00     0.143 A 
HETATM   27  F   UNL     1     -41.736  60.210 -53.148  1.00  0.00    -0.204 F 
HETATM   28  C   UNL     1     -42.677  60.641 -51.033  1.00  0.00     0.044 A 
HETATM   29  C   UNL     1     -43.789  60.658 -50.198  1.00  0.00     0.003 A 
HETATM   30  C   UNL     1     -45.027  60.251 -50.693  1.00  0.00     0.002 A 
HETATM   31  C   UNL     1     -45.158  59.827 -52.023  1.00  0.00     0.033 A 
ENDBRANCH  23  25
ENDBRANCH  20  23
ENDBRANCH  17  18
ENDBRANCH   1  17
TORSDOF 5
ENDMDL
MODEL 5
REMARK VINA RESULT:      -9.1      2.898      3.819
REMARK  5 active torsions:
REMARK  status: ('A' for Active; 'I' for Inactive)
REMARK    1  A    between atoms: C_11  and  C_12 
REMARK    2  A    between atoms: C_12  and  S_13 
REMARK    3  A    between atoms: S_13  and  C_14 
REMARK    4  A    between atoms: C_16  and  N_17 
REMARK    5  A    between atoms: N_17  and  C_18 
ROOT
HETATM    1  C   UNL     1     -42.004  58.496 -53.778  1.00  0.00     0.121 C 
ENDROOT
BRANCH   1   2
HETATM    2  C   UNL     1     -42.888  57.829 -52.751  1.00  0.00    -0.029 A 
HETATM    3  C   UNL     1     -42.758  56.347 -52.496  1.00  0.00     0.016 A 
HETATM    4  C   UNL     1     -41.878  55.395 -53.164  1.00  0.00    -0.012 A 
HETATM    5  C   UNL     1     -43.592  55.836 -51.480  1.00  0.00     0.091 A 
HETATM    6  C   UNL     1     -41.904  54.028 -52.734  1.00  0.00    -0.025 A 
HETATM    7  C   UNL     1     -40.961  55.641 -54.232  1.00  0.00     0.013 A 
HETATM    8  C   UNL     1     -41.081  53.049 -53.318  1.00  0.00     0.012 A 
HETATM    9  C   UNL     1     -42.754  53.607 -51.712  1.00  0.00     0.015 A 
HETATM   10  C   UNL     1     -40.204  53.356 -54.347  1.00  0.00     0.001 A 
HETATM   11  C   UNL     1     -40.145  54.655 -54.807  1.00  0.00     0.001 A 
HETATM   12  C   UNL     1     -43.600  54.502 -51.087  1.00  0.00     0.039 A 
HETATM   13  O   UNL     1     -44.513  56.622 -50.757  1.00  0.00    -0.275 OA
HETATM   14  C   UNL     1     -44.668  57.960 -51.008  1.00  0.00     0.288 A 
HETATM   15  O   UNL     1     -45.474  58.659 -50.408  1.00  0.00    -0.260 OA
HETATM   16  C   UNL     1     -43.795  58.523 -52.038  1.00  0.00     0.091 A 
ENDBRANCH   1   2
BRANCH   1  17
HETATM   17  S   UNL     1     -42.525  60.100 -54.457  1.00  0.00    -0.096 SA
BRANCH  17  18
HETATM   18  C   UNL     1     -42.366  59.750 -56.166  1.00  0.00     0.160 A 
HETATM   19  S   UNL     1     -43.176  58.464 -56.944  1.00  0.00    -0.022 SA
HETATM   20  C   UNL     1     -42.448  58.987 -58.427  1.00  0.00     0.195 A 
HETATM   21  N   UNL     1     -41.661  60.031 -58.262  1.00  0.00    -0.123 NA
HETATM   22  N   UNL     1     -41.610  60.474 -56.960  1.00  0.00    -0.133 NA
BRANCH  20  23
HETATM   23  N   UNL     1     -42.727  58.325 -59.573  1.00  0.00    -0.331 N 
HETATM   24  H   UNL     1     -42.086  58.434 -60.353  1.00  0.00     0.168 HD
BRANCH  23  25
HETATM   25  C   UNL     1     -43.777  57.425 -59.853  1.00  0.00     0.073 A 
HETATM   26  C   UNL     1     -43.473  56.055 -59.940  1.00  0.00     0.143 A 
HETATM   27  F   UNL     1     -42.203  55.657 -59.752  1.00  0.00    -0.204 F 
HETATM   28  C   UNL     1     -44.441  55.091 -60.212  1.00  0.00     0.044 A 
HETATM   29  C   UNL     1     -45.761  55.485 -60.407  1.00  0.00     0.003 A 
HETATM   30  C   UNL     1     -46.094  56.836 -60.329  1.00  0.00     0.002 A 
HETATM   31  C   UNL     1     -45.110  57.797 -60.056  1.00  0.00     0.033 A 
ENDBRANCH  23  25
ENDBRANCH  20  23
ENDBRANCH  17  18
ENDBRANCH   1  17
TORSDOF 5
ENDMDL
MODEL 6
REMARK VINA RESULT:      -8.9      3.085      4.723
REMARK  5 active torsions:
REMARK  status: ('A' for Active; 'I' for Inactive)
REMARK    1  A    between atoms: C_11  and  C_12 
REMARK    2  A    between atoms: C_12  and  S_13 
REMARK    3  A    between atoms: S_13  and  C_14 
REMARK    4  A    between atoms: C_16  and  N_17 
REMARK    5  A    between atoms: N_17  and  C_18 
ROOT
HETATM    1  C   UNL     1     -40.903  54.221 -54.947  1.00  0.00     0.121 C 
ENDROOT
BRANCH   1   2
HETATM    2  C   UNL     1     -40.501  53.048 -54.085  1.00  0.00    -0.029 A 
HETATM    3  C   UNL     1     -40.497  53.186 -52.582  1.00  0.00     0.016 A 
HETATM    4  C   UNL     1     -40.801  54.370 -51.788  1.00  0.00    -0.012 A 
HETATM    5  C   UNL     1     -40.159  52.015 -51.872  1.00  0.00     0.091 A 
HETATM    6  C   UNL     1     -40.760  54.261 -50.360  1.00  0.00    -0.025 A 
HETATM    7  C   UNL     1     -41.146  55.677 -52.252  1.00  0.00     0.013 A 
HETATM    8  C   UNL     1     -41.049  55.352 -49.521  1.00  0.00     0.012 A 
HETATM    9  C   UNL     1     -40.426  53.059 -49.736  1.00  0.00     0.015 A 
HETATM   10  C   UNL     1     -41.387  56.594 -50.036  1.00  0.00     0.001 A 
HETATM   11  C   UNL     1     -41.432  56.758 -51.405  1.00  0.00     0.001 A 
HETATM   12  C   UNL     1     -40.121  51.939 -50.484  1.00  0.00     0.039 A 
HETATM   13  O   UNL     1     -39.817  50.796 -52.493  1.00  0.00    -0.275 OA
HETATM   14  C   UNL     1     -39.779  50.671 -53.857  1.00  0.00     0.288 A 
HETATM   15  O   UNL     1     -39.467  49.630 -54.420  1.00  0.00    -0.260 OA
HETATM   16  C   UNL     1     -40.153  51.862 -54.619  1.00  0.00     0.091 A 
ENDBRANCH   1   2
BRANCH   1  17
HETATM   17  S   UNL     1     -42.638  54.352 -55.475  1.00  0.00    -0.096 SA
BRANCH  17  18
HETATM   18  C   UNL     1     -42.668  56.042 -55.934  1.00  0.00     0.160 A 
HETATM   19  S   UNL     1     -43.495  56.632 -57.308  1.00  0.00    -0.022 SA
HETATM   20  C   UNL     1     -42.981  58.223 -56.856  1.00  0.00     0.195 A 
HETATM   21  N   UNL     1     -42.238  58.223 -55.767  1.00  0.00    -0.123 NA
HETATM   22  N   UNL     1     -42.054  56.968 -55.233  1.00  0.00    -0.133 NA
BRANCH  20  23
HETATM   23  N   UNL     1     -43.361  59.281 -57.607  1.00  0.00    -0.331 N 
HETATM   24  H   UNL     1     -44.194  59.789 -57.326  1.00  0.00     0.168 HD
BRANCH  23  25
HETATM   25  C   UNL     1     -42.728  59.852 -58.732  1.00  0.00     0.073 A 
HETATM   26  C   UNL     1     -41.953  61.010 -58.542  1.00  0.00     0.143 A 
HETATM   27  F   UNL     1     -41.842  61.523 -57.306  1.00  0.00    -0.204 F 
HETATM   28  C   UNL     1     -41.291  61.645 -59.591  1.00  0.00     0.044 A 
HETATM   29  C   UNL     1     -41.392  61.125 -60.877  1.00  0.00     0.003 A 
HETATM   30  C   UNL     1     -42.156  59.980 -61.097  1.00  0.00     0.002 A 
HETATM   31  C   UNL     1     -42.819  59.350 -60.035  1.00  0.00     0.033 A 
ENDBRANCH  23  25
ENDBRANCH  20  23
ENDBRANCH  17  18
ENDBRANCH   1  17
TORSDOF 5
ENDMDL
MODEL 7
REMARK VINA RESULT:      -8.9      2.645      3.146
REMARK  5 active torsions:
REMARK  status: ('A' for Active; 'I' for Inactive)
REMARK    1  A    between atoms: C_11  and  C_12 
REMARK    2  A    between atoms: C_12  and  S_13 
REMARK    3  A    between atoms: S_13  and  C_14 
REMARK    4  A    between atoms: C_16  and  N_17 
REMARK    5  A    between atoms: N_17  and  C_18 
ROOT
HETATM    1  C   UNL     1     -41.103  55.017 -54.923  1.00  0.00     0.121 C 
ENDROOT
BRANCH   1   2
HETATM    2  C   UNL     1     -41.073  55.198 -53.424  1.00  0.00    -0.029 A 
HETATM    3  C   UNL     1     -40.691  54.040 -52.535  1.00  0.00     0.016 A 
HETATM    4  C   UNL     1     -40.365  52.674 -52.929  1.00  0.00    -0.012 A 
HETATM    5  C   UNL     1     -40.642  54.332 -51.156  1.00  0.00     0.091 A 
HETATM    6  C   UNL     1     -40.001  51.740 -51.905  1.00  0.00    -0.025 A 
HETATM    7  C   UNL     1     -40.362  52.113 -54.243  1.00  0.00     0.013 A 
HETATM    8  C   UNL     1     -39.663  50.407 -52.200  1.00  0.00     0.012 A 
HETATM    9  C   UNL     1     -39.967  52.114 -50.562  1.00  0.00     0.015 A 
HETATM   10  C   UNL     1     -39.671  49.926 -53.501  1.00  0.00     0.001 A 
HETATM   11  C   UNL     1     -40.023  50.781 -54.525  1.00  0.00     0.001 A 
HETATM   12  C   UNL     1     -40.290  53.402 -50.183  1.00  0.00     0.039 A 
HETATM   13  O   UNL     1     -40.951  55.596 -50.614  1.00  0.00    -0.275 OA
HETATM   14  C   UNL     1     -41.338  56.643 -51.409  1.00  0.00     0.288 A 
HETATM   15  O   UNL     1     -41.630  57.744 -50.961  1.00  0.00    -0.260 OA
HETATM   16  C   UNL     1     -41.370  56.377 -52.847  1.00  0.00     0.091 A 
ENDBRANCH   1   2
BRANCH   1  17
HETATM   17  S   UNL     1     -42.710  54.746 -55.730  1.00  0.00    -0.096 SA
BRANCH  17  18
HETATM   18  C   UNL     1     -43.159  56.411 -56.034  1.00  0.00     0.160 A 
HETATM   19  S   UNL     1     -42.597  57.310 -57.374  1.00  0.00    -0.022 SA
HETATM   20  C   UNL     1     -43.562  58.634 -56.809  1.00  0.00     0.195 A 
HETATM   21  N   UNL     1     -44.203  58.351 -55.693  1.00  0.00    -0.123 NA
HETATM   22  N   UNL     1     -43.973  57.071 -55.242  1.00  0.00    -0.133 NA
BRANCH  20  23
HETATM   23  N   UNL     1     -43.584  59.787 -57.516  1.00  0.00    -0.331 N 
HETATM   24  H   UNL     1     -43.779  60.648 -57.013  1.00  0.00     0.168 HD
BRANCH  23  25
HETATM   25  C   UNL     1     -43.315  60.003 -58.884  1.00  0.00     0.073 A 
HETATM   26  C   UNL     1     -42.055  60.517 -59.239  1.00  0.00     0.143 A 
HETATM   27  F   UNL     1     -41.161  60.778 -58.271  1.00  0.00    -0.204 F 
HETATM   28  C   UNL     1     -41.696  60.764 -60.563  1.00  0.00     0.044 A 
HETATM   29  C   UNL     1     -42.608  60.497 -61.579  1.00  0.00     0.003 A 
HETATM   30  C   UNL     1     -43.865  59.989 -61.258  1.00  0.00     0.002 A 
HETATM   31  C   UNL     1     -44.216  59.746 -59.922  1.00  0.00     0.033 A 
ENDBRANCH  23  25
ENDBRANCH  20  23
ENDBRANCH  17  18
ENDBRANCH   1  17
TORSDOF 5
ENDMDL
MODEL 8
REMARK VINA RESULT:      -8.8      2.069      2.595
REMARK  5 active torsions:
REMARK  status: ('A' for Active; 'I' for Inactive)
REMARK    1  A    between atoms: C_11  and  C_12 
REMARK    2  A    between atoms: C_12  and  S_13 
REMARK    3  A    between atoms: S_13  and  C_14 
REMARK    4  A    between atoms: C_16  and  N_17 
REMARK    5  A    between atoms: N_17  and  C_18 
ROOT
HETATM    1  C   UNL     1     -41.126  54.903 -54.811  1.00  0.00     0.121 C 
ENDROOT
BRANCH   1   2
HETATM    2  C   UNL     1     -41.091  55.098 -53.314  1.00  0.00    -0.029 A 
HETATM    3  C   UNL     1     -40.698  53.952 -52.416  1.00  0.00     0.016 A 
HETATM    4  C   UNL     1     -40.366  52.584 -52.798  1.00  0.00    -0.012 A 
HETATM    5  C   UNL     1     -40.644  54.257 -51.040  1.00  0.00     0.091 A 
HETATM    6  C   UNL     1     -39.992  51.662 -51.767  1.00  0.00    -0.025 A 
HETATM    7  C   UNL     1     -40.365  52.010 -54.106  1.00  0.00     0.013 A 
HETATM    8  C   UNL     1     -39.648  50.328 -52.050  1.00  0.00     0.012 A 
HETATM    9  C   UNL     1     -39.955  52.049 -50.428  1.00  0.00     0.015 A 
HETATM   10  C   UNL     1     -39.658  49.835 -53.346  1.00  0.00     0.001 A 
HETATM   11  C   UNL     1     -40.021  50.677 -54.377  1.00  0.00     0.001 A 
HETATM   12  C   UNL     1     -40.283  53.339 -50.059  1.00  0.00     0.039 A 
HETATM   13  O   UNL     1     -40.958  55.525 -50.508  1.00  0.00    -0.275 OA
HETATM   14  C   UNL     1     -41.354  56.562 -51.312  1.00  0.00     0.288 A 
HETATM   15  O   UNL     1     -41.651  57.666 -50.873  1.00  0.00    -0.260 OA
HETATM   16  C   UNL     1     -41.391  56.282 -52.747  1.00  0.00     0.091 A 
ENDBRANCH   1   2
BRANCH   1  17
HETATM   17  S   UNL     1     -42.665  54.302 -55.569  1.00  0.00    -0.096 SA
BRANCH  17  18
HETATM   18  C   UNL     1     -43.141  55.750 -56.433  1.00  0.00     0.160 A 
HETATM   19  S   UNL     1     -43.210  55.851 -58.137  1.00  0.00    -0.022 SA
HETATM   20  C   UNL     1     -43.766  57.481 -57.954  1.00  0.00     0.195 A 
HETATM   21  N   UNL     1     -43.846  57.848 -56.690  1.00  0.00    -0.123 NA
HETATM   22  N   UNL     1     -43.485  56.853 -55.810  1.00  0.00    -0.133 NA
BRANCH  20  23
HETATM   23  N   UNL     1     -44.061  58.209 -59.055  1.00  0.00    -0.331 N 
HETATM   24  H   UNL     1     -43.320  58.770 -59.466  1.00  0.00     0.168 HD
BRANCH  23  25
HETATM   25  C   UNL     1     -45.265  58.275 -59.787  1.00  0.00     0.073 A 
HETATM   26  C   UNL     1     -45.654  59.520 -60.315  1.00  0.00     0.143 A 
HETATM   27  F   UNL     1     -44.868  60.589 -60.107  1.00  0.00    -0.204 F 
HETATM   28  C   UNL     1     -46.825  59.685 -61.051  1.00  0.00     0.044 A 
HETATM   29  C   UNL     1     -47.649  58.588 -61.278  1.00  0.00     0.003 A 
HETATM   30  C   UNL     1     -47.292  57.342 -60.766  1.00  0.00     0.002 A 
HETATM   31  C   UNL     1     -46.112  57.188 -60.025  1.00  0.00     0.033 A 
ENDBRANCH  23  25
ENDBRANCH  20  23
ENDBRANCH  17  18
ENDBRANCH   1  17
TORSDOF 5
ENDMDL
MODEL 9
REMARK VINA RESULT:      -8.7      2.870      4.748
REMARK  5 active torsions:
REMARK  status: ('A' for Active; 'I' for Inactive)
REMARK    1  A    between atoms: C_11  and  C_12 
REMARK    2  A    between atoms: C_12  and  S_13 
REMARK    3  A    between atoms: S_13  and  C_14 
REMARK    4  A    between atoms: C_16  and  N_17 
REMARK    5  A    between atoms: N_17  and  C_18 
ROOT
HETATM    1  C   UNL     1     -41.001  53.925 -55.020  1.00  0.00     0.121 C 
ENDROOT
BRANCH   1   2
HETATM    2  C   UNL     1     -40.551  52.833 -54.079  1.00  0.00    -0.029 A 
HETATM    3  C   UNL     1     -40.510  53.092 -52.593  1.00  0.00     0.016 A 
HETATM    4  C   UNL     1     -40.820  54.330 -51.888  1.00  0.00    -0.012 A 
HETATM    5  C   UNL     1     -40.127  51.989 -51.801  1.00  0.00     0.091 A 
HETATM    6  C   UNL     1     -40.739  54.337 -50.457  1.00  0.00    -0.025 A 
HETATM    7  C   UNL     1     -41.205  55.589 -52.445  1.00  0.00     0.013 A 
HETATM    8  C   UNL     1     -41.030  55.486 -49.701  1.00  0.00     0.012 A 
HETATM    9  C   UNL     1     -40.361  53.197 -49.749  1.00  0.00     0.015 A 
HETATM   10  C   UNL     1     -41.409  56.676 -50.303  1.00  0.00     0.001 A 
HETATM   11  C   UNL     1     -41.494  56.728 -51.679  1.00  0.00     0.001 A 
HETATM   12  C   UNL     1     -40.051  52.027 -50.413  1.00  0.00     0.039 A 
HETATM   13  O   UNL     1     -39.774  50.732 -52.332  1.00  0.00    -0.275 OA
HETATM   14  C   UNL     1     -39.770  50.498 -53.682  1.00  0.00     0.288 A 
HETATM   15  O   UNL     1     -39.449  49.422 -54.169  1.00  0.00    -0.260 OA
HETATM   16  C   UNL     1     -40.190  51.616 -54.526  1.00  0.00     0.091 A 
ENDBRANCH   1   2
BRANCH   1  17
HETATM   17  S   UNL     1     -42.784  54.141 -55.305  1.00  0.00    -0.096 SA
BRANCH  17  18
HETATM   18  C   UNL     1     -42.737  55.555 -56.337  1.00  0.00     0.160 A 
HETATM   19  S   UNL     1     -42.313  57.114 -55.782  1.00  0.00    -0.022 SA
HETATM   20  C   UNL     1     -42.516  57.679 -57.407  1.00  0.00     0.195 A 
HETATM   21  N   UNL     1     -42.892  56.721 -58.231  1.00  0.00    -0.123 NA
HETATM   22  N   UNL     1     -43.022  55.495 -57.618  1.00  0.00    -0.133 NA
BRANCH  20  23
HETATM   23  N   UNL     1     -42.285  58.980 -57.691  1.00  0.00    -0.331 N 
HETATM   24  H   UNL     1     -41.514  59.201 -58.314  1.00  0.00     0.168 HD
BRANCH  23  25
HETATM   25  C   UNL     1     -43.007  60.125 -57.290  1.00  0.00     0.073 A 
HETATM   26  C   UNL     1     -44.160  60.471 -58.017  1.00  0.00     0.143 A 
HETATM   27  F   UNL     1     -44.530  59.703 -59.056  1.00  0.00    -0.204 F 
HETATM   28  C   UNL     1     -44.938  61.582 -57.698  1.00  0.00     0.044 A 
HETATM   29  C   UNL     1     -44.571  62.387 -56.624  1.00  0.00     0.003 A 
HETATM   30  C   UNL     1     -43.432  62.071 -55.886  1.00  0.00     0.002 A 
HETATM   31  C   UNL     1     -42.656  60.951 -56.218  1.00  0.00     0.033 A 
ENDBRANCH  23  25
ENDBRANCH  20  23
ENDBRANCH  17  18
ENDBRANCH   1  17
TORSDOF 5
ENDMDL
MODEL 10
REMARK VINA RESULT:      -8.6      3.355      4.625
REMARK  5 active torsions:
REMARK  status: ('A' for Active; 'I' for Inactive)
REMARK    1  A    between atoms: C_11  and  C_12 
REMARK    2  A    between atoms: C_12  and  S_13 
REMARK    3  A    between atoms: S_13  and  C_14 
REMARK    4  A    between atoms: C_16  and  N_17 
REMARK    5  A    between atoms: N_17  and  C_18 
ROOT
HETATM    1  C   UNL     1     -40.972  54.733 -54.583  1.00  0.00     0.121 C 
ENDROOT
BRANCH   1   2
HETATM    2  C   UNL     1     -41.014  54.819 -53.076  1.00  0.00    -0.029 A 
HETATM    3  C   UNL     1     -40.671  53.608 -52.245  1.00  0.00     0.016 A 
HETATM    4  C   UNL     1     -40.323  52.269 -52.708  1.00  0.00    -0.012 A 
HETATM    5  C   UNL     1     -40.689  53.812 -50.849  1.00  0.00     0.091 A 
HETATM    6  C   UNL     1     -40.005  51.273 -51.729  1.00  0.00    -0.025 A 
HETATM    7  C   UNL     1     -40.255  51.792 -54.053  1.00  0.00     0.013 A 
HETATM    8  C   UNL     1     -39.650  49.961 -52.091  1.00  0.00     0.012 A 
HETATM    9  C   UNL     1     -40.037  51.561 -50.365  1.00  0.00     0.015 A 
HETATM   10  C   UNL     1     -39.594  49.563 -53.418  1.00  0.00     0.001 A 
HETATM   11  C   UNL     1     -39.900  50.481 -54.402  1.00  0.00     0.001 A 
HETATM   12  C   UNL     1     -40.381  52.823 -49.921  1.00  0.00     0.039 A 
HETATM   13  O   UNL     1     -41.027  55.039 -50.244  1.00  0.00    -0.275 OA
HETATM   14  C   UNL     1     -41.379  56.134 -50.988  1.00  0.00     0.288 A 
HETATM   15  O   UNL     1     -41.695  57.205 -50.487  1.00  0.00    -0.260 OA
HETATM   16  C   UNL     1     -41.341  55.960 -52.440  1.00  0.00     0.091 A 
ENDBRANCH   1   2
BRANCH   1  17
HETATM   17  S   UNL     1     -42.545  54.609 -55.487  1.00  0.00    -0.096 SA
BRANCH  17  18
HETATM   18  C   UNL     1     -42.959  56.309 -55.570  1.00  0.00     0.160 A 
HETATM   19  S   UNL     1     -44.227  57.016 -54.669  1.00  0.00    -0.022 SA
HETATM   20  C   UNL     1     -43.793  58.538 -55.373  1.00  0.00     0.195 A 
HETATM   21  N   UNL     1     -42.786  58.435 -56.217  1.00  0.00    -0.123 NA
HETATM   22  N   UNL     1     -42.303  57.152 -56.335  1.00  0.00    -0.133 NA
BRANCH  20  23
HETATM   23  N   UNL     1     -44.477  59.651 -55.021  1.00  0.00    -0.331 N 
HETATM   24  H   UNL     1     -45.041  60.106 -55.733  1.00  0.00     0.168 HD
BRANCH  23  25
HETATM   25  C   UNL     1     -44.583  60.274 -53.760  1.00  0.00     0.073 A 
HETATM   26  C   UNL     1     -43.487  61.024 -53.296  1.00  0.00     0.143 A 
HETATM   27  F   UNL     1     -42.391  61.121 -54.067  1.00  0.00    -0.204 F 
HETATM   28  C   UNL     1     -43.496  61.676 -52.065  1.00  0.00     0.044 A 
HETATM   29  C   UNL     1     -44.624  61.589 -51.255  1.00  0.00     0.003 A 
HETATM   30  C   UNL     1     -45.725  60.851 -51.686  1.00  0.00     0.002 A 
HETATM   31  C   UNL     1     -45.703  60.198 -52.927  1.00  0.00     0.033 A 
ENDBRANCH  23  25
ENDBRANCH  20  23
ENDBRANCH  17  18
ENDBRANCH   1  17
TORSDOF 5
ENDMDL
