MODEL 1
REMARK VINA RESULT:      -7.6      0.000      0.000
REMARK  8 active torsions:
REMARK  status: ('A' for Active; 'I' for Inactive)
REMARK    1  A    between atoms: C_2  and  C_3 
REMARK    2  A    between atoms: C_3  and  C_4 
REMARK    3  A    between atoms: C_4  and  N_5 
REMARK    4  A    between atoms: N_5  and  C_6 
REMARK    5  A    between atoms: C_8  and  N_9 
REMARK    6  A    between atoms: N_9  and  C_10 
REMARK    7  A    between atoms: C_10  and  C_11 
REMARK    8  A    between atoms: C_12  and  O_13 
ROOT
HETATM    1  C   UNL     1     -43.259  55.422 -55.877  1.00  0.00     0.181 A 
HETATM    2  N   UNL     1     -42.420  54.717 -55.096  1.00  0.00    -0.207 NA
HETATM    3  C   UNL     1     -42.351  55.045 -53.791  1.00  0.00     0.119 A 
HETATM    4  C   UNL     1     -43.155  56.059 -53.226  1.00  0.00     0.031 A 
HETATM    5  C   UNL     1     -43.964  56.784 -54.120  1.00  0.00     0.048 A 
HETATM    6  N   UNL     1     -43.976  56.442 -55.412  1.00  0.00    -0.330 N 
HETATM    7  H   UNL     1     -44.522  56.963 -56.084  1.00  0.00     0.168 HD
HETATM    8  C   UNL     1     -43.237  56.394 -51.853  1.00  0.00     0.017 A 
HETATM    9  C   UNL     1     -44.043  57.445 -51.409  1.00  0.00     0.001 A 
HETATM   10  C   UNL     1     -44.797  58.178 -52.318  1.00  0.00     0.002 A 
HETATM   11  C   UNL     1     -44.766  57.845 -53.671  1.00  0.00     0.030 A 
ENDROOT
BRANCH   3  12
HETATM   12  N   UNL     1     -41.440  54.294 -53.055  1.00  0.00    -0.272 NA
HETATM   13  H   UNL     1     -41.956  53.646 -52.465  1.00  0.00     0.129 HD
BRANCH  12  14
HETATM   14  C   UNL     1     -40.393  53.609 -53.831  1.00  0.00     0.135 C 
BRANCH  14  15
HETATM   15  C   UNL     1     -40.147  52.172 -53.411  1.00  0.00    -0.012 A 
HETATM   16  C   UNL     1     -39.826  51.888 -52.064  1.00  0.00     0.075 A 
HETATM   17  C   UNL     1     -39.549  50.573 -51.675  1.00  0.00     0.037 A 
HETATM   18  C   UNL     1     -39.555  49.542 -52.615  1.00  0.00     0.003 A 
HETATM   19  C   UNL     1     -39.823  49.818 -53.951  1.00  0.00     0.001 A 
HETATM   20  C   UNL     1     -40.104  51.125 -54.350  1.00  0.00     0.011 A 
BRANCH  16  21
HETATM   21  O   UNL     1     -39.794  52.966 -51.217  1.00  0.00    -0.355 OA
HETATM   22  C   UNL     1     -40.373  52.808 -49.925  1.00  0.00     0.210 C 
ENDBRANCH  16  21
ENDBRANCH  14  15
ENDBRANCH  12  14
ENDBRANCH   3  12
BRANCH   1  23
HETATM   23  N   UNL     1     -43.405  55.145 -57.229  1.00  0.00    -0.262 NA
HETATM   24  H   UNL     1     -42.885  54.333 -57.546  1.00  0.00     0.130 HD
BRANCH  23  25
HETATM   25  C   UNL     1     -43.233  56.287 -58.132  1.00  0.00     0.095 C 
BRANCH  25  26
HETATM   26  C   UNL     1     -43.097  55.793 -59.577  1.00  0.00     0.014 C 
BRANCH  26  27
HETATM   27  C   UNL     1     -44.220  56.303 -60.482  1.00  0.00    -0.003 C 
HETATM   28  C   UNL     1     -45.543  55.624 -60.160  1.00  0.00     0.005 C 
ENDBRANCH  26  27
ENDBRANCH  25  26
ENDBRANCH  23  25
ENDBRANCH   1  23
TORSDOF 8
ENDMDL
MODEL 2
REMARK VINA RESULT:      -7.5      2.673      7.547
REMARK  8 active torsions:
REMARK  status: ('A' for Active; 'I' for Inactive)
REMARK    1  A    between atoms: C_2  and  C_3 
REMARK    2  A    between atoms: C_3  and  C_4 
REMARK    3  A    between atoms: C_4  and  N_5 
REMARK    4  A    between atoms: N_5  and  C_6 
REMARK    5  A    between atoms: C_8  and  N_9 
REMARK    6  A    between atoms: N_9  and  C_10 
REMARK    7  A    between atoms: C_10  and  C_11 
REMARK    8  A    between atoms: C_12  and  O_13 
ROOT
HETATM    1  C   UNL     1     -41.700  55.739 -52.353  1.00  0.00     0.181 A 
HETATM    2  N   UNL     1     -41.840  55.786 -53.691  1.00  0.00    -0.207 NA
HETATM    3  C   UNL     1     -41.351  54.758 -54.411  1.00  0.00     0.119 A 
HETATM    4  C   UNL     1     -40.749  53.634 -53.806  1.00  0.00     0.031 A 
HETATM    5  C   UNL     1     -40.591  53.687 -52.409  1.00  0.00     0.048 A 
HETATM    6  N   UNL     1     -41.065  54.742 -51.740  1.00  0.00    -0.330 N 
HETATM    7  H   UNL     1     -40.939  54.824 -50.740  1.00  0.00     0.168 HD
HETATM    8  C   UNL     1     -40.313  52.460 -54.467  1.00  0.00     0.017 A 
HETATM    9  C   UNL     1     -39.695  51.420 -53.770  1.00  0.00     0.001 A 
HETATM   10  C   UNL     1     -39.507  51.517 -52.396  1.00  0.00     0.002 A 
HETATM   11  C   UNL     1     -39.961  52.644 -51.713  1.00  0.00     0.030 A 
ENDROOT
BRANCH   3  12
HETATM   12  N   UNL     1     -41.506  54.893 -55.788  1.00  0.00    -0.272 NA
HETATM   13  H   UNL     1     -41.109  54.074 -56.240  1.00  0.00     0.129 HD
BRANCH  12  14
HETATM   14  C   UNL     1     -42.875  55.167 -56.258  1.00  0.00     0.135 C 
BRANCH  14  15
HETATM   15  C   UNL     1     -42.942  55.884 -57.593  1.00  0.00    -0.012 A 
HETATM   16  C   UNL     1     -42.567  57.245 -57.669  1.00  0.00     0.075 A 
HETATM   17  C   UNL     1     -42.671  57.930 -58.884  1.00  0.00     0.037 A 
HETATM   18  C   UNL     1     -43.174  57.289 -60.016  1.00  0.00     0.003 A 
HETATM   19  C   UNL     1     -43.589  55.964 -59.940  1.00  0.00     0.001 A 
HETATM   20  C   UNL     1     -43.487  55.269 -58.735  1.00  0.00     0.011 A 
BRANCH  16  21
HETATM   21  O   UNL     1     -42.130  57.811 -56.499  1.00  0.00    -0.355 OA
HETATM   22  C   UNL     1     -42.569  59.133 -56.202  1.00  0.00     0.210 C 
ENDBRANCH  16  21
ENDBRANCH  14  15
ENDBRANCH  12  14
ENDBRANCH   3  12
BRANCH   1  23
HETATM   23  N   UNL     1     -42.184  56.746 -51.530  1.00  0.00    -0.262 NA
HETATM   24  H   UNL     1     -42.725  57.454 -52.016  1.00  0.00     0.130 HD
BRANCH  23  25
HETATM   25  C   UNL     1     -41.207  57.341 -50.616  1.00  0.00     0.095 C 
BRANCH  25  26
HETATM   26  C   UNL     1     -40.491  58.508 -51.306  1.00  0.00     0.014 C 
BRANCH  26  27
HETATM   27  C   UNL     1     -40.155  59.647 -50.341  1.00  0.00    -0.003 C 
HETATM   28  C   UNL     1     -38.651  59.829 -50.200  1.00  0.00     0.005 C 
ENDBRANCH  26  27
ENDBRANCH  25  26
ENDBRANCH  23  25
ENDBRANCH   1  23
TORSDOF 8
ENDMDL
MODEL 3
REMARK VINA RESULT:      -7.5      2.045      4.985
REMARK  8 active torsions:
REMARK  status: ('A' for Active; 'I' for Inactive)
REMARK    1  A    between atoms: C_2  and  C_3 
REMARK    2  A    between atoms: C_3  and  C_4 
REMARK    3  A    between atoms: C_4  and  N_5 
REMARK    4  A    between atoms: N_5  and  C_6 
REMARK    5  A    between atoms: C_8  and  N_9 
REMARK    6  A    between atoms: N_9  and  C_10 
REMARK    7  A    between atoms: C_10  and  C_11 
REMARK    8  A    between atoms: C_12  and  O_13 
ROOT
HETATM    1  C   UNL     1     -42.303  56.088 -56.034  1.00  0.00     0.181 A 
HETATM    2  N   UNL     1     -43.138  56.260 -54.993  1.00  0.00    -0.207 NA
HETATM    3  C   UNL     1     -42.988  55.453 -53.925  1.00  0.00     0.119 A 
HETATM    4  C   UNL     1     -41.966  54.482 -53.854  1.00  0.00     0.031 A 
HETATM    5  C   UNL     1     -41.170  54.328 -55.004  1.00  0.00     0.048 A 
HETATM    6  N   UNL     1     -41.377  55.132 -56.052  1.00  0.00    -0.330 N 
HETATM    7  H   UNL     1     -40.843  55.025 -56.903  1.00  0.00     0.168 HD
HETATM    8  C   UNL     1     -41.657  53.672 -52.735  1.00  0.00     0.017 A 
HETATM    9  C   UNL     1     -40.643  52.714 -52.788  1.00  0.00     0.001 A 
HETATM   10  C   UNL     1     -39.902  52.548 -53.953  1.00  0.00     0.002 A 
HETATM   11  C   UNL     1     -40.157  53.358 -55.058  1.00  0.00     0.030 A 
ENDROOT
BRANCH   3  12
HETATM   12  N   UNL     1     -43.908  55.670 -52.904  1.00  0.00    -0.272 NA
HETATM   13  H   UNL     1     -43.731  54.999 -52.160  1.00  0.00     0.129 HD
BRANCH  12  14
HETATM   14  C   UNL     1     -43.985  57.047 -52.388  1.00  0.00     0.135 C 
BRANCH  14  15
HETATM   15  C   UNL     1     -42.647  57.636 -51.985  1.00  0.00    -0.012 A 
HETATM   16  C   UNL     1     -41.927  57.055 -50.916  1.00  0.00     0.075 A 
HETATM   17  C   UNL     1     -40.715  57.618 -50.502  1.00  0.00     0.037 A 
HETATM   18  C   UNL     1     -40.226  58.772 -51.117  1.00  0.00     0.003 A 
HETATM   19  C   UNL     1     -40.950  59.378 -52.138  1.00  0.00     0.001 A 
HETATM   20  C   UNL     1     -42.158  58.823 -52.561  1.00  0.00     0.011 A 
BRANCH  16  21
HETATM   21  O   UNL     1     -42.503  55.953 -50.336  1.00  0.00    -0.355 OA
HETATM   22  C   UNL     1     -41.688  55.154 -49.485  1.00  0.00     0.210 C 
ENDBRANCH  16  21
ENDBRANCH  14  15
ENDBRANCH  12  14
ENDBRANCH   3  12
BRANCH   1  23
HETATM   23  N   UNL     1     -42.375  56.882 -57.170  1.00  0.00    -0.262 NA
HETATM   24  H   UNL     1     -42.289  57.877 -56.987  1.00  0.00     0.130 HD
BRANCH  23  25
HETATM   25  C   UNL     1     -43.489  56.591 -58.076  1.00  0.00     0.095 C 
BRANCH  25  26
HETATM   26  C   UNL     1     -42.948  56.122 -59.432  1.00  0.00     0.014 C 
BRANCH  26  27
HETATM   27  C   UNL     1     -44.042  55.554 -60.339  1.00  0.00    -0.003 C 
HETATM   28  C   UNL     1     -44.677  54.313 -59.730  1.00  0.00     0.005 C 
ENDBRANCH  26  27
ENDBRANCH  25  26
ENDBRANCH  23  25
ENDBRANCH   1  23
TORSDOF 8
ENDMDL
MODEL 4
REMARK VINA RESULT:      -7.5      2.163      7.432
REMARK  8 active torsions:
REMARK  status: ('A' for Active; 'I' for Inactive)
REMARK    1  A    between atoms: C_2  and  C_3 
REMARK    2  A    between atoms: C_3  and  C_4 
REMARK    3  A    between atoms: C_4  and  N_5 
REMARK    4  A    between atoms: N_5  and  C_6 
REMARK    5  A    between atoms: C_8  and  N_9 
REMARK    6  A    between atoms: N_9  and  C_10 
REMARK    7  A    between atoms: C_10  and  C_11 
REMARK    8  A    between atoms: C_12  and  O_13 
ROOT
HETATM    1  C   UNL     1     -40.417  54.050 -51.343  1.00  0.00     0.181 A 
HETATM    2  N   UNL     1     -40.815  54.470 -52.557  1.00  0.00    -0.207 NA
HETATM    3  C   UNL     1     -40.774  53.587 -53.573  1.00  0.00     0.119 A 
HETATM    4  C   UNL     1     -40.374  52.245 -53.389  1.00  0.00     0.031 A 
HETATM    5  C   UNL     1     -39.921  51.900 -52.102  1.00  0.00     0.048 A 
HETATM    6  N   UNL     1     -39.952  52.820 -51.133  1.00  0.00    -0.330 N 
HETATM    7  H   UNL     1     -39.603  52.612 -50.207  1.00  0.00     0.168 HD
HETATM    8  C   UNL     1     -40.409  51.220 -54.364  1.00  0.00     0.017 A 
HETATM    9  C   UNL     1     -39.953  49.931 -54.080  1.00  0.00     0.001 A 
HETATM   10  C   UNL     1     -39.465  49.627 -52.814  1.00  0.00     0.002 A 
HETATM   11  C   UNL     1     -39.455  50.606 -51.823  1.00  0.00     0.030 A 
ENDROOT
BRANCH   3  12
HETATM   12  N   UNL     1     -41.172  54.103 -54.803  1.00  0.00    -0.272 NA
HETATM   13  H   UNL     1     -40.639  53.641 -55.536  1.00  0.00     0.129 HD
BRANCH  12  14
HETATM   14  C   UNL     1     -42.618  54.072 -55.077  1.00  0.00     0.135 C 
BRANCH  14  15
HETATM   15  C   UNL     1     -43.296  55.426 -54.998  1.00  0.00    -0.012 A 
HETATM   16  C   UNL     1     -43.218  56.307 -56.101  1.00  0.00     0.075 A 
HETATM   17  C   UNL     1     -43.797  57.578 -56.022  1.00  0.00     0.037 A 
HETATM   18  C   UNL     1     -44.424  57.996 -54.847  1.00  0.00     0.003 A 
HETATM   19  C   UNL     1     -44.464  57.156 -53.741  1.00  0.00     0.001 A 
HETATM   20  C   UNL     1     -43.893  55.885 -53.809  1.00  0.00     0.011 A 
BRANCH  16  21
HETATM   21  O   UNL     1     -42.542  55.835 -57.197  1.00  0.00    -0.355 OA
HETATM   22  C   UNL     1     -43.238  55.804 -58.439  1.00  0.00     0.210 C 
ENDBRANCH  16  21
ENDBRANCH  14  15
ENDBRANCH  12  14
ENDBRANCH   3  12
BRANCH   1  23
HETATM   23  N   UNL     1     -40.438  54.886 -50.235  1.00  0.00    -0.262 NA
HETATM   24  H   UNL     1     -40.322  54.404 -49.349  1.00  0.00     0.130 HD
BRANCH  23  25
HETATM   25  C   UNL     1     -41.541  55.849 -50.190  1.00  0.00     0.095 C 
BRANCH  25  26
HETATM   26  C   UNL     1     -41.010  57.262 -50.458  1.00  0.00     0.014 C 
BRANCH  26  27
HETATM   27  C   UNL     1     -42.003  58.127 -51.239  1.00  0.00    -0.003 C 
HETATM   28  C   UNL     1     -41.335  58.802 -52.426  1.00  0.00     0.005 C 
ENDBRANCH  26  27
ENDBRANCH  25  26
ENDBRANCH  23  25
ENDBRANCH   1  23
TORSDOF 8
ENDMDL
MODEL 5
REMARK VINA RESULT:      -7.5      2.397      5.389
REMARK  8 active torsions:
REMARK  status: ('A' for Active; 'I' for Inactive)
REMARK    1  A    between atoms: C_2  and  C_3 
REMARK    2  A    between atoms: C_3  and  C_4 
REMARK    3  A    between atoms: C_4  and  N_5 
REMARK    4  A    between atoms: N_5  and  C_6 
REMARK    5  A    between atoms: C_8  and  N_9 
REMARK    6  A    between atoms: N_9  and  C_10 
REMARK    7  A    between atoms: C_10  and  C_11 
REMARK    8  A    between atoms: C_12  and  O_13 
ROOT
HETATM    1  C   UNL     1     -42.400  55.754 -56.156  1.00  0.00     0.181 A 
HETATM    2  N   UNL     1     -43.271  56.057 -55.176  1.00  0.00    -0.207 NA
HETATM    3  C   UNL     1     -43.136  55.421 -53.996  1.00  0.00     0.119 A 
HETATM    4  C   UNL     1     -42.096  54.498 -53.752  1.00  0.00     0.031 A 
HETATM    5  C   UNL     1     -41.262  54.196 -54.844  1.00  0.00     0.048 A 
HETATM    6  N   UNL     1     -41.454  54.830 -56.006  1.00  0.00    -0.330 N 
HETATM    7  H   UNL     1     -40.892  54.611 -56.817  1.00  0.00     0.168 HD
HETATM    8  C   UNL     1     -41.805  53.872 -52.517  1.00  0.00     0.017 A 
HETATM    9  C   UNL     1     -40.769  52.943 -52.399  1.00  0.00     0.001 A 
HETATM   10  C   UNL     1     -39.988  52.626 -53.505  1.00  0.00     0.002 A 
HETATM   11  C   UNL     1     -40.228  53.255 -54.725  1.00  0.00     0.030 A 
ENDROOT
BRANCH   3  12
HETATM   12  N   UNL     1     -44.091  55.764 -53.043  1.00  0.00    -0.272 NA
HETATM   13  H   UNL     1     -43.978  55.155 -52.237  1.00  0.00     0.129 HD
BRANCH  12  14
HETATM   14  C   UNL     1     -44.131  57.184 -52.653  1.00  0.00     0.135 C 
BRANCH  14  15
HETATM   15  C   UNL     1     -42.829  57.709 -52.081  1.00  0.00    -0.012 A 
HETATM   16  C   UNL     1     -42.137  58.738 -52.761  1.00  0.00     0.075 A 
HETATM   17  C   UNL     1     -40.910  59.197 -52.269  1.00  0.00     0.037 A 
HETATM   18  C   UNL     1     -40.348  58.623 -51.128  1.00  0.00     0.003 A 
HETATM   19  C   UNL     1     -40.997  57.579 -50.479  1.00  0.00     0.001 A 
HETATM   20  C   UNL     1     -42.223  57.116 -50.959  1.00  0.00     0.011 A 
BRANCH  16  21
HETATM   21  O   UNL     1     -42.737  59.211 -53.900  1.00  0.00    -0.355 OA
HETATM   22  C   UNL     1     -41.904  59.468 -55.026  1.00  0.00     0.210 C 
ENDBRANCH  16  21
ENDBRANCH  14  15
ENDBRANCH  12  14
ENDBRANCH   3  12
BRANCH   1  23
HETATM   23  N   UNL     1     -42.455  56.368 -57.399  1.00  0.00    -0.262 NA
HETATM   24  H   UNL     1     -41.613  56.877 -57.648  1.00  0.00     0.130 HD
BRANCH  23  25
HETATM   25  C   UNL     1     -43.663  57.152 -57.666  1.00  0.00     0.095 C 
BRANCH  25  26
HETATM   26  C   UNL     1     -44.166  56.868 -59.086  1.00  0.00     0.014 C 
BRANCH  26  27
HETATM   27  C   UNL     1     -43.516  55.628 -59.704  1.00  0.00    -0.003 C 
HETATM   28  C   UNL     1     -44.466  54.439 -59.689  1.00  0.00     0.005 C 
ENDBRANCH  26  27
ENDBRANCH  25  26
ENDBRANCH  23  25
ENDBRANCH   1  23
TORSDOF 8
ENDMDL
MODEL 6
REMARK VINA RESULT:      -7.1      2.196      4.964
REMARK  8 active torsions:
REMARK  status: ('A' for Active; 'I' for Inactive)
REMARK    1  A    between atoms: C_2  and  C_3 
REMARK    2  A    between atoms: C_3  and  C_4 
REMARK    3  A    between atoms: C_4  and  N_5 
REMARK    4  A    between atoms: N_5  and  C_6 
REMARK    5  A    between atoms: C_8  and  N_9 
REMARK    6  A    between atoms: N_9  and  C_10 
REMARK    7  A    between atoms: C_10  and  C_11 
REMARK    8  A    between atoms: C_12  and  O_13 
ROOT
HETATM    1  C   UNL     1     -42.539  57.290 -53.108  1.00  0.00     0.181 A 
HETATM    2  N   UNL     1     -42.251  55.979 -53.018  1.00  0.00    -0.207 NA
HETATM    3  C   UNL     1     -42.356  55.233 -54.134  1.00  0.00     0.119 A 
HETATM    4  C   UNL     1     -42.707  55.793 -55.382  1.00  0.00     0.031 A 
HETATM    5  C   UNL     1     -43.045  57.158 -55.381  1.00  0.00     0.048 A 
HETATM    6  N   UNL     1     -42.956  57.850 -54.241  1.00  0.00    -0.330 N 
HETATM    7  H   UNL     1     -43.222  58.824 -54.202  1.00  0.00     0.168 HD
HETATM    8  C   UNL     1     -42.728  55.116 -56.626  1.00  0.00     0.017 A 
HETATM    9  C   UNL     1     -43.129  55.762 -57.797  1.00  0.00     0.001 A 
HETATM   10  C   UNL     1     -43.505  57.101 -57.762  1.00  0.00     0.002 A 
HETATM   11  C   UNL     1     -43.456  57.802 -56.559  1.00  0.00     0.030 A 
ENDROOT
BRANCH   3  12
HETATM   12  N   UNL     1     -42.072  53.883 -53.955  1.00  0.00    -0.272 NA
HETATM   13  H   UNL     1     -42.730  53.338 -54.506  1.00  0.00     0.129 HD
BRANCH  12  14
HETATM   14  C   UNL     1     -40.679  53.477 -54.210  1.00  0.00     0.135 C 
BRANCH  14  15
HETATM   15  C   UNL     1     -40.294  52.150 -53.586  1.00  0.00    -0.012 A 
HETATM   16  C   UNL     1     -39.925  52.105 -52.222  1.00  0.00     0.075 A 
HETATM   17  C   UNL     1     -39.521  50.895 -51.647  1.00  0.00     0.037 A 
HETATM   18  C   UNL     1     -39.448  49.736 -52.420  1.00  0.00     0.003 A 
HETATM   19  C   UNL     1     -39.763  49.779 -53.774  1.00  0.00     0.001 A 
HETATM   20  C   UNL     1     -40.171  50.979 -54.357  1.00  0.00     0.011 A 
BRANCH  16  21
HETATM   21  O   UNL     1     -39.978  53.299 -51.549  1.00  0.00    -0.355 OA
HETATM   22  C   UNL     1     -40.672  53.325 -50.305  1.00  0.00     0.210 C 
ENDBRANCH  16  21
ENDBRANCH  14  15
ENDBRANCH  12  14
ENDBRANCH   3  12
BRANCH   1  23
HETATM   23  N   UNL     1     -42.446  58.137 -52.013  1.00  0.00    -0.262 NA
HETATM   24  H   UNL     1     -43.253  58.739 -51.884  1.00  0.00     0.130 HD
BRANCH  23  25
HETATM   25  C   UNL     1     -41.189  58.881 -51.891  1.00  0.00     0.095 C 
BRANCH  25  26
HETATM   26  C   UNL     1     -41.067  59.469 -50.481  1.00  0.00     0.014 C 
BRANCH  26  27
HETATM   27  C   UNL     1     -39.631  59.870 -50.132  1.00  0.00    -0.003 C 
HETATM   28  C   UNL     1     -38.626  59.171 -51.036  1.00  0.00     0.005 C 
ENDBRANCH  26  27
ENDBRANCH  25  26
ENDBRANCH  23  25
ENDBRANCH   1  23
TORSDOF 8
ENDMDL
MODEL 7
REMARK VINA RESULT:      -7.1      2.196      5.390
REMARK  8 active torsions:
REMARK  status: ('A' for Active; 'I' for Inactive)
REMARK    1  A    between atoms: C_2  and  C_3 
REMARK    2  A    between atoms: C_3  and  C_4 
REMARK    3  A    between atoms: C_4  and  N_5 
REMARK    4  A    between atoms: N_5  and  C_6 
REMARK    5  A    between atoms: C_8  and  N_9 
REMARK    6  A    between atoms: N_9  and  C_10 
REMARK    7  A    between atoms: C_10  and  C_11 
REMARK    8  A    between atoms: C_12  and  O_13 
ROOT
HETATM    1  C   UNL     1     -42.134  58.618 -55.608  1.00  0.00     0.181 A 
HETATM    2  N   UNL     1     -42.682  57.509 -55.079  1.00  0.00    -0.207 NA
HETATM    3  C   UNL     1     -43.076  56.537 -55.925  1.00  0.00     0.119 A 
HETATM    4  C   UNL     1     -42.888  56.632 -57.321  1.00  0.00     0.031 A 
HETATM    5  C   UNL     1     -42.358  57.845 -57.797  1.00  0.00     0.048 A 
HETATM    6  N   UNL     1     -42.011  58.793 -56.921  1.00  0.00    -0.330 N 
HETATM    7  H   UNL     1     -41.658  59.687 -57.235  1.00  0.00     0.168 HD
HETATM    8  C   UNL     1     -43.160  55.620 -58.273  1.00  0.00     0.017 A 
HETATM    9  C   UNL     1     -42.969  55.838 -59.639  1.00  0.00     0.001 A 
HETATM   10  C   UNL     1     -42.490  57.063 -60.089  1.00  0.00     0.002 A 
HETATM   11  C   UNL     1     -42.177  58.064 -59.172  1.00  0.00     0.030 A 
ENDROOT
BRANCH   3  12
HETATM   12  N   UNL     1     -43.661  55.436 -55.306  1.00  0.00    -0.272 NA
HETATM   13  H   UNL     1     -43.426  54.602 -55.839  1.00  0.00     0.129 HD
BRANCH  12  14
HETATM   14  C   UNL     1     -43.366  55.269 -53.873  1.00  0.00     0.135 C 
BRANCH  14  15
HETATM   15  C   UNL     1     -42.288  54.245 -53.575  1.00  0.00    -0.012 A 
HETATM   16  C   UNL     1     -41.772  54.143 -52.262  1.00  0.00     0.075 A 
HETATM   17  C   UNL     1     -40.744  53.236 -51.985  1.00  0.00     0.037 A 
HETATM   18  C   UNL     1     -40.200  52.452 -53.004  1.00  0.00     0.003 A 
HETATM   19  C   UNL     1     -40.669  52.578 -54.307  1.00  0.00     0.001 A 
HETATM   20  C   UNL     1     -41.696  53.477 -54.594  1.00  0.00     0.011 A 
BRANCH  16  21
HETATM   21  O   UNL     1     -42.329  54.984 -51.333  1.00  0.00    -0.355 OA
HETATM   22  C   UNL     1     -42.161  54.653 -49.959  1.00  0.00     0.210 C 
ENDBRANCH  16  21
ENDBRANCH  14  15
ENDBRANCH  12  14
ENDBRANCH   3  12
BRANCH   1  23
HETATM   23  N   UNL     1     -41.688  59.664 -54.813  1.00  0.00    -0.262 NA
HETATM   24  H   UNL     1     -40.689  59.651 -54.631  1.00  0.00     0.130 HD
BRANCH  23  25
HETATM   25  C   UNL     1     -42.459  59.905 -53.591  1.00  0.00     0.095 C 
BRANCH  25  26
HETATM   26  C   UNL     1     -41.561  59.719 -52.363  1.00  0.00     0.014 C 
BRANCH  26  27
HETATM   27  C   UNL     1     -41.981  58.527 -51.500  1.00  0.00    -0.003 C 
HETATM   28  C   UNL     1     -40.864  58.106 -50.556  1.00  0.00     0.005 C 
ENDBRANCH  26  27
ENDBRANCH  25  26
ENDBRANCH  23  25
ENDBRANCH   1  23
TORSDOF 8
ENDMDL
MODEL 8
REMARK VINA RESULT:      -7.0     14.086     15.694
REMARK  8 active torsions:
REMARK  status: ('A' for Active; 'I' for Inactive)
REMARK    1  A    between atoms: C_2  and  C_3 
REMARK    2  A    between atoms: C_3  and  C_4 
REMARK    3  A    between atoms: C_4  and  N_5 
REMARK    4  A    between atoms: N_5  and  C_6 
REMARK    5  A    between atoms: C_8  and  N_9 
REMARK    6  A    between atoms: N_9  and  C_10 
REMARK    7  A    between atoms: C_10  and  C_11 
REMARK    8  A    between atoms: C_12  and  O_13 
ROOT
HETATM    1  C   UNL     1     -38.133  41.390 -52.956  1.00  0.00     0.181 A 
HETATM    2  N   UNL     1     -36.939  41.717 -52.428  1.00  0.00    -0.207 NA
HETATM    3  C   UNL     1     -35.933  42.002 -53.277  1.00  0.00     0.119 A 
HETATM    4  C   UNL     1     -36.110  42.011 -54.678  1.00  0.00     0.031 A 
HETATM    5  C   UNL     1     -37.371  41.605 -55.150  1.00  0.00     0.048 A 
HETATM    6  N   UNL     1     -38.329  41.301 -54.269  1.00  0.00    -0.330 N 
HETATM    7  H   UNL     1     -39.235  40.975 -54.577  1.00  0.00     0.168 HD
HETATM    8  C   UNL     1     -35.150  42.409 -55.640  1.00  0.00     0.017 A 
HETATM    9  C   UNL     1     -35.422  42.343 -57.008  1.00  0.00     0.001 A 
HETATM   10  C   UNL     1     -36.660  41.892 -57.451  1.00  0.00     0.002 A 
HETATM   11  C   UNL     1     -37.638  41.530 -56.526  1.00  0.00     0.030 A 
ENDROOT
BRANCH   3  12
HETATM   12  N   UNL     1     -34.723  42.301 -52.658  1.00  0.00    -0.272 NA
HETATM   13  H   UNL     1     -34.502  43.278 -52.833  1.00  0.00     0.129 HD
BRANCH  12  14
HETATM   14  C   UNL     1     -34.632  41.970 -51.226  1.00  0.00     0.135 C 
BRANCH  14  15
HETATM   15  C   UNL     1     -33.856  40.702 -50.928  1.00  0.00    -0.012 A 
HETATM   16  C   UNL     1     -34.479  39.660 -50.203  1.00  0.00     0.075 A 
HETATM   17  C   UNL     1     -33.758  38.506 -49.880  1.00  0.00     0.037 A 
HETATM   18  C   UNL     1     -32.416  38.388 -50.240  1.00  0.00     0.003 A 
HETATM   19  C   UNL     1     -31.780  39.427 -50.912  1.00  0.00     0.001 A 
HETATM   20  C   UNL     1     -32.490  40.581 -51.243  1.00  0.00     0.011 A 
BRANCH  16  21
HETATM   21  O   UNL     1     -35.786  39.879 -49.846  1.00  0.00    -0.355 OA
HETATM   22  C   UNL     1     -36.737  38.872 -50.174  1.00  0.00     0.210 C 
ENDBRANCH  16  21
ENDBRANCH  14  15
ENDBRANCH  12  14
ENDBRANCH   3  12
BRANCH   1  23
HETATM   23  N   UNL     1     -39.229  41.093 -52.158  1.00  0.00    -0.262 NA
HETATM   24  H   UNL     1     -39.153  40.213 -51.659  1.00  0.00     0.130 HD
BRANCH  23  25
HETATM   25  C   UNL     1     -40.538  41.243 -52.799  1.00  0.00     0.095 C 
BRANCH  25  26
HETATM   26  C   UNL     1     -41.585  40.417 -52.045  1.00  0.00     0.014 C 
BRANCH  26  27
HETATM   27  C   UNL     1     -40.985  39.186 -51.362  1.00  0.00    -0.003 C 
HETATM   28  C   UNL     1     -42.047  38.133 -51.084  1.00  0.00     0.005 C 
ENDBRANCH  26  27
ENDBRANCH  25  26
ENDBRANCH  23  25
ENDBRANCH   1  23
TORSDOF 8
ENDMDL
MODEL 9
REMARK VINA RESULT:      -7.0      3.445      6.542
REMARK  8 active torsions:
REMARK  status: ('A' for Active; 'I' for Inactive)
REMARK    1  A    between atoms: C_2  and  C_3 
REMARK    2  A    between atoms: C_3  and  C_4 
REMARK    3  A    between atoms: C_4  and  N_5 
REMARK    4  A    between atoms: N_5  and  C_6 
REMARK    5  A    between atoms: C_8  and  N_9 
REMARK    6  A    between atoms: N_9  and  C_10 
REMARK    7  A    between atoms: C_10  and  C_11 
REMARK    8  A    between atoms: C_12  and  O_13 
ROOT
HETATM    1  C   UNL     1     -44.979  58.682 -50.592  1.00  0.00     0.181 A 
HETATM    2  N   UNL     1     -44.878  57.361 -50.828  1.00  0.00    -0.207 NA
HETATM    3  C   UNL     1     -44.024  56.957 -51.788  1.00  0.00     0.119 A 
HETATM    4  C   UNL     1     -43.214  57.864 -52.505  1.00  0.00     0.031 A 
HETATM    5  C   UNL     1     -43.419  59.230 -52.237  1.00  0.00     0.048 A 
HETATM    6  N   UNL     1     -44.301  59.584 -51.297  1.00  0.00    -0.330 N 
HETATM    7  H   UNL     1     -44.494  60.557 -51.105  1.00  0.00     0.168 HD
HETATM    8  C   UNL     1     -42.209  57.528 -53.444  1.00  0.00     0.017 A 
HETATM    9  C   UNL     1     -41.491  58.513 -54.124  1.00  0.00     0.001 A 
HETATM   10  C   UNL     1     -41.746  59.857 -53.877  1.00  0.00     0.002 A 
HETATM   11  C   UNL     1     -42.703  60.218 -52.930  1.00  0.00     0.030 A 
ENDROOT
BRANCH   3  12
HETATM   12  N   UNL     1     -43.997  55.581 -51.995  1.00  0.00    -0.272 NA
HETATM   13  H   UNL     1     -43.849  55.405 -52.986  1.00  0.00     0.129 HD
BRANCH  12  14
HETATM   14  C   UNL     1     -43.052  54.822 -51.159  1.00  0.00     0.135 C 
BRANCH  14  15
HETATM   15  C   UNL     1     -42.089  53.951 -51.942  1.00  0.00    -0.012 A 
HETATM   16  C   UNL     1     -41.000  53.345 -51.273  1.00  0.00     0.075 A 
HETATM   17  C   UNL     1     -40.077  52.580 -51.994  1.00  0.00     0.037 A 
HETATM   18  C   UNL     1     -40.204  52.436 -53.376  1.00  0.00     0.003 A 
HETATM   19  C   UNL     1     -41.245  53.066 -54.050  1.00  0.00     0.001 A 
HETATM   20  C   UNL     1     -42.173  53.829 -53.341  1.00  0.00     0.011 A 
BRANCH  16  21
HETATM   21  O   UNL     1     -40.922  53.578 -49.924  1.00  0.00    -0.355 OA
HETATM   22  C   UNL     1     -39.765  54.249 -49.436  1.00  0.00     0.210 C 
ENDBRANCH  16  21
ENDBRANCH  14  15
ENDBRANCH  12  14
ENDBRANCH   3  12
BRANCH   1  23
HETATM   23  N   UNL     1     -45.823  59.188 -49.614  1.00  0.00    -0.262 NA
HETATM   24  H   UNL     1     -46.810  59.108 -49.836  1.00  0.00     0.130 HD
BRANCH  23  25
HETATM   25  C   UNL     1     -45.485  60.523 -49.114  1.00  0.00     0.095 C 
BRANCH  25  26
HETATM   26  C   UNL     1     -45.849  60.630 -47.628  1.00  0.00     0.014 C 
BRANCH  26  27
HETATM   27  C   UNL     1     -44.847  61.474 -46.836  1.00  0.00    -0.003 C 
HETATM   28  C   UNL     1     -44.689  60.957 -45.414  1.00  0.00     0.005 C 
ENDBRANCH  26  27
ENDBRANCH  25  26
ENDBRANCH  23  25
ENDBRANCH   1  23
TORSDOF 8
ENDMDL
MODEL 10
REMARK VINA RESULT:      -7.0      2.299      7.184
REMARK  8 active torsions:
REMARK  status: ('A' for Active; 'I' for Inactive)
REMARK    1  A    between atoms: C_2  and  C_3 
REMARK    2  A    between atoms: C_3  and  C_4 
REMARK    3  A    between atoms: C_4  and  N_5 
REMARK    4  A    between atoms: N_5  and  C_6 
REMARK    5  A    between atoms: C_8  and  N_9 
REMARK    6  A    between atoms: N_9  and  C_10 
REMARK    7  A    between atoms: C_10  and  C_11 
REMARK    8  A    between atoms: C_12  and  O_13 
ROOT
HETATM    1  C   UNL     1     -41.651  55.512 -51.996  1.00  0.00     0.181 A 
HETATM    2  N   UNL     1     -41.694  55.666 -53.332  1.00  0.00    -0.207 NA
HETATM    3  C   UNL     1     -41.144  54.702 -54.095  1.00  0.00     0.119 A 
HETATM    4  C   UNL     1     -40.576  53.535 -53.539  1.00  0.00     0.031 A 
HETATM    5  C   UNL     1     -40.521  53.477 -52.135  1.00  0.00     0.048 A 
HETATM    6  N   UNL     1     -41.053  54.473 -51.419  1.00  0.00    -0.330 N 
HETATM    7  H   UNL     1     -41.000  54.474 -50.410  1.00  0.00     0.168 HD
HETATM    8  C   UNL     1     -40.082  52.421 -54.258  1.00  0.00     0.017 A 
HETATM    9  C   UNL     1     -39.505  51.331 -53.603  1.00  0.00     0.001 A 
HETATM   10  C   UNL     1     -39.419  51.318 -52.216  1.00  0.00     0.002 A 
HETATM   11  C   UNL     1     -39.932  52.384 -51.480  1.00  0.00     0.030 A 
ENDROOT
BRANCH   3  12
HETATM   12  N   UNL     1     -41.200  54.947 -55.464  1.00  0.00    -0.272 NA
HETATM   13  H   UNL     1     -40.681  54.217 -55.945  1.00  0.00     0.129 HD
BRANCH  12  14
HETATM   14  C   UNL     1     -42.547  55.124 -56.032  1.00  0.00     0.135 C 
BRANCH  14  15
HETATM   15  C   UNL     1     -42.779  56.478 -56.673  1.00  0.00    -0.012 A 
HETATM   16  C   UNL     1     -43.408  56.549 -57.938  1.00  0.00     0.075 A 
HETATM   17  C   UNL     1     -43.584  57.789 -58.562  1.00  0.00     0.037 A 
HETATM   18  C   UNL     1     -43.113  58.955 -57.959  1.00  0.00     0.003 A 
HETATM   19  C   UNL     1     -42.451  58.892 -56.737  1.00  0.00     0.001 A 
HETATM   20  C   UNL     1     -42.273  57.661 -56.104  1.00  0.00     0.011 A 
BRANCH  16  21
HETATM   21  O   UNL     1     -43.795  55.350 -58.481  1.00  0.00    -0.355 OA
HETATM   22  C   UNL     1     -43.833  55.251 -59.901  1.00  0.00     0.210 C 
ENDBRANCH  16  21
ENDBRANCH  14  15
ENDBRANCH  12  14
ENDBRANCH   3  12
BRANCH   1  23
HETATM   23  N   UNL     1     -42.204  56.448 -51.133  1.00  0.00    -0.262 NA
HETATM   24  H   UNL     1     -41.818  56.425 -50.194  1.00  0.00     0.130 HD
BRANCH  23  25
HETATM   25  C   UNL     1     -43.667  56.508 -51.118  1.00  0.00     0.095 C 
BRANCH  25  26
HETATM   26  C   UNL     1     -44.142  57.813 -51.767  1.00  0.00     0.014 C 
BRANCH  26  27
HETATM   27  C   UNL     1     -44.621  57.615 -53.207  1.00  0.00    -0.003 C 
HETATM   28  C   UNL     1     -44.946  58.945 -53.871  1.00  0.00     0.005 C 
ENDBRANCH  26  27
ENDBRANCH  25  26
ENDBRANCH  23  25
ENDBRANCH   1  23
TORSDOF 8
ENDMDL
