MODEL 1
REMARK VINA RESULT:      -9.0      0.000      0.000
REMARK  6 active torsions:
REMARK  status: ('A' for Active; 'I' for Inactive)
REMARK    1  A    between atoms: C_4  and  C_5 
REMARK    2  A    between atoms: C_5  and  O_6 
REMARK    3  A    between atoms: O_6  and  C_7 
REMARK    4  A    between atoms: C_10  and  C_11 
REMARK    5  A    between atoms: C_17  and  C_18 
REMARK    6  A    between atoms: C_26  and  N_27 
ROOT
HETATM    1  C   UNL     1     -42.915  55.887 -56.910  1.00  0.00     0.072 A 
HETATM    2  N   UNL     1     -43.623  55.114 -57.809  1.00  0.00    -0.274 N 
HETATM    3  H   UNL     1     -43.929  54.153 -57.690  1.00  0.00     0.189 HD
HETATM    4  N   UNL     1     -43.910  55.736 -58.969  1.00  0.00    -0.148 NA
HETATM    5  C   UNL     1     -43.354  56.927 -58.796  1.00  0.00     0.199 A 
HETATM    6  C   UNL     1     -42.736  57.098 -57.557  1.00  0.00     0.040 A 
HETATM    7  C   UNL     1     -42.101  58.396 -57.193  1.00  0.00     0.108 A 
HETATM    8  C   UNL     1     -42.115  59.350 -58.388  1.00  0.00     0.081 A 
HETATM    9  C   UNL     1     -41.382  60.566 -58.242  1.00  0.00     0.100 C 
HETATM   10  N   UNL     1     -40.787  61.553 -58.118  1.00  0.00    -0.191 NA
HETATM   11  C   UNL     1     -42.739  59.061 -59.561  1.00  0.00     0.140 A 
HETATM   12  O   UNL     1     -43.418  57.853 -59.768  1.00  0.00    -0.277 OA
ENDROOT
BRANCH   7  13
HETATM   13  C   UNL     1     -42.762  59.013 -55.987  1.00  0.00    -0.020 A 
HETATM   14  C   UNL     1     -44.052  59.499 -55.880  1.00  0.00     0.149 A 
HETATM   15  O   UNL     1     -44.286  59.986 -54.635  1.00  0.00    -0.334 OA
HETATM   16  C   UNL     1     -43.143  59.815 -53.924  1.00  0.00     0.142 A 
HETATM   17  C   UNL     1     -42.178  59.224 -54.703  1.00  0.00     0.034 A 
ENDBRANCH   7  13
BRANCH  11  18
HETATM   18  N   UNL     1     -42.777  59.885 -60.665  1.00  0.00    -0.282 NA
HETATM   19  H   UNL     1     -41.882  60.266 -60.966  1.00  0.00     0.126 HD
HETATM   20  H   UNL     1     -43.506  60.591 -60.589  1.00  0.00     0.126 HD
ENDBRANCH  11  18
BRANCH   1  21
HETATM   21  C   UNL     1     -42.520  55.412 -55.589  1.00  0.00    -0.007 A 
HETATM   22  C   UNL     1     -43.435  54.745 -54.769  1.00  0.00     0.016 A 
HETATM   23  C   UNL     1     -43.041  54.255 -53.521  1.00  0.00     0.037 A 
HETATM   24  C   UNL     1     -41.732  54.422 -53.070  1.00  0.00     0.069 A 
HETATM   25  C   UNL     1     -40.822  55.115 -53.867  1.00  0.00     0.037 A 
HETATM   26  C   UNL     1     -41.213  55.601 -55.121  1.00  0.00     0.016 A 
BRANCH  24  27
HETATM   27  O   UNL     1     -41.474  53.868 -51.847  1.00  0.00    -0.347 OA
BRANCH  27  28
HETATM   28  C   UNL     1     -40.122  53.493 -51.577  1.00  0.00     0.214 C 
BRANCH  28  29
HETATM   29  C   UNL     1     -39.906  52.046 -51.957  1.00  0.00    -0.034 A 
HETATM   30  C   UNL     1     -39.828  51.061 -50.960  1.00  0.00     0.009 A 
HETATM   31  C   UNL     1     -39.647  49.719 -51.298  1.00  0.00     0.001 A 
HETATM   32  C   UNL     1     -39.554  49.343 -52.636  1.00  0.00     0.000 A 
HETATM   33  C   UNL     1     -39.646  50.308 -53.637  1.00  0.00     0.001 A 
HETATM   34  C   UNL     1     -39.827  51.650 -53.301  1.00  0.00     0.009 A 
ENDBRANCH  28  29
ENDBRANCH  27  28
ENDBRANCH  24  27
ENDBRANCH   1  21
TORSDOF 6
ENDMDL
MODEL 2
REMARK VINA RESULT:      -8.9      3.249      4.622
REMARK  6 active torsions:
REMARK  status: ('A' for Active; 'I' for Inactive)
REMARK    1  A    between atoms: C_4  and  C_5 
REMARK    2  A    between atoms: C_5  and  O_6 
REMARK    3  A    between atoms: O_6  and  C_7 
REMARK    4  A    between atoms: C_10  and  C_11 
REMARK    5  A    between atoms: C_17  and  C_18 
REMARK    6  A    between atoms: C_26  and  N_27 
ROOT
HETATM    1  C   UNL     1     -44.244  57.240 -51.197  1.00  0.00     0.072 A 
HETATM    2  N   UNL     1     -45.142  57.664 -50.237  1.00  0.00    -0.274 N 
HETATM    3  H   UNL     1     -45.295  57.266 -49.316  1.00  0.00     0.189 HD
HETATM    4  N   UNL     1     -45.891  58.721 -50.607  1.00  0.00    -0.148 NA
HETATM    5  C   UNL     1     -45.459  58.957 -51.838  1.00  0.00     0.199 A 
HETATM    6  C   UNL     1     -44.445  58.099 -52.265  1.00  0.00     0.040 A 
HETATM    7  C   UNL     1     -43.824  58.260 -53.610  1.00  0.00     0.108 A 
HETATM    8  C   UNL     1     -44.558  59.337 -54.411  1.00  0.00     0.081 A 
HETATM    9  C   UNL     1     -44.188  59.477 -55.782  1.00  0.00     0.100 C 
HETATM   10  N   UNL     1     -43.882  59.586 -56.895  1.00  0.00    -0.191 NA
HETATM   11  C   UNL     1     -45.553  60.102 -53.887  1.00  0.00     0.140 A 
HETATM   12  O   UNL     1     -45.990  59.956 -52.564  1.00  0.00    -0.277 OA
ENDROOT
BRANCH   7  13
HETATM   13  C   UNL     1     -42.351  58.560 -53.504  1.00  0.00    -0.020 A 
HETATM   14  C   UNL     1     -41.746  59.784 -53.281  1.00  0.00     0.149 A 
HETATM   15  O   UNL     1     -40.395  59.660 -53.256  1.00  0.00    -0.334 OA
HETATM   16  C   UNL     1     -40.116  58.349 -53.461  1.00  0.00     0.142 A 
HETATM   17  C   UNL     1     -41.276  57.631 -53.619  1.00  0.00     0.034 A 
ENDBRANCH   7  13
BRANCH  11  18
HETATM   18  N   UNL     1     -46.245  61.080 -54.568  1.00  0.00    -0.282 NA
HETATM   19  H   UNL     1     -46.719  61.772 -53.991  1.00  0.00     0.126 HD
HETATM   20  H   UNL     1     -46.840  60.691 -55.296  1.00  0.00     0.126 HD
ENDBRANCH  11  18
BRANCH   1  21
HETATM   21  C   UNL     1     -43.327  56.126 -50.994  1.00  0.00    -0.007 A 
HETATM   22  C   UNL     1     -42.139  56.303 -50.278  1.00  0.00     0.016 A 
HETATM   23  C   UNL     1     -41.282  55.223 -50.049  1.00  0.00     0.037 A 
HETATM   24  C   UNL     1     -41.593  53.951 -50.530  1.00  0.00     0.069 A 
HETATM   25  C   UNL     1     -42.760  53.773 -51.273  1.00  0.00     0.037 A 
HETATM   26  C   UNL     1     -43.623  54.853 -51.498  1.00  0.00     0.016 A 
BRANCH  24  27
HETATM   27  O   UNL     1     -40.686  52.981 -50.210  1.00  0.00    -0.347 OA
BRANCH  27  28
HETATM   28  C   UNL     1     -39.502  52.910 -51.006  1.00  0.00     0.214 C 
BRANCH  28  29
HETATM   29  C   UNL     1     -39.665  51.855 -52.076  1.00  0.00    -0.034 A 
HETATM   30  C   UNL     1     -39.506  50.499 -51.755  1.00  0.00     0.009 A 
HETATM   31  C   UNL     1     -39.672  49.513 -52.730  1.00  0.00     0.001 A 
HETATM   32  C   UNL     1     -40.011  49.870 -54.032  1.00  0.00     0.000 A 
HETATM   33  C   UNL     1     -40.188  51.212 -54.362  1.00  0.00     0.001 A 
HETATM   34  C   UNL     1     -40.023  52.199 -53.389  1.00  0.00     0.009 A 
ENDBRANCH  28  29
ENDBRANCH  27  28
ENDBRANCH  24  27
ENDBRANCH   1  21
TORSDOF 6
ENDMDL
MODEL 3
REMARK VINA RESULT:      -8.8      3.921      5.245
REMARK  6 active torsions:
REMARK  status: ('A' for Active; 'I' for Inactive)
REMARK    1  A    between atoms: C_4  and  C_5 
REMARK    2  A    between atoms: C_5  and  O_6 
REMARK    3  A    between atoms: O_6  and  C_7 
REMARK    4  A    between atoms: C_10  and  C_11 
REMARK    5  A    between atoms: C_17  and  C_18 
REMARK    6  A    between atoms: C_26  and  N_27 
ROOT
HETATM    1  C   UNL     1     -44.602  57.668 -51.881  1.00  0.00     0.072 A 
HETATM    2  N   UNL     1     -45.604  57.431 -50.961  1.00  0.00    -0.274 N 
HETATM    3  H   UNL     1     -45.994  56.534 -50.689  1.00  0.00     0.189 HD
HETATM    4  N   UNL     1     -46.106  58.544 -50.389  1.00  0.00    -0.148 NA
HETATM    5  C   UNL     1     -45.408  59.504 -50.979  1.00  0.00     0.199 A 
HETATM    6  C   UNL     1     -44.461  59.045 -51.895  1.00  0.00     0.040 A 
HETATM    7  C   UNL     1     -43.567  59.999 -52.611  1.00  0.00     0.108 A 
HETATM    8  C   UNL     1     -43.965  61.442 -52.297  1.00  0.00     0.081 A 
HETATM    9  C   UNL     1     -43.312  62.463 -53.050  1.00  0.00     0.100 C 
HETATM   10  N   UNL     1     -42.777  63.288 -53.665  1.00  0.00    -0.191 NA
HETATM   11  C   UNL     1     -44.926  61.766 -51.391  1.00  0.00     0.140 A 
HETATM   12  O   UNL     1     -45.635  60.793 -50.674  1.00  0.00    -0.277 OA
ENDROOT
BRANCH   7  13
HETATM   13  C   UNL     1     -42.118  59.744 -52.286  1.00  0.00    -0.020 A 
HETATM   14  C   UNL     1     -41.093  59.428 -53.161  1.00  0.00     0.149 A 
HETATM   15  O   UNL     1     -39.921  59.264 -52.496  1.00  0.00    -0.334 OA
HETATM   16  C   UNL     1     -40.181  59.476 -51.182  1.00  0.00     0.142 A 
HETATM   17  C   UNL     1     -41.509  59.774 -50.997  1.00  0.00     0.034 A 
ENDBRANCH   7  13
BRANCH  11  18
HETATM   18  N   UNL     1     -45.321  63.048 -51.076  1.00  0.00    -0.282 NA
HETATM   19  H   UNL     1     -46.255  63.141 -50.683  1.00  0.00     0.126 HD
HETATM   20  H   UNL     1     -45.141  63.700 -51.837  1.00  0.00     0.126 HD
ENDBRANCH  11  18
BRANCH   1  21
HETATM   21  C   UNL     1     -43.912  56.603 -52.599  1.00  0.00    -0.007 A 
HETATM   22  C   UNL     1     -43.228  55.602 -51.902  1.00  0.00     0.016 A 
HETATM   23  C   UNL     1     -42.603  54.560 -52.593  1.00  0.00     0.037 A 
HETATM   24  C   UNL     1     -42.648  54.500 -53.986  1.00  0.00     0.069 A 
HETATM   25  C   UNL     1     -43.299  55.512 -54.689  1.00  0.00     0.037 A 
HETATM   26  C   UNL     1     -43.932  56.553 -53.998  1.00  0.00     0.016 A 
BRANCH  24  27
HETATM   27  O   UNL     1     -42.022  53.413 -54.531  1.00  0.00    -0.347 OA
BRANCH  27  28
HETATM   28  C   UNL     1     -40.600  53.355 -54.410  1.00  0.00     0.214 C 
BRANCH  28  29
HETATM   29  C   UNL     1     -40.197  52.082 -53.701  1.00  0.00    -0.034 A 
HETATM   30  C   UNL     1     -39.853  52.115 -52.341  1.00  0.00     0.009 A 
HETATM   31  C   UNL     1     -39.498  50.944 -51.669  1.00  0.00     0.001 A 
HETATM   32  C   UNL     1     -39.492  49.726 -52.344  1.00  0.00     0.000 A 
HETATM   33  C   UNL     1     -39.847  49.676 -53.691  1.00  0.00     0.001 A 
HETATM   34  C   UNL     1     -40.204  50.846 -54.364  1.00  0.00     0.009 A 
ENDBRANCH  28  29
ENDBRANCH  27  28
ENDBRANCH  24  27
ENDBRANCH   1  21
TORSDOF 6
ENDMDL
MODEL 4
REMARK VINA RESULT:      -8.4      2.646      4.282
REMARK  6 active torsions:
REMARK  status: ('A' for Active; 'I' for Inactive)
REMARK    1  A    between atoms: C_4  and  C_5 
REMARK    2  A    between atoms: C_5  and  O_6 
REMARK    3  A    between atoms: O_6  and  C_7 
REMARK    4  A    between atoms: C_10  and  C_11 
REMARK    5  A    between atoms: C_17  and  C_18 
REMARK    6  A    between atoms: C_26  and  N_27 
ROOT
HETATM    1  C   UNL     1     -44.709  58.217 -56.193  1.00  0.00     0.072 A 
HETATM    2  N   UNL     1     -44.992  59.449 -55.638  1.00  0.00    -0.274 N 
HETATM    3  H   UNL     1     -44.681  59.809 -54.741  1.00  0.00     0.189 HD
HETATM    4  N   UNL     1     -45.783  60.231 -56.399  1.00  0.00    -0.148 NA
HETATM    5  C   UNL     1     -46.013  59.460 -57.453  1.00  0.00     0.199 A 
HETATM    6  C   UNL     1     -45.381  58.218 -57.404  1.00  0.00     0.040 A 
HETATM    7  C   UNL     1     -45.507  57.252 -58.532  1.00  0.00     0.108 A 
HETATM    8  C   UNL     1     -46.499  57.773 -59.573  1.00  0.00     0.081 A 
HETATM    9  C   UNL     1     -46.856  56.874 -60.622  1.00  0.00     0.100 C 
HETATM   10  N   UNL     1     -47.141  56.140 -61.472  1.00  0.00    -0.191 NA
HETATM   11  C   UNL     1     -47.070  59.006 -59.501  1.00  0.00     0.140 A 
HETATM   12  O   UNL     1     -46.795  59.897 -58.456  1.00  0.00    -0.277 OA
ENDROOT
BRANCH   7  13
HETATM   13  C   UNL     1     -44.167  56.951 -59.151  1.00  0.00    -0.020 A 
HETATM   14  C   UNL     1     -43.594  55.712 -59.380  1.00  0.00     0.149 A 
HETATM   15  O   UNL     1     -42.370  55.841 -59.950  1.00  0.00    -0.334 OA
HETATM   16  C   UNL     1     -42.141  57.170 -60.097  1.00  0.00     0.142 A 
HETATM   17  C   UNL     1     -43.208  57.895 -59.625  1.00  0.00     0.034 A 
ENDBRANCH   7  13
BRANCH  11  18
HETATM   18  N   UNL     1     -47.970  59.518 -60.410  1.00  0.00    -0.282 NA
HETATM   19  H   UNL     1     -47.592  59.750 -61.327  1.00  0.00     0.126 HD
HETATM   20  H   UNL     1     -48.533  60.265 -60.010  1.00  0.00     0.126 HD
ENDBRANCH  11  18
BRANCH   1  21
HETATM   21  C   UNL     1     -43.858  57.228 -55.544  1.00  0.00    -0.007 A 
HETATM   22  C   UNL     1     -42.561  56.989 -56.011  1.00  0.00     0.016 A 
HETATM   23  C   UNL     1     -41.733  56.069 -55.362  1.00  0.00     0.037 A 
HETATM   24  C   UNL     1     -42.182  55.374 -54.239  1.00  0.00     0.069 A 
HETATM   25  C   UNL     1     -43.484  55.582 -53.786  1.00  0.00     0.037 A 
HETATM   26  C   UNL     1     -44.313  56.508 -54.432  1.00  0.00     0.016 A 
BRANCH  24  27
HETATM   27  O   UNL     1     -41.261  54.530 -53.683  1.00  0.00    -0.347 OA
BRANCH  27  28
HETATM   28  C   UNL     1     -40.592  53.627 -54.565  1.00  0.00     0.214 C 
BRANCH  28  29
HETATM   29  C   UNL     1     -40.251  52.351 -53.831  1.00  0.00    -0.034 A 
HETATM   30  C   UNL     1     -40.234  51.128 -54.518  1.00  0.00     0.009 A 
HETATM   31  C   UNL     1     -39.901  49.945 -53.856  1.00  0.00     0.001 A 
HETATM   32  C   UNL     1     -39.572  49.971 -52.504  1.00  0.00     0.000 A 
HETATM   33  C   UNL     1     -39.569  51.180 -51.812  1.00  0.00     0.001 A 
HETATM   34  C   UNL     1     -39.900  52.365 -52.473  1.00  0.00     0.009 A 
ENDBRANCH  28  29
ENDBRANCH  27  28
ENDBRANCH  24  27
ENDBRANCH   1  21
TORSDOF 6
ENDMDL
MODEL 5
REMARK VINA RESULT:      -8.4      3.796      8.390
REMARK  6 active torsions:
REMARK  status: ('A' for Active; 'I' for Inactive)
REMARK    1  A    between atoms: C_4  and  C_5 
REMARK    2  A    between atoms: C_5  and  O_6 
REMARK    3  A    between atoms: O_6  and  C_7 
REMARK    4  A    between atoms: C_10  and  C_11 
REMARK    5  A    between atoms: C_17  and  C_18 
REMARK    6  A    between atoms: C_26  and  N_27 
ROOT
HETATM    1  C   UNL     1     -41.262  56.072 -50.713  1.00  0.00     0.072 A 
HETATM    2  N   UNL     1     -41.430  56.020 -49.344  1.00  0.00    -0.274 N 
HETATM    3  H   UNL     1     -41.659  56.788 -48.720  1.00  0.00     0.189 HD
HETATM    4  N   UNL     1     -41.247  54.797 -48.809  1.00  0.00    -0.148 NA
HETATM    5  C   UNL     1     -40.943  54.066 -49.872  1.00  0.00     0.199 A 
HETATM    6  C   UNL     1     -40.943  54.774 -51.074  1.00  0.00     0.040 A 
HETATM    7  C   UNL     1     -40.661  54.085 -52.366  1.00  0.00     0.108 A 
HETATM    8  C   UNL     1     -40.251  52.633 -52.117  1.00  0.00     0.081 A 
HETATM    9  C   UNL     1     -39.780  51.900 -53.248  1.00  0.00     0.100 C 
HETATM   10  N   UNL     1     -39.398  51.310 -54.170  1.00  0.00    -0.191 NA
HETATM   11  C   UNL     1     -40.274  52.056 -50.886  1.00  0.00     0.140 A 
HETATM   12  O   UNL     1     -40.671  52.756 -49.740  1.00  0.00    -0.277 OA
ENDROOT
BRANCH   7  13
HETATM   13  C   UNL     1     -41.836  54.174 -53.304  1.00  0.00    -0.020 A 
HETATM   14  C   UNL     1     -43.176  54.291 -52.981  1.00  0.00     0.149 A 
HETATM   15  O   UNL     1     -43.943  54.336 -54.100  1.00  0.00    -0.334 OA
HETATM   16  C   UNL     1     -43.101  54.250 -55.159  1.00  0.00     0.142 A 
HETATM   17  C   UNL     1     -41.800  54.150 -54.730  1.00  0.00     0.034 A 
ENDBRANCH   7  13
BRANCH  11  18
HETATM   18  N   UNL     1     -39.912  50.754 -50.612  1.00  0.00    -0.282 NA
HETATM   19  H   UNL     1     -40.302  50.355 -49.761  1.00  0.00     0.126 HD
HETATM   20  H   UNL     1     -38.908  50.611 -50.698  1.00  0.00     0.126 HD
ENDBRANCH  11  18
BRANCH   1  21
HETATM   21  C   UNL     1     -41.432  57.293 -51.491  1.00  0.00    -0.007 A 
HETATM   22  C   UNL     1     -40.467  57.681 -52.426  1.00  0.00     0.016 A 
HETATM   23  C   UNL     1     -40.652  58.830 -53.200  1.00  0.00     0.037 A 
HETATM   24  C   UNL     1     -41.799  59.611 -53.054  1.00  0.00     0.069 A 
HETATM   25  C   UNL     1     -42.750  59.249 -52.101  1.00  0.00     0.037 A 
HETATM   26  C   UNL     1     -42.569  58.094 -51.330  1.00  0.00     0.016 A 
BRANCH  24  27
HETATM   27  O   UNL     1     -41.867  60.688 -53.893  1.00  0.00    -0.347 OA
BRANCH  27  28
HETATM   28  C   UNL     1     -43.010  60.775 -54.746  1.00  0.00     0.214 C 
BRANCH  28  29
HETATM   29  C   UNL     1     -42.960  59.676 -55.783  1.00  0.00    -0.034 A 
HETATM   30  C   UNL     1     -43.836  58.584 -55.692  1.00  0.00     0.009 A 
HETATM   31  C   UNL     1     -43.814  57.572 -56.654  1.00  0.00     0.001 A 
HETATM   32  C   UNL     1     -42.926  57.646 -57.723  1.00  0.00     0.000 A 
HETATM   33  C   UNL     1     -42.062  58.733 -57.836  1.00  0.00     0.001 A 
HETATM   34  C   UNL     1     -42.083  59.746 -56.876  1.00  0.00     0.009 A 
ENDBRANCH  28  29
ENDBRANCH  27  28
ENDBRANCH  24  27
ENDBRANCH   1  21
TORSDOF 6
ENDMDL
MODEL 6
REMARK VINA RESULT:      -8.3      3.791      5.557
REMARK  6 active torsions:
REMARK  status: ('A' for Active; 'I' for Inactive)
REMARK    1  A    between atoms: C_4  and  C_5 
REMARK    2  A    between atoms: C_5  and  O_6 
REMARK    3  A    between atoms: O_6  and  C_7 
REMARK    4  A    between atoms: C_10  and  C_11 
REMARK    5  A    between atoms: C_17  and  C_18 
REMARK    6  A    between atoms: C_26  and  N_27 
ROOT
HETATM    1  C   UNL     1     -41.925  58.104 -51.599  1.00  0.00     0.072 A 
HETATM    2  N   UNL     1     -40.888  58.528 -50.792  1.00  0.00    -0.274 N 
HETATM    3  H   UNL     1     -40.021  58.038 -50.592  1.00  0.00     0.189 HD
HETATM    4  N   UNL     1     -41.090  59.727 -50.212  1.00  0.00    -0.148 NA
HETATM    5  C   UNL     1     -42.294  60.057 -50.658  1.00  0.00     0.199 A 
HETATM    6  C   UNL     1     -42.864  59.119 -51.520  1.00  0.00     0.040 A 
HETATM    7  C   UNL     1     -44.198  59.362 -52.140  1.00  0.00     0.108 A 
HETATM    8  C   UNL     1     -44.826  60.636 -51.571  1.00  0.00     0.081 A 
HETATM    9  C   UNL     1     -46.179  60.899 -51.940  1.00  0.00     0.100 C 
HETATM   10  N   UNL     1     -47.278  61.109 -52.243  1.00  0.00    -0.191 NA
HETATM   11  C   UNL     1     -44.173  61.466 -50.715  1.00  0.00     0.140 A 
HETATM   12  O   UNL     1     -42.865  61.213 -50.280  1.00  0.00    -0.277 OA
ENDROOT
BRANCH   7  13
HETATM   13  C   UNL     1     -44.104  59.417 -53.642  1.00  0.00    -0.020 A 
HETATM   14  C   UNL     1     -43.526  60.401 -54.424  1.00  0.00     0.149 A 
HETATM   15  O   UNL     1     -43.643  60.104 -55.743  1.00  0.00    -0.334 OA
HETATM   16  C   UNL     1     -44.298  58.920 -55.824  1.00  0.00     0.142 A 
HETATM   17  C   UNL     1     -44.604  58.454 -54.569  1.00  0.00     0.034 A 
ENDBRANCH   7  13
BRANCH  11  18
HETATM   18  N   UNL     1     -44.696  62.621 -50.175  1.00  0.00    -0.282 NA
HETATM   19  H   UNL     1     -44.362  62.868 -49.246  1.00  0.00     0.126 HD
HETATM   20  H   UNL     1     -45.710  62.656 -50.257  1.00  0.00     0.126 HD
ENDBRANCH  11  18
BRANCH   1  21
HETATM   21  C   UNL     1     -41.900  56.846 -52.334  1.00  0.00    -0.007 A 
HETATM   22  C   UNL     1     -40.966  56.635 -53.353  1.00  0.00     0.016 A 
HETATM   23  C   UNL     1     -40.918  55.412 -54.027  1.00  0.00     0.037 A 
HETATM   24  C   UNL     1     -41.799  54.381 -53.699  1.00  0.00     0.069 A 
HETATM   25  C   UNL     1     -42.755  54.595 -52.707  1.00  0.00     0.037 A 
HETATM   26  C   UNL     1     -42.800  55.818 -52.026  1.00  0.00     0.016 A 
BRANCH  24  27
HETATM   27  O   UNL     1     -41.623  53.230 -54.414  1.00  0.00    -0.347 OA
BRANCH  27  28
HETATM   28  C   UNL     1     -40.285  52.749 -54.554  1.00  0.00     0.214 C 
BRANCH  28  29
HETATM   29  C   UNL     1     -39.999  51.713 -53.491  1.00  0.00    -0.034 A 
HETATM   30  C   UNL     1     -39.894  52.096 -52.146  1.00  0.00     0.009 A 
HETATM   31  C   UNL     1     -39.648  51.146 -51.152  1.00  0.00     0.001 A 
HETATM   32  C   UNL     1     -39.516  49.802 -51.490  1.00  0.00     0.000 A 
HETATM   33  C   UNL     1     -39.634  49.404 -52.820  1.00  0.00     0.001 A 
HETATM   34  C   UNL     1     -39.880  50.353 -53.814  1.00  0.00     0.009 A 
ENDBRANCH  28  29
ENDBRANCH  27  28
ENDBRANCH  24  27
ENDBRANCH   1  21
TORSDOF 6
ENDMDL
MODEL 7
REMARK VINA RESULT:      -8.3      4.730      8.675
REMARK  6 active torsions:
REMARK  status: ('A' for Active; 'I' for Inactive)
REMARK    1  A    between atoms: C_4  and  C_5 
REMARK    2  A    between atoms: C_5  and  O_6 
REMARK    3  A    between atoms: O_6  and  C_7 
REMARK    4  A    between atoms: C_10  and  C_11 
REMARK    5  A    between atoms: C_17  and  C_18 
REMARK    6  A    between atoms: C_26  and  N_27 
ROOT
HETATM    1  C   UNL     1     -44.056  56.565 -53.185  1.00  0.00     0.072 A 
HETATM    2  N   UNL     1     -44.471  55.932 -54.339  1.00  0.00    -0.274 N 
HETATM    3  H   UNL     1     -45.252  56.185 -54.936  1.00  0.00     0.189 HD
HETATM    4  N   UNL     1     -43.739  54.850 -54.672  1.00  0.00    -0.148 NA
HETATM    5  C   UNL     1     -42.849  54.798 -53.691  1.00  0.00     0.199 A 
HETATM    6  C   UNL     1     -42.973  55.820 -52.749  1.00  0.00     0.040 A 
HETATM    7  C   UNL     1     -42.021  55.925 -51.606  1.00  0.00     0.108 A 
HETATM    8  C   UNL     1     -41.082  54.719 -51.582  1.00  0.00     0.081 A 
HETATM    9  C   UNL     1     -40.234  54.593 -50.441  1.00  0.00     0.100 C 
HETATM   10  N   UNL     1     -39.546  54.496 -49.513  1.00  0.00    -0.191 NA
HETATM   11  C   UNL     1     -41.069  53.769 -52.556  1.00  0.00     0.140 A 
HETATM   12  O   UNL     1     -41.927  53.821 -53.662  1.00  0.00    -0.277 OA
ENDROOT
BRANCH   7  13
HETATM   13  C   UNL     1     -41.254  57.221 -51.647  1.00  0.00    -0.020 A 
HETATM   14  C   UNL     1     -40.660  57.824 -52.741  1.00  0.00     0.149 A 
HETATM   15  O   UNL     1     -40.051  58.984 -52.386  1.00  0.00    -0.334 OA
HETATM   16  C   UNL     1     -40.249  59.141 -51.054  1.00  0.00     0.142 A 
HETATM   17  C   UNL     1     -40.980  58.091 -50.551  1.00  0.00     0.034 A 
ENDBRANCH   7  13
BRANCH  11  18
HETATM   18  N   UNL     1     -40.244  52.665 -52.577  1.00  0.00    -0.282 NA
HETATM   19  H   UNL     1     -39.931  52.362 -53.496  1.00  0.00     0.126 HD
HETATM   20  H   UNL     1     -40.612  51.904 -52.009  1.00  0.00     0.126 HD
ENDBRANCH  11  18
BRANCH   1  21
HETATM   21  C   UNL     1     -44.698  57.763 -52.658  1.00  0.00    -0.007 A 
HETATM   22  C   UNL     1     -45.116  57.820 -51.325  1.00  0.00     0.016 A 
HETATM   23  C   UNL     1     -45.694  58.984 -50.813  1.00  0.00     0.037 A 
HETATM   24  C   UNL     1     -45.866  60.109 -51.619  1.00  0.00     0.069 A 
HETATM   25  C   UNL     1     -45.482  60.051 -52.958  1.00  0.00     0.037 A 
HETATM   26  C   UNL     1     -44.897  58.887 -53.471  1.00  0.00     0.016 A 
BRANCH  24  27
HETATM   27  O   UNL     1     -46.414  61.188 -50.984  1.00  0.00    -0.347 OA
BRANCH  27  28
HETATM   28  C   UNL     1     -45.513  62.093 -50.344  1.00  0.00     0.214 C 
BRANCH  28  29
HETATM   29  C   UNL     1     -45.661  61.989 -48.843  1.00  0.00    -0.034 A 
HETATM   30  C   UNL     1     -46.792  62.525 -48.210  1.00  0.00     0.009 A 
HETATM   31  C   UNL     1     -46.950  62.419 -46.827  1.00  0.00     0.001 A 
HETATM   32  C   UNL     1     -45.987  61.767 -46.062  1.00  0.00     0.000 A 
HETATM   33  C   UNL     1     -44.866  61.215 -46.680  1.00  0.00     0.001 A 
HETATM   34  C   UNL     1     -44.706  61.319 -48.062  1.00  0.00     0.009 A 
ENDBRANCH  28  29
ENDBRANCH  27  28
ENDBRANCH  24  27
ENDBRANCH   1  21
TORSDOF 6
ENDMDL
MODEL 8
REMARK VINA RESULT:      -8.3      4.615      9.334
REMARK  6 active torsions:
REMARK  status: ('A' for Active; 'I' for Inactive)
REMARK    1  A    between atoms: C_4  and  C_5 
REMARK    2  A    between atoms: C_5  and  O_6 
REMARK    3  A    between atoms: O_6  and  C_7 
REMARK    4  A    between atoms: C_10  and  C_11 
REMARK    5  A    between atoms: C_17  and  C_18 
REMARK    6  A    between atoms: C_26  and  N_27 
ROOT
HETATM    1  C   UNL     1     -41.127  55.838 -50.246  1.00  0.00     0.072 A 
HETATM    2  N   UNL     1     -41.303  55.684 -48.885  1.00  0.00    -0.274 N 
HETATM    3  H   UNL     1     -41.523  56.406 -48.205  1.00  0.00     0.189 HD
HETATM    4  N   UNL     1     -41.146  54.420 -48.445  1.00  0.00    -0.148 NA
HETATM    5  C   UNL     1     -40.849  53.768 -49.559  1.00  0.00     0.199 A 
HETATM    6  C   UNL     1     -40.829  54.565 -50.704  1.00  0.00     0.040 A 
HETATM    7  C   UNL     1     -40.552  53.973 -52.043  1.00  0.00     0.108 A 
HETATM    8  C   UNL     1     -40.170  52.498 -51.906  1.00  0.00     0.081 A 
HETATM    9  C   UNL     1     -39.705  51.846 -53.087  1.00  0.00     0.100 C 
HETATM   10  N   UNL     1     -39.329  51.321 -54.050  1.00  0.00    -0.191 NA
HETATM   11  C   UNL     1     -40.211  51.829 -50.722  1.00  0.00     0.140 A 
HETATM   12  O   UNL     1     -40.602  52.446 -49.527  1.00  0.00    -0.277 OA
ENDROOT
BRANCH   7  13
HETATM   13  C   UNL     1     -41.720  54.155 -52.978  1.00  0.00    -0.020 A 
HETATM   14  C   UNL     1     -43.067  54.032 -52.689  1.00  0.00     0.149 A 
HETATM   15  O   UNL     1     -43.823  54.265 -53.792  1.00  0.00    -0.334 OA
HETATM   16  C   UNL     1     -42.966  54.543 -54.805  1.00  0.00     0.142 A 
HETATM   17  C   UNL     1     -41.667  54.490 -54.363  1.00  0.00     0.034 A 
ENDBRANCH   7  13
BRANCH  11  18
HETATM   18  N   UNL     1     -39.874  50.504 -50.548  1.00  0.00    -0.282 NA
HETATM   19  H   UNL     1     -39.556  50.013 -51.380  1.00  0.00     0.126 HD
HETATM   20  H   UNL     1     -40.588  49.994 -50.032  1.00  0.00     0.126 HD
ENDBRANCH  11  18
BRANCH   1  21
HETATM   21  C   UNL     1     -41.270  57.118 -50.928  1.00  0.00    -0.007 A 
HETATM   22  C   UNL     1     -42.308  57.325 -51.841  1.00  0.00     0.016 A 
HETATM   23  C   UNL     1     -42.467  58.567 -52.463  1.00  0.00     0.037 A 
HETATM   24  C   UNL     1     -41.595  59.620 -52.186  1.00  0.00     0.069 A 
HETATM   25  C   UNL     1     -40.537  59.411 -51.302  1.00  0.00     0.037 A 
HETATM   26  C   UNL     1     -40.381  58.170 -50.673  1.00  0.00     0.016 A 
BRANCH  24  27
HETATM   27  O   UNL     1     -41.881  60.786 -52.838  1.00  0.00    -0.347 OA
BRANCH  27  28
HETATM   28  C   UNL     1     -43.232  61.248 -52.780  1.00  0.00     0.214 C 
BRANCH  28  29
HETATM   29  C   UNL     1     -43.473  61.968 -51.474  1.00  0.00    -0.034 A 
HETATM   30  C   UNL     1     -43.084  63.309 -51.329  1.00  0.00     0.009 A 
HETATM   31  C   UNL     1     -43.318  63.992 -50.134  1.00  0.00     0.001 A 
HETATM   32  C   UNL     1     -43.951  63.348 -49.075  1.00  0.00     0.000 A 
HETATM   33  C   UNL     1     -44.357  62.022 -49.210  1.00  0.00     0.001 A 
HETATM   34  C   UNL     1     -44.125  61.338 -50.404  1.00  0.00     0.009 A 
ENDBRANCH  28  29
ENDBRANCH  27  28
ENDBRANCH  24  27
ENDBRANCH   1  21
TORSDOF 6
ENDMDL
MODEL 9
REMARK VINA RESULT:      -8.1     16.021     19.144
REMARK  6 active torsions:
REMARK  status: ('A' for Active; 'I' for Inactive)
REMARK    1  A    between atoms: C_4  and  C_5 
REMARK    2  A    between atoms: C_5  and  O_6 
REMARK    3  A    between atoms: O_6  and  C_7 
REMARK    4  A    between atoms: C_10  and  C_11 
REMARK    5  A    between atoms: C_17  and  C_18 
REMARK    6  A    between atoms: C_26  and  N_27 
ROOT
HETATM    1  C   UNL     1     -34.621  41.141 -52.624  1.00  0.00     0.072 A 
HETATM    2  N   UNL     1     -35.227  42.363 -52.408  1.00  0.00    -0.274 N 
HETATM    3  H   UNL     1     -35.197  42.927 -51.564  1.00  0.00     0.189 HD
HETATM    4  N   UNL     1     -35.941  42.820 -53.455  1.00  0.00    -0.148 NA
HETATM    5  C   UNL     1     -35.789  41.851 -54.346  1.00  0.00     0.199 A 
HETATM    6  C   UNL     1     -34.986  40.795 -53.914  1.00  0.00     0.040 A 
HETATM    7  C   UNL     1     -34.683  39.647 -54.815  1.00  0.00     0.108 A 
HETATM    8  C   UNL     1     -35.482  39.764 -56.114  1.00  0.00     0.081 A 
HETATM    9  C   UNL     1     -35.430  38.645 -56.998  1.00  0.00     0.100 C 
HETATM   10  N   UNL     1     -35.384  37.733 -57.713  1.00  0.00    -0.191 NA
HETATM   11  C   UNL     1     -36.252  40.843 -56.417  1.00  0.00     0.140 A 
HETATM   12  O   UNL     1     -36.380  41.937 -55.551  1.00  0.00    -0.277 OA
ENDROOT
BRANCH   7  13
HETATM   13  C   UNL     1     -33.205  39.533 -55.084  1.00  0.00    -0.020 A 
HETATM   14  C   UNL     1     -32.386  40.442 -55.729  1.00  0.00     0.149 A 
HETATM   15  O   UNL     1     -31.108  39.987 -55.788  1.00  0.00    -0.334 OA
HETATM   16  C   UNL     1     -31.093  38.776 -55.177  1.00  0.00     0.142 A 
HETATM   17  C   UNL     1     -32.349  38.450 -54.727  1.00  0.00     0.034 A 
ENDBRANCH   7  13
BRANCH  11  18
HETATM   18  N   UNL     1     -36.991  40.993 -57.571  1.00  0.00    -0.282 NA
HETATM   19  H   UNL     1     -37.392  40.141 -57.955  1.00  0.00     0.126 HD
HETATM   20  H   UNL     1     -36.502  41.553 -58.266  1.00  0.00     0.126 HD
ENDBRANCH  11  18
BRANCH   1  21
HETATM   21  C   UNL     1     -33.789  40.478 -51.628  1.00  0.00    -0.007 A 
HETATM   22  C   UNL     1     -32.394  40.541 -51.710  1.00  0.00     0.016 A 
HETATM   23  C   UNL     1     -31.599  39.939 -50.731  1.00  0.00     0.037 A 
HETATM   24  C   UNL     1     -32.180  39.264 -49.657  1.00  0.00     0.069 A 
HETATM   25  C   UNL     1     -33.569  39.169 -49.585  1.00  0.00     0.037 A 
HETATM   26  C   UNL     1     -34.367  39.777 -50.562  1.00  0.00     0.016 A 
BRANCH  24  27
HETATM   27  O   UNL     1     -31.289  38.749 -48.757  1.00  0.00    -0.347 OA
BRANCH  27  28
HETATM   28  C   UNL     1     -31.811  38.323 -47.497  1.00  0.00     0.214 C 
BRANCH  28  29
HETATM   29  C   UNL     1     -31.158  39.105 -46.380  1.00  0.00    -0.034 A 
HETATM   30  C   UNL     1     -30.352  40.215 -46.677  1.00  0.00     0.009 A 
HETATM   31  C   UNL     1     -29.759  40.957 -45.654  1.00  0.00     0.001 A 
HETATM   32  C   UNL     1     -29.973  40.607 -44.324  1.00  0.00     0.000 A 
HETATM   33  C   UNL     1     -30.785  39.518 -44.014  1.00  0.00     0.001 A 
HETATM   34  C   UNL     1     -31.380  38.775 -45.035  1.00  0.00     0.009 A 
ENDBRANCH  28  29
ENDBRANCH  27  28
ENDBRANCH  24  27
ENDBRANCH   1  21
TORSDOF 6
ENDMDL
MODEL 10
REMARK VINA RESULT:      -7.9      1.490      2.421
REMARK  6 active torsions:
REMARK  status: ('A' for Active; 'I' for Inactive)
REMARK    1  A    between atoms: C_4  and  C_5 
REMARK    2  A    between atoms: C_5  and  O_6 
REMARK    3  A    between atoms: O_6  and  C_7 
REMARK    4  A    between atoms: C_10  and  C_11 
REMARK    5  A    between atoms: C_17  and  C_18 
REMARK    6  A    between atoms: C_26  and  N_27 
ROOT
HETATM    1  C   UNL     1     -43.093  55.793 -57.437  1.00  0.00     0.072 A 
HETATM    2  N   UNL     1     -43.938  55.221 -58.367  1.00  0.00    -0.274 N 
HETATM    3  H   UNL     1     -44.283  54.267 -58.383  1.00  0.00     0.189 HD
HETATM    4  N   UNL     1     -44.316  56.053 -59.358  1.00  0.00    -0.148 NA
HETATM    5  C   UNL     1     -43.677  57.172 -59.047  1.00  0.00     0.199 A 
HETATM    6  C   UNL     1     -42.918  57.094 -57.879  1.00  0.00     0.040 A 
HETATM    7  C   UNL     1     -42.174  58.281 -57.371  1.00  0.00     0.108 A 
HETATM    8  C   UNL     1     -42.265  59.436 -58.370  1.00  0.00     0.081 A 
HETATM    9  C   UNL     1     -41.453  60.578 -58.102  1.00  0.00     0.100 C 
HETATM   10  N   UNL     1     -40.792  61.504 -57.878  1.00  0.00    -0.191 NA
HETATM   11  C   UNL     1     -43.030  59.386 -59.493  1.00  0.00     0.140 A 
HETATM   12  O   UNL     1     -43.795  58.260 -59.827  1.00  0.00    -0.277 OA
ENDROOT
BRANCH   7  13
HETATM   13  C   UNL     1     -42.661  58.693 -56.006  1.00  0.00    -0.020 A 
HETATM   14  C   UNL     1     -41.928  58.799 -54.838  1.00  0.00     0.149 A 
HETATM   15  O   UNL     1     -42.716  59.194 -53.805  1.00  0.00    -0.334 OA
HETATM   16  C   UNL     1     -43.968  59.349 -54.302  1.00  0.00     0.142 A 
HETATM   17  C   UNL     1     -43.992  59.057 -55.644  1.00  0.00     0.034 A 
ENDBRANCH   7  13
BRANCH  11  18
HETATM   18  N   UNL     1     -43.143  60.396 -60.423  1.00  0.00    -0.282 NA
HETATM   19  H   UNL     1     -42.536  61.201 -60.281  1.00  0.00     0.126 HD
HETATM   20  H   UNL     1     -44.113  60.653 -60.592  1.00  0.00     0.126 HD
ENDBRANCH  11  18
BRANCH   1  21
HETATM   21  C   UNL     1     -42.581  55.074 -56.277  1.00  0.00    -0.007 A 
HETATM   22  C   UNL     1     -43.458  54.539 -55.328  1.00  0.00     0.016 A 
HETATM   23  C   UNL     1     -42.966  53.814 -54.239  1.00  0.00     0.037 A 
HETATM   24  C   UNL     1     -41.596  53.613 -54.077  1.00  0.00     0.069 A 
HETATM   25  C   UNL     1     -40.713  54.171 -55.000  1.00  0.00     0.037 A 
HETATM   26  C   UNL     1     -41.205  54.891 -56.096  1.00  0.00     0.016 A 
BRANCH  24  27
HETATM   27  O   UNL     1     -41.254  52.862 -52.987  1.00  0.00    -0.347 OA
BRANCH  27  28
HETATM   28  C   UNL     1     -40.068  53.239 -52.285  1.00  0.00     0.214 C 
BRANCH  28  29
HETATM   29  C   UNL     1     -40.435  53.855 -50.954  1.00  0.00    -0.034 A 
HETATM   30  C   UNL     1     -40.197  53.150 -49.764  1.00  0.00     0.009 A 
HETATM   31  C   UNL     1     -40.513  53.716 -48.527  1.00  0.00     0.001 A 
HETATM   32  C   UNL     1     -41.060  54.994 -48.464  1.00  0.00     0.000 A 
HETATM   33  C   UNL     1     -41.286  55.713 -49.636  1.00  0.00     0.001 A 
HETATM   34  C   UNL     1     -40.970  55.149 -50.874  1.00  0.00     0.009 A 
ENDBRANCH  28  29
ENDBRANCH  27  28
ENDBRANCH  24  27
ENDBRANCH   1  21
TORSDOF 6
ENDMDL
