MODEL 1
REMARK VINA RESULT:      -8.3      0.000      0.000
REMARK  5 active torsions:
REMARK  status: ('A' for Active; 'I' for Inactive)
REMARK    1  A    between atoms: C_6  and  C_7 
REMARK    2  A    between atoms: C_7  and  N_8 
REMARK       I    between atoms: N_8  and  C_9 
REMARK       I    between atoms: C_9  and  N_10 
REMARK    3  A    between atoms: N_10  and  C_11 
REMARK    4  A    between atoms: C_14  and  C_15 
REMARK       I    between atoms: C_15  and  N_16 
REMARK    5  A    between atoms: N_16  and  C_17 
ROOT
HETATM    1  C   UNL     1     -43.566  59.195 -51.137  1.00  0.00     0.036 A 
HETATM    2  C   UNL     1     -42.248  58.736 -51.096  1.00  0.00     0.030 A 
HETATM    3  C   UNL     1     -41.964  57.375 -51.267  1.00  0.00     0.019 A 
HETATM    4  C   UNL     1     -43.000  56.452 -51.449  1.00  0.00     0.032 A 
HETATM    5  C   UNL     1     -44.324  56.901 -51.451  1.00  0.00     0.019 A 
HETATM    6  C   UNL     1     -44.601  58.262 -51.281  1.00  0.00     0.030 A 
ENDROOT
BRANCH   1   7
HETATM    7  N   UNL     1     -43.947  60.545 -51.022  1.00  0.00    -0.309 N 
HETATM    8  C   UNL     1     -44.625  61.238 -50.066  1.00  0.00     0.321 C 
HETATM    9  N   UNL     1     -44.843  60.634 -48.876  1.00  0.00    -0.337 N 
HETATM   10  O   UNL     1     -44.974  62.395 -50.295  1.00  0.00    -0.247 OA
HETATM   11  H   UNL     1     -44.188  59.917 -48.596  1.00  0.00     0.164 HD
HETATM   12  H   UNL     1     -43.672  61.161 -51.777  1.00  0.00     0.170 HD
BRANCH   9  13
HETATM   13  C   UNL     1     -45.456  61.348 -47.782  1.00  0.00     0.186 C 
BRANCH  13  14
HETATM   14  C   UNL     1     -45.800  60.390 -46.696  1.00  0.00     0.083 A 
HETATM   15  C   UNL     1     -45.338  60.363 -45.395  1.00  0.00     0.076 A 
HETATM   16  C   UNL     1     -44.391  61.180 -44.616  1.00  0.00     0.079 C 
HETATM   17  O   UNL     1     -45.934  59.311 -44.758  1.00  0.00    -0.307 OA
HETATM   18  C   UNL     1     -46.723  58.750 -45.713  1.00  0.00     0.258 A 
HETATM   19  N   UNL     1     -46.676  59.333 -46.889  1.00  0.00    -0.237 NA
ENDBRANCH  13  14
ENDBRANCH   9  13
ENDBRANCH   1   7
BRANCH   4  20
HETATM   20  C   UNL     1     -42.652  55.023 -51.700  1.00  0.00     0.256 C 
HETATM   21  N   UNL     1     -41.477  54.820 -52.400  1.00  0.00    -0.323 N 
HETATM   22  H   UNL     1     -41.049  55.630 -52.829  1.00  0.00     0.169 HD
HETATM   23  O   UNL     1     -43.424  54.163 -51.295  1.00  0.00    -0.267 OA
BRANCH  21  24
HETATM   24  C   UNL     1     -40.831  53.589 -52.640  1.00  0.00     0.035 A 
HETATM   25  C   UNL     1     -40.120  52.881 -51.669  1.00  0.00     0.029 A 
HETATM   26  C   UNL     1     -39.476  51.683 -51.993  1.00  0.00     0.002 A 
HETATM   27  C   UNL     1     -39.538  51.181 -53.290  1.00  0.00     0.000 A 
HETATM   28  C   UNL     1     -40.245  51.878 -54.267  1.00  0.00     0.002 A 
HETATM   29  C   UNL     1     -40.885  53.077 -53.943  1.00  0.00     0.029 A 
ENDBRANCH  21  24
ENDBRANCH   4  20
TORSDOF 5
ENDMDL
MODEL 2
REMARK VINA RESULT:      -7.9     17.937     20.355
REMARK  5 active torsions:
REMARK  status: ('A' for Active; 'I' for Inactive)
REMARK    1  A    between atoms: C_6  and  C_7 
REMARK    2  A    between atoms: C_7  and  N_8 
REMARK       I    between atoms: N_8  and  C_9 
REMARK       I    between atoms: C_9  and  N_10 
REMARK    3  A    between atoms: N_10  and  C_11 
REMARK    4  A    between atoms: C_14  and  C_15 
REMARK       I    between atoms: C_15  and  N_16 
REMARK    5  A    between atoms: N_16  and  C_17 
ROOT
HETATM    1  C   UNL     1     -35.869  42.266 -54.959  1.00  0.00     0.036 A 
HETATM    2  C   UNL     1     -37.210  41.994 -55.237  1.00  0.00     0.030 A 
HETATM    3  C   UNL     1     -37.615  41.674 -56.539  1.00  0.00     0.019 A 
HETATM    4  C   UNL     1     -36.687  41.654 -57.586  1.00  0.00     0.032 A 
HETATM    5  C   UNL     1     -35.350  41.965 -57.321  1.00  0.00     0.019 A 
HETATM    6  C   UNL     1     -34.952  42.282 -56.017  1.00  0.00     0.030 A 
ENDROOT
BRANCH   1   7
HETATM    7  N   UNL     1     -35.359  42.552 -53.679  1.00  0.00    -0.309 N 
HETATM    8  C   UNL     1     -35.211  41.803 -52.552  1.00  0.00     0.321 C 
HETATM    9  N   UNL     1     -35.381  40.464 -52.650  1.00  0.00    -0.337 N 
HETATM   10  O   UNL     1     -34.886  42.353 -51.501  1.00  0.00    -0.247 OA
HETATM   11  H   UNL     1     -35.205  40.042 -53.551  1.00  0.00     0.164 HD
HETATM   12  H   UNL     1     -35.014  43.491 -53.527  1.00  0.00     0.170 HD
BRANCH   9  13
HETATM   13  C   UNL     1     -35.131  39.600 -51.522  1.00  0.00     0.186 C 
BRANCH  13  14
HETATM   14  C   UNL     1     -33.741  39.076 -51.597  1.00  0.00     0.083 A 
HETATM   15  C   UNL     1     -32.697  39.276 -50.717  1.00  0.00     0.076 A 
HETATM   16  C   UNL     1     -32.531  40.033 -49.463  1.00  0.00     0.079 C 
HETATM   17  O   UNL     1     -31.610  38.594 -51.188  1.00  0.00    -0.307 OA
HETATM   18  C   UNL     1     -32.054  38.021 -52.338  1.00  0.00     0.258 A 
HETATM   19  N   UNL     1     -33.304  38.280 -52.646  1.00  0.00    -0.237 NA
ENDBRANCH  13  14
ENDBRANCH   9  13
ENDBRANCH   1   7
BRANCH   4  20
HETATM   20  C   UNL     1     -37.145  41.238 -58.943  1.00  0.00     0.256 C 
HETATM   21  N   UNL     1     -37.285  39.874 -59.122  1.00  0.00    -0.323 N 
HETATM   22  H   UNL     1     -36.909  39.272 -58.401  1.00  0.00     0.169 HD
HETATM   23  O   UNL     1     -37.336  42.112 -59.780  1.00  0.00    -0.267 OA
BRANCH  21  24
HETATM   24  C   UNL     1     -37.844  39.214 -60.237  1.00  0.00     0.035 A 
HETATM   25  C   UNL     1     -37.247  39.178 -61.498  1.00  0.00     0.029 A 
HETATM   26  C   UNL     1     -37.880  38.532 -62.565  1.00  0.00     0.002 A 
HETATM   27  C   UNL     1     -39.115  37.917 -62.380  1.00  0.00     0.000 A 
HETATM   28  C   UNL     1     -39.720  37.946 -61.126  1.00  0.00     0.002 A 
HETATM   29  C   UNL     1     -39.088  38.594 -60.061  1.00  0.00     0.029 A 
ENDBRANCH  21  24
ENDBRANCH   4  20
TORSDOF 5
ENDMDL
MODEL 3
REMARK VINA RESULT:      -7.7      6.080      9.997
REMARK  5 active torsions:
REMARK  status: ('A' for Active; 'I' for Inactive)
REMARK    1  A    between atoms: C_6  and  C_7 
REMARK    2  A    between atoms: C_7  and  N_8 
REMARK       I    between atoms: N_8  and  C_9 
REMARK       I    between atoms: C_9  and  N_10 
REMARK    3  A    between atoms: N_10  and  C_11 
REMARK    4  A    between atoms: C_14  and  C_15 
REMARK       I    between atoms: C_15  and  N_16 
REMARK    5  A    between atoms: N_16  and  C_17 
ROOT
HETATM    1  C   UNL     1     -42.789  55.360 -54.333  1.00  0.00     0.036 A 
HETATM    2  C   UNL     1     -42.442  56.678 -54.635  1.00  0.00     0.030 A 
HETATM    3  C   UNL     1     -42.454  57.130 -55.960  1.00  0.00     0.019 A 
HETATM    4  C   UNL     1     -42.782  56.258 -57.004  1.00  0.00     0.032 A 
HETATM    5  C   UNL     1     -43.092  54.926 -56.712  1.00  0.00     0.019 A 
HETATM    6  C   UNL     1     -43.079  54.481 -55.384  1.00  0.00     0.030 A 
ENDROOT
BRANCH   1   7
HETATM    7  N   UNL     1     -42.850  54.827 -53.032  1.00  0.00    -0.309 N 
HETATM    8  C   UNL     1     -42.059  53.954 -52.350  1.00  0.00     0.321 C 
HETATM    9  N   UNL     1     -40.855  53.637 -52.881  1.00  0.00    -0.337 N 
HETATM   10  O   UNL     1     -42.437  53.520 -51.263  1.00  0.00    -0.247 OA
HETATM   11  H   UNL     1     -40.427  54.318 -53.492  1.00  0.00     0.164 HD
HETATM   12  H   UNL     1     -43.617  55.138 -52.449  1.00  0.00     0.170 HD
BRANCH   9  13
HETATM   13  C   UNL     1     -39.922  52.805 -52.160  1.00  0.00     0.186 C 
BRANCH  13  14
HETATM   14  C   UNL     1     -39.825  51.478 -52.826  1.00  0.00     0.083 A 
HETATM   15  C   UNL     1     -39.646  50.237 -52.249  1.00  0.00     0.076 A 
HETATM   16  C   UNL     1     -39.475  49.753 -50.868  1.00  0.00     0.079 C 
HETATM   17  O   UNL     1     -39.626  49.305 -53.249  1.00  0.00    -0.307 OA
HETATM   18  C   UNL     1     -39.788  50.036 -54.385  1.00  0.00     0.258 A 
HETATM   19  N   UNL     1     -39.896  51.332 -54.203  1.00  0.00    -0.237 NA
ENDBRANCH  13  14
ENDBRANCH   9  13
ENDBRANCH   1   7
BRANCH   4  20
HETATM   20  C   UNL     1     -42.855  56.796 -58.393  1.00  0.00     0.256 C 
HETATM   21  N   UNL     1     -43.156  58.143 -58.486  1.00  0.00    -0.323 N 
HETATM   22  H   UNL     1     -43.470  58.605 -57.642  1.00  0.00     0.169 HD
HETATM   23  O   UNL     1     -42.667  56.020 -59.322  1.00  0.00    -0.267 OA
BRANCH  21  24
HETATM   24  C   UNL     1     -43.137  58.942 -59.648  1.00  0.00     0.035 A 
HETATM   25  C   UNL     1     -41.966  59.372 -60.277  1.00  0.00     0.029 A 
HETATM   26  C   UNL     1     -42.028  60.192 -61.407  1.00  0.00     0.002 A 
HETATM   27  C   UNL     1     -43.260  60.589 -61.921  1.00  0.00     0.000 A 
HETATM   28  C   UNL     1     -44.434  60.166 -61.303  1.00  0.00     0.002 A 
HETATM   29  C   UNL     1     -44.371  59.349 -60.171  1.00  0.00     0.029 A 
ENDBRANCH  21  24
ENDBRANCH   4  20
TORSDOF 5
ENDMDL
MODEL 4
REMARK VINA RESULT:      -7.7     18.280     20.949
REMARK  5 active torsions:
REMARK  status: ('A' for Active; 'I' for Inactive)
REMARK    1  A    between atoms: C_6  and  C_7 
REMARK    2  A    between atoms: C_7  and  N_8 
REMARK       I    between atoms: N_8  and  C_9 
REMARK       I    between atoms: C_9  and  N_10 
REMARK    3  A    between atoms: N_10  and  C_11 
REMARK    4  A    between atoms: C_14  and  C_15 
REMARK       I    between atoms: C_15  and  N_16 
REMARK    5  A    between atoms: N_16  and  C_17 
ROOT
HETATM    1  C   UNL     1     -36.795  42.132 -57.150  1.00  0.00     0.036 A 
HETATM    2  C   UNL     1     -37.614  41.709 -56.101  1.00  0.00     0.030 A 
HETATM    3  C   UNL     1     -37.086  41.525 -54.817  1.00  0.00     0.019 A 
HETATM    4  C   UNL     1     -35.724  41.732 -54.574  1.00  0.00     0.032 A 
HETATM    5  C   UNL     1     -34.891  42.116 -55.629  1.00  0.00     0.019 A 
HETATM    6  C   UNL     1     -35.426  42.299 -56.910  1.00  0.00     0.030 A 
ENDROOT
BRANCH   1   7
HETATM    7  N   UNL     1     -37.241  42.386 -58.460  1.00  0.00    -0.309 N 
HETATM    8  C   UNL     1     -37.233  41.646 -59.602  1.00  0.00     0.321 C 
HETATM    9  N   UNL     1     -36.935  40.330 -59.505  1.00  0.00    -0.337 N 
HETATM   10  O   UNL     1     -37.539  42.178 -60.668  1.00  0.00    -0.247 OA
HETATM   11  H   UNL     1     -37.129  39.877 -58.624  1.00  0.00     0.164 HD
HETATM   12  H   UNL     1     -37.670  43.288 -58.627  1.00  0.00     0.170 HD
BRANCH   9  13
HETATM   13  C   UNL     1     -37.015  39.464 -60.657  1.00  0.00     0.186 C 
BRANCH  13  14
HETATM   14  C   UNL     1     -38.126  38.491 -60.469  1.00  0.00     0.083 A 
HETATM   15  C   UNL     1     -38.868  37.836 -61.431  1.00  0.00     0.076 A 
HETATM   16  C   UNL     1     -38.883  37.836 -62.904  1.00  0.00     0.079 C 
HETATM   17  O   UNL     1     -39.772  37.033 -60.792  1.00  0.00    -0.307 OA
HETATM   18  C   UNL     1     -39.532  37.252 -59.471  1.00  0.00     0.258 A 
HETATM   19  N   UNL     1     -38.579  38.118 -59.213  1.00  0.00    -0.237 NA
ENDBRANCH  13  14
ENDBRANCH   9  13
ENDBRANCH   1   7
BRANCH   4  20
HETATM   20  C   UNL     1     -35.215  41.597 -53.179  1.00  0.00     0.256 C 
HETATM   21  N   UNL     1     -34.534  40.423 -52.914  1.00  0.00    -0.323 N 
HETATM   22  H   UNL     1     -34.586  39.691 -53.611  1.00  0.00     0.169 HD
HETATM   23  O   UNL     1     -35.449  42.504 -52.389  1.00  0.00    -0.267 OA
BRANCH  21  24
HETATM   24  C   UNL     1     -33.818  40.099 -51.742  1.00  0.00     0.035 A 
HETATM   25  C   UNL     1     -34.414  39.630 -50.570  1.00  0.00     0.029 A 
HETATM   26  C   UNL     1     -33.640  39.364 -49.437  1.00  0.00     0.002 A 
HETATM   27  C   UNL     1     -32.263  39.564 -49.464  1.00  0.00     0.000 A 
HETATM   28  C   UNL     1     -31.656  40.031 -50.628  1.00  0.00     0.002 A 
HETATM   29  C   UNL     1     -32.431  40.300 -51.759  1.00  0.00     0.029 A 
ENDBRANCH  21  24
ENDBRANCH   4  20
TORSDOF 5
ENDMDL
MODEL 5
REMARK VINA RESULT:      -7.6      5.830      8.814
REMARK  5 active torsions:
REMARK  status: ('A' for Active; 'I' for Inactive)
REMARK    1  A    between atoms: C_6  and  C_7 
REMARK    2  A    between atoms: C_7  and  N_8 
REMARK       I    between atoms: N_8  and  C_9 
REMARK       I    between atoms: C_9  and  N_10 
REMARK    3  A    between atoms: N_10  and  C_11 
REMARK    4  A    between atoms: C_14  and  C_15 
REMARK       I    between atoms: C_15  and  N_16 
REMARK    5  A    between atoms: N_16  and  C_17 
ROOT
HETATM    1  C   UNL     1     -43.977  57.573 -55.468  1.00  0.00     0.036 A 
HETATM    2  C   UNL     1     -42.931  56.816 -55.999  1.00  0.00     0.030 A 
HETATM    3  C   UNL     1     -42.421  55.717 -55.296  1.00  0.00     0.019 A 
HETATM    4  C   UNL     1     -42.931  55.382 -54.037  1.00  0.00     0.032 A 
HETATM    5  C   UNL     1     -43.951  56.160 -53.483  1.00  0.00     0.019 A 
HETATM    6  C   UNL     1     -44.457  57.256 -54.191  1.00  0.00     0.030 A 
ENDROOT
BRANCH   1   7
HETATM    7  N   UNL     1     -44.585  58.664 -56.117  1.00  0.00    -0.309 N 
HETATM    8  C   UNL     1     -45.367  58.764 -57.225  1.00  0.00     0.321 C 
HETATM    9  N   UNL     1     -45.866  57.624 -57.757  1.00  0.00    -0.337 N 
HETATM   10  O   UNL     1     -45.632  59.876 -57.678  1.00  0.00    -0.247 OA
HETATM   11  H   UNL     1     -45.992  56.841 -57.133  1.00  0.00     0.164 HD
HETATM   12  H   UNL     1     -44.444  59.576 -55.700  1.00  0.00     0.170 HD
BRANCH   9  13
HETATM   13  C   UNL     1     -46.790  57.665 -58.865  1.00  0.00     0.186 C 
BRANCH  13  14
HETATM   14  C   UNL     1     -46.343  56.712 -59.918  1.00  0.00     0.083 A 
HETATM   15  C   UNL     1     -46.963  56.396 -61.110  1.00  0.00     0.076 A 
HETATM   16  C   UNL     1     -48.212  56.814 -61.771  1.00  0.00     0.079 C 
HETATM   17  O   UNL     1     -46.184  55.479 -61.760  1.00  0.00    -0.307 OA
HETATM   18  C   UNL     1     -45.133  55.284 -60.919  1.00  0.00     0.258 A 
HETATM   19  N   UNL     1     -45.176  55.973 -59.802  1.00  0.00    -0.237 NA
ENDBRANCH  13  14
ENDBRANCH   9  13
ENDBRANCH   1   7
BRANCH   4  20
HETATM   20  C   UNL     1     -42.412  54.162 -53.354  1.00  0.00     0.256 C 
HETATM   21  N   UNL     1     -41.513  53.414 -54.092  1.00  0.00    -0.323 N 
HETATM   22  H   UNL     1     -41.416  53.644 -55.072  1.00  0.00     0.169 HD
HETATM   23  O   UNL     1     -42.825  53.912 -52.228  1.00  0.00    -0.267 OA
BRANCH  21  24
HETATM   24  C   UNL     1     -40.753  52.312 -53.645  1.00  0.00     0.035 A 
HETATM   25  C   UNL     1     -40.643  51.108 -54.344  1.00  0.00     0.029 A 
HETATM   26  C   UNL     1     -39.898  50.048 -53.819  1.00  0.00     0.002 A 
HETATM   27  C   UNL     1     -39.256  50.182 -52.591  1.00  0.00     0.000 A 
HETATM   28  C   UNL     1     -39.358  51.378 -51.885  1.00  0.00     0.002 A 
HETATM   29  C   UNL     1     -40.105  52.436 -52.409  1.00  0.00     0.029 A 
ENDBRANCH  21  24
ENDBRANCH   4  20
TORSDOF 5
ENDMDL
MODEL 6
REMARK VINA RESULT:      -7.6      2.780      3.644
REMARK  5 active torsions:
REMARK  status: ('A' for Active; 'I' for Inactive)
REMARK    1  A    between atoms: C_6  and  C_7 
REMARK    2  A    between atoms: C_7  and  N_8 
REMARK       I    between atoms: N_8  and  C_9 
REMARK       I    between atoms: C_9  and  N_10 
REMARK    3  A    between atoms: N_10  and  C_11 
REMARK    4  A    between atoms: C_14  and  C_15 
REMARK       I    between atoms: C_15  and  N_16 
REMARK    5  A    between atoms: N_16  and  C_17 
ROOT
HETATM    1  C   UNL     1     -41.697  58.257 -51.338  1.00  0.00     0.036 A 
HETATM    2  C   UNL     1     -41.331  57.210 -50.490  1.00  0.00     0.030 A 
HETATM    3  C   UNL     1     -41.323  55.889 -50.954  1.00  0.00     0.019 A 
HETATM    4  C   UNL     1     -41.714  55.596 -52.265  1.00  0.00     0.032 A 
HETATM    5  C   UNL     1     -42.121  56.636 -53.107  1.00  0.00     0.019 A 
HETATM    6  C   UNL     1     -42.125  57.954 -52.637  1.00  0.00     0.030 A 
ENDROOT
BRANCH   1   7
HETATM    7  N   UNL     1     -41.693  59.617 -50.978  1.00  0.00    -0.309 N 
HETATM    8  C   UNL     1     -42.669  60.468 -50.558  1.00  0.00     0.321 C 
HETATM    9  N   UNL     1     -43.865  59.941 -50.207  1.00  0.00    -0.337 N 
HETATM   10  O   UNL     1     -42.423  61.670 -50.469  1.00  0.00    -0.247 OA
HETATM   11  H   UNL     1     -43.870  58.985 -49.882  1.00  0.00     0.164 HD
HETATM   12  H   UNL     1     -40.801  60.094 -51.014  1.00  0.00     0.170 HD
BRANCH   9  13
HETATM   13  C   UNL     1     -44.906  60.771 -49.651  1.00  0.00     0.186 C 
BRANCH  13  14
HETATM   14  C   UNL     1     -45.754  61.306 -50.751  1.00  0.00     0.083 A 
HETATM   15  C   UNL     1     -45.972  62.623 -51.106  1.00  0.00     0.076 A 
HETATM   16  C   UNL     1     -45.516  63.924 -50.587  1.00  0.00     0.079 C 
HETATM   17  O   UNL     1     -46.815  62.635 -52.183  1.00  0.00    -0.307 OA
HETATM   18  C   UNL     1     -47.069  61.320 -52.418  1.00  0.00     0.258 A 
HETATM   19  N   UNL     1     -46.482  60.481 -51.594  1.00  0.00    -0.237 NA
ENDBRANCH  13  14
ENDBRANCH   9  13
ENDBRANCH   1   7
BRANCH   4  20
HETATM   20  C   UNL     1     -41.622  54.186 -52.744  1.00  0.00     0.256 C 
HETATM   21  N   UNL     1     -40.389  53.586 -52.569  1.00  0.00    -0.323 N 
HETATM   22  H   UNL     1     -39.618  54.185 -52.303  1.00  0.00     0.169 HD
HETATM   23  O   UNL     1     -42.615  53.687 -53.260  1.00  0.00    -0.267 OA
BRANCH  21  24
HETATM   24  C   UNL     1     -40.063  52.230 -52.782  1.00  0.00     0.035 A 
HETATM   25  C   UNL     1     -40.029  51.627 -54.041  1.00  0.00     0.029 A 
HETATM   26  C   UNL     1     -39.731  50.267 -54.168  1.00  0.00     0.002 A 
HETATM   27  C   UNL     1     -39.464  49.497 -53.038  1.00  0.00     0.000 A 
HETATM   28  C   UNL     1     -39.495  50.089 -51.778  1.00  0.00     0.002 A 
HETATM   29  C   UNL     1     -39.796  51.448 -51.651  1.00  0.00     0.029 A 
ENDBRANCH  21  24
ENDBRANCH   4  20
TORSDOF 5
ENDMDL
MODEL 7
REMARK VINA RESULT:      -7.5      4.541      8.147
REMARK  5 active torsions:
REMARK  status: ('A' for Active; 'I' for Inactive)
REMARK    1  A    between atoms: C_6  and  C_7 
REMARK    2  A    between atoms: C_7  and  N_8 
REMARK       I    between atoms: N_8  and  C_9 
REMARK       I    between atoms: C_9  and  N_10 
REMARK    3  A    between atoms: N_10  and  C_11 
REMARK    4  A    between atoms: C_14  and  C_15 
REMARK       I    between atoms: C_15  and  N_16 
REMARK    5  A    between atoms: N_16  and  C_17 
ROOT
HETATM    1  C   UNL     1     -42.120  56.590 -51.102  1.00  0.00     0.036 A 
HETATM    2  C   UNL     1     -43.450  56.497 -51.517  1.00  0.00     0.030 A 
HETATM    3  C   UNL     1     -43.811  56.837 -52.827  1.00  0.00     0.019 A 
HETATM    4  C   UNL     1     -42.850  57.306 -53.728  1.00  0.00     0.032 A 
HETATM    5  C   UNL     1     -41.523  57.440 -53.307  1.00  0.00     0.019 A 
HETATM    6  C   UNL     1     -41.169  57.097 -51.997  1.00  0.00     0.030 A 
ENDROOT
BRANCH   1   7
HETATM    7  N   UNL     1     -41.654  56.229 -49.824  1.00  0.00    -0.309 N 
HETATM    8  C   UNL     1     -41.251  55.047 -49.285  1.00  0.00     0.321 C 
HETATM    9  N   UNL     1     -41.043  54.004 -50.121  1.00  0.00    -0.337 N 
HETATM   10  O   UNL     1     -41.046  54.975 -48.074  1.00  0.00    -0.247 OA
HETATM   11  H   UNL     1     -40.797  54.220 -51.076  1.00  0.00     0.164 HD
HETATM   12  H   UNL     1     -41.578  56.973 -49.142  1.00  0.00     0.170 HD
BRANCH   9  13
HETATM   13  C   UNL     1     -40.511  52.755 -49.631  1.00  0.00     0.186 C 
BRANCH  13  14
HETATM   14  C   UNL     1     -40.144  51.887 -50.784  1.00  0.00     0.083 A 
HETATM   15  C   UNL     1     -40.120  52.205 -52.127  1.00  0.00     0.076 A 
HETATM   16  C   UNL     1     -40.433  53.413 -52.910  1.00  0.00     0.079 C 
HETATM   17  O   UNL     1     -39.713  51.097 -52.816  1.00  0.00    -0.307 OA
HETATM   18  C   UNL     1     -39.518  50.160 -51.849  1.00  0.00     0.258 A 
HETATM   19  N   UNL     1     -39.772  50.561 -50.624  1.00  0.00    -0.237 NA
ENDBRANCH  13  14
ENDBRANCH   9  13
ENDBRANCH   1   7
BRANCH   4  20
HETATM   20  C   UNL     1     -43.261  57.588 -55.134  1.00  0.00     0.256 C 
HETATM   21  N   UNL     1     -42.330  57.245 -56.097  1.00  0.00    -0.323 N 
HETATM   22  H   UNL     1     -41.401  57.004 -55.777  1.00  0.00     0.169 HD
HETATM   23  O   UNL     1     -44.355  58.107 -55.322  1.00  0.00    -0.267 OA
BRANCH  21  24
HETATM   24  C   UNL     1     -42.509  57.254 -57.497  1.00  0.00     0.035 A 
HETATM   25  C   UNL     1     -42.208  58.346 -58.313  1.00  0.00     0.029 A 
HETATM   26  C   UNL     1     -42.446  58.291 -59.689  1.00  0.00     0.002 A 
HETATM   27  C   UNL     1     -42.987  57.143 -60.263  1.00  0.00     0.000 A 
HETATM   28  C   UNL     1     -43.291  56.048 -59.459  1.00  0.00     0.002 A 
HETATM   29  C   UNL     1     -43.056  56.105 -58.083  1.00  0.00     0.029 A 
ENDBRANCH  21  24
ENDBRANCH   4  20
TORSDOF 5
ENDMDL
MODEL 8
REMARK VINA RESULT:      -7.5      4.488      8.492
REMARK  5 active torsions:
REMARK  status: ('A' for Active; 'I' for Inactive)
REMARK    1  A    between atoms: C_6  and  C_7 
REMARK    2  A    between atoms: C_7  and  N_8 
REMARK       I    between atoms: N_8  and  C_9 
REMARK       I    between atoms: C_9  and  N_10 
REMARK    3  A    between atoms: N_10  and  C_11 
REMARK    4  A    between atoms: C_14  and  C_15 
REMARK       I    between atoms: C_15  and  N_16 
REMARK    5  A    between atoms: N_16  and  C_17 
ROOT
HETATM    1  C   UNL     1     -42.216  56.746 -51.250  1.00  0.00     0.036 A 
HETATM    2  C   UNL     1     -43.522  56.712 -51.742  1.00  0.00     0.030 A 
HETATM    3  C   UNL     1     -43.814  57.215 -53.016  1.00  0.00     0.019 A 
HETATM    4  C   UNL     1     -42.808  57.788 -53.800  1.00  0.00     0.032 A 
HETATM    5  C   UNL     1     -41.506  57.862 -53.297  1.00  0.00     0.019 A 
HETATM    6  C   UNL     1     -41.220  57.356 -52.023  1.00  0.00     0.030 A 
ENDROOT
BRANCH   1   7
HETATM    7  N   UNL     1     -41.816  56.227 -50.005  1.00  0.00    -0.309 N 
HETATM    8  C   UNL     1     -41.313  55.021 -49.622  1.00  0.00     0.321 C 
HETATM    9  N   UNL     1     -40.906  54.166 -50.588  1.00  0.00    -0.337 N 
HETATM   10  O   UNL     1     -41.203  54.767 -48.424  1.00  0.00    -0.247 OA
HETATM   11  H   UNL     1     -40.610  54.568 -51.465  1.00  0.00     0.164 HD
HETATM   12  H   UNL     1     -41.893  56.847 -49.208  1.00  0.00     0.170 HD
BRANCH   9  13
HETATM   13  C   UNL     1     -40.263  52.918 -50.251  1.00  0.00     0.186 C 
BRANCH  13  14
HETATM   14  C   UNL     1     -39.996  52.147 -51.496  1.00  0.00     0.083 A 
HETATM   15  C   UNL     1     -39.678  50.810 -51.628  1.00  0.00     0.076 A 
HETATM   16  C   UNL     1     -39.474  49.697 -50.685  1.00  0.00     0.079 C 
HETATM   17  O   UNL     1     -39.530  50.541 -52.960  1.00  0.00    -0.307 OA
HETATM   18  C   UNL     1     -39.759  51.738 -53.566  1.00  0.00     0.258 A 
HETATM   19  N   UNL     1     -40.026  52.734 -52.752  1.00  0.00    -0.237 NA
ENDBRANCH  13  14
ENDBRANCH   9  13
ENDBRANCH   1   7
BRANCH   4  20
HETATM   20  C   UNL     1     -43.145  58.246 -55.180  1.00  0.00     0.256 C 
HETATM   21  N   UNL     1     -42.262  57.842 -56.164  1.00  0.00    -0.323 N 
HETATM   22  H   UNL     1     -41.388  57.432 -55.860  1.00  0.00     0.169 HD
HETATM   23  O   UNL     1     -44.142  58.942 -55.328  1.00  0.00    -0.267 OA
BRANCH  21  24
HETATM   24  C   UNL     1     -42.413  57.994 -57.558  1.00  0.00     0.035 A 
HETATM   25  C   UNL     1     -42.917  56.999 -58.399  1.00  0.00     0.029 A 
HETATM   26  C   UNL     1     -43.005  57.212 -59.778  1.00  0.00     0.002 A 
HETATM   27  C   UNL     1     -42.589  58.422 -60.329  1.00  0.00     0.000 A 
HETATM   28  C   UNL     1     -42.085  59.421 -59.501  1.00  0.00     0.002 A 
HETATM   29  C   UNL     1     -41.995  59.206 -58.123  1.00  0.00     0.029 A 
ENDBRANCH  21  24
ENDBRANCH   4  20
TORSDOF 5
ENDMDL
MODEL 9
REMARK VINA RESULT:      -7.4     18.062     20.825
REMARK  5 active torsions:
REMARK  status: ('A' for Active; 'I' for Inactive)
REMARK    1  A    between atoms: C_6  and  C_7 
REMARK    2  A    between atoms: C_7  and  N_8 
REMARK       I    between atoms: N_8  and  C_9 
REMARK       I    between atoms: C_9  and  N_10 
REMARK    3  A    between atoms: N_10  and  C_11 
REMARK    4  A    between atoms: C_14  and  C_15 
REMARK       I    between atoms: C_15  and  N_16 
REMARK    5  A    between atoms: N_16  and  C_17 
ROOT
HETATM    1  C   UNL     1     -36.553  41.975 -55.040  1.00  0.00     0.036 A 
HETATM    2  C   UNL     1     -37.736  41.335 -55.416  1.00  0.00     0.030 A 
HETATM    3  C   UNL     1     -37.991  41.047 -56.762  1.00  0.00     0.019 A 
HETATM    4  C   UNL     1     -37.079  41.426 -57.754  1.00  0.00     0.032 A 
HETATM    5  C   UNL     1     -35.912  42.103 -57.387  1.00  0.00     0.019 A 
HETATM    6  C   UNL     1     -35.663  42.386 -56.040  1.00  0.00     0.030 A 
ENDROOT
BRANCH   1   7
HETATM    7  N   UNL     1     -36.188  42.265 -53.712  1.00  0.00    -0.309 N 
HETATM    8  C   UNL     1     -35.229  41.766 -52.885  1.00  0.00     0.321 C 
HETATM    9  N   UNL     1     -34.274  40.972 -53.423  1.00  0.00    -0.337 N 
HETATM   10  O   UNL     1     -35.233  42.085 -51.697  1.00  0.00    -0.247 OA
HETATM   11  H   UNL     1     -34.063  41.104 -54.401  1.00  0.00     0.164 HD
HETATM   12  H   UNL     1     -36.713  42.993 -53.246  1.00  0.00     0.170 HD
BRANCH   9  13
HETATM   13  C   UNL     1     -33.168  40.499 -52.627  1.00  0.00     0.186 C 
BRANCH  13  14
HETATM   14  C   UNL     1     -32.413  39.469 -53.390  1.00  0.00     0.083 A 
HETATM   15  C   UNL     1     -32.132  39.433 -54.741  1.00  0.00     0.076 A 
HETATM   16  C   UNL     1     -32.445  40.306 -55.886  1.00  0.00     0.079 C 
HETATM   17  O   UNL     1     -31.406  38.302 -54.992  1.00  0.00    -0.307 OA
HETATM   18  C   UNL     1     -31.292  37.707 -53.774  1.00  0.00     0.258 A 
HETATM   19  N   UNL     1     -31.881  38.340 -52.786  1.00  0.00    -0.237 NA
ENDBRANCH  13  14
ENDBRANCH   9  13
ENDBRANCH   1   7
BRANCH   4  20
HETATM   20  C   UNL     1     -37.353  41.037 -59.168  1.00  0.00     0.256 C 
HETATM   21  N   UNL     1     -37.536  39.683 -59.378  1.00  0.00    -0.323 N 
HETATM   22  H   UNL     1     -37.302  39.061 -58.615  1.00  0.00     0.169 HD
HETATM   23  O   UNL     1     -37.374  41.921 -60.015  1.00  0.00    -0.267 OA
BRANCH  21  24
HETATM   24  C   UNL     1     -37.958  39.056 -60.570  1.00  0.00     0.035 A 
HETATM   25  C   UNL     1     -37.203  39.029 -61.744  1.00  0.00     0.029 A 
HETATM   26  C   UNL     1     -37.705  38.416 -62.896  1.00  0.00     0.002 A 
HETATM   27  C   UNL     1     -38.965  37.825 -62.886  1.00  0.00     0.000 A 
HETATM   28  C   UNL     1     -39.727  37.846 -61.720  1.00  0.00     0.002 A 
HETATM   29  C   UNL     1     -39.226  38.461 -60.569  1.00  0.00     0.029 A 
ENDBRANCH  21  24
ENDBRANCH   4  20
TORSDOF 5
ENDMDL
MODEL 10
REMARK VINA RESULT:      -7.4     17.896     20.554
REMARK  5 active torsions:
REMARK  status: ('A' for Active; 'I' for Inactive)
REMARK    1  A    between atoms: C_6  and  C_7 
REMARK    2  A    between atoms: C_7  and  N_8 
REMARK       I    between atoms: N_8  and  C_9 
REMARK       I    between atoms: C_9  and  N_10 
REMARK    3  A    between atoms: N_10  and  C_11 
REMARK    4  A    between atoms: C_14  and  C_15 
REMARK       I    between atoms: C_15  and  N_16 
REMARK    5  A    between atoms: N_16  and  C_17 
ROOT
HETATM    1  C   UNL     1     -37.070  41.773 -56.232  1.00  0.00     0.036 A 
HETATM    2  C   UNL     1     -38.230  41.007 -56.371  1.00  0.00     0.030 A 
HETATM    3  C   UNL     1     -38.525  40.379 -57.587  1.00  0.00     0.019 A 
HETATM    4  C   UNL     1     -37.680  40.537 -58.690  1.00  0.00     0.032 A 
HETATM    5  C   UNL     1     -36.538  41.336 -58.570  1.00  0.00     0.019 A 
HETATM    6  C   UNL     1     -36.248  41.959 -57.350  1.00  0.00     0.030 A 
ENDROOT
BRANCH   1   7
HETATM    7  N   UNL     1     -36.666  42.403 -55.041  1.00  0.00    -0.309 N 
HETATM    8  C   UNL     1     -36.258  41.927 -53.833  1.00  0.00     0.321 C 
HETATM    9  N   UNL     1     -35.972  40.608 -53.732  1.00  0.00    -0.337 N 
HETATM   10  O   UNL     1     -36.119  42.708 -52.893  1.00  0.00    -0.247 OA
HETATM   11  H   UNL     1     -35.679  40.135 -54.574  1.00  0.00     0.164 HD
HETATM   12  H   UNL     1     -36.652  43.415 -55.045  1.00  0.00     0.170 HD
BRANCH   9  13
HETATM   13  C   UNL     1     -35.431  40.058 -52.513  1.00  0.00     0.186 C 
BRANCH  13  14
HETATM   14  C   UNL     1     -33.944  40.068 -52.582  1.00  0.00     0.083 A 
HETATM   15  C   UNL     1     -33.036  40.194 -51.550  1.00  0.00     0.076 A 
HETATM   16  C   UNL     1     -33.144  40.372 -50.092  1.00  0.00     0.079 C 
HETATM   17  O   UNL     1     -31.779  40.140 -52.086  1.00  0.00    -0.307 OA
HETATM   18  C   UNL     1     -31.995  39.990 -53.420  1.00  0.00     0.258 A 
HETATM   19  N   UNL     1     -33.258  39.956 -53.781  1.00  0.00    -0.237 NA
ENDBRANCH  13  14
ENDBRANCH   9  13
ENDBRANCH   1   7
BRANCH   4  20
HETATM   20  C   UNL     1     -37.991  39.794 -59.946  1.00  0.00     0.256 C 
HETATM   21  N   UNL     1     -38.941  38.797 -59.817  1.00  0.00    -0.323 N 
HETATM   22  H   UNL     1     -39.214  38.537 -58.878  1.00  0.00     0.169 HD
HETATM   23  O   UNL     1     -37.382  40.101 -60.963  1.00  0.00    -0.267 OA
BRANCH  21  24
HETATM   24  C   UNL     1     -39.536  38.049 -60.855  1.00  0.00     0.035 A 
HETATM   25  C   UNL     1     -38.813  37.356 -61.827  1.00  0.00     0.029 A 
HETATM   26  C   UNL     1     -39.475  36.664 -62.846  1.00  0.00     0.002 A 
HETATM   27  C   UNL     1     -40.867  36.660 -62.902  1.00  0.00     0.000 A 
HETATM   28  C   UNL     1     -41.598  37.347 -61.938  1.00  0.00     0.002 A 
HETATM   29  C   UNL     1     -40.936  38.041 -60.921  1.00  0.00     0.029 A 
ENDBRANCH  21  24
ENDBRANCH   4  20
TORSDOF 5
ENDMDL
