MODEL 1
REMARK VINA RESULT:      -8.9      0.000      0.000
REMARK  6 active torsions:
REMARK  status: ('A' for Active; 'I' for Inactive)
REMARK    1  A    between atoms: C_4  and  C_5 
REMARK    2  A    between atoms: C_6  and  N_7 
REMARK    3  A    between atoms: C_9  and  C_10 
REMARK       I    between atoms: C_10  and  N_11 
REMARK    4  A    between atoms: N_11  and  C_12 
REMARK    5  A    between atoms: C_12  and  C_13 
REMARK    6  A    between atoms: C_13  and  N_14 
ROOT
HETATM    1  C   UNL     1     -41.454  53.956 -52.392  1.00  0.00     0.019 A 
HETATM    2  C   UNL     1     -41.771  54.677 -51.281  1.00  0.00     0.111 A 
HETATM    3  C   UNL     1     -41.305  54.162 -49.917  1.00  0.00     0.273 A 
HETATM    4  O   UNL     1     -41.507  54.780 -48.870  1.00  0.00    -0.266 OA
HETATM    5  N   UNL     1     -40.645  52.971 -49.873  1.00  0.00    -0.321 N 
HETATM    6  C   UNL     1     -40.338  52.211 -50.995  1.00  0.00     0.046 A 
HETATM    7  C   UNL     1     -40.710  52.672 -52.261  1.00  0.00     0.006 A 
HETATM    8  C   UNL     1     -39.656  51.002 -50.829  1.00  0.00     0.032 A 
HETATM    9  C   UNL     1     -39.334  50.231 -51.945  1.00  0.00     0.026 A 
HETATM   10  C   UNL     1     -39.689  50.681 -53.214  1.00  0.00     0.035 A 
HETATM   11 CL   UNL     1     -39.290  49.734 -54.594  1.00  0.00    -0.084 Cl
HETATM   12  C   UNL     1     -40.367  51.890 -53.376  1.00  0.00     0.038 A 
HETATM   13  H   UNL     1     -40.372  52.657 -48.951  1.00  0.00     0.169 HD
ENDROOT
BRANCH   2  14
HETATM   14  N   UNL     1     -42.536  55.878 -51.303  1.00  0.00    -0.375 N 
HETATM   15  C   UNL     1     -41.882  57.176 -51.052  1.00  0.00     0.137 C 
HETATM   16  C   UNL     1     -42.704  58.308 -51.678  1.00  0.00     0.096 C 
HETATM   17  C   UNL     1     -44.143  58.284 -51.148  1.00  0.00     0.017 C 
HETATM   18  C   UNL     1     -44.766  56.903 -51.334  1.00  0.00     0.021 C 
HETATM   19  C   UNL     1     -43.890  55.820 -50.710  1.00  0.00     0.123 C 
BRANCH  16  20
HETATM   20  C   UNL     1     -42.016  59.622 -51.347  1.00  0.00     0.223 C 
HETATM   21  N   UNL     1     -42.764  60.494 -50.590  1.00  0.00    -0.359 N 
HETATM   22  H   UNL     1     -43.725  60.219 -50.395  1.00  0.00     0.162 HD
HETATM   23  O   UNL     1     -40.890  59.920 -51.742  1.00  0.00    -0.273 OA
BRANCH  21  24
HETATM   24  C   UNL     1     -42.441  61.903 -50.382  1.00  0.00     0.150 C 
BRANCH  24  25
HETATM   25  C   UNL     1     -43.631  62.879 -50.238  1.00  0.00     0.254 C 
BRANCH  25  26
HETATM   26  N   UNL     1     -44.318  62.785 -48.897  1.00  0.00    -0.066 N 
HETATM   27  H   UNL     1     -43.652  62.277 -48.275  1.00  0.00     0.280 HD
HETATM   28  C   UNL     1     -44.591  64.117 -48.221  1.00  0.00     0.261 C 
HETATM   29  C   UNL     1     -45.226  63.877 -46.846  1.00  0.00     0.195 C 
HETATM   30  O   UNL     1     -46.428  63.108 -46.965  1.00  0.00    -0.388 OA
HETATM   31  C   UNL     1     -46.164  61.815 -47.525  1.00  0.00     0.195 C 
HETATM   32  C   UNL     1     -45.579  61.939 -48.936  1.00  0.00     0.261 C 
ENDBRANCH  25  26
ENDBRANCH  24  25
ENDBRANCH  21  24
ENDBRANCH  16  20
ENDBRANCH   2  14
BRANCH   1  33
HETATM   33  C   UNL     1     -41.855  54.509 -53.715  1.00  0.00    -0.023 A 
HETATM   34  C   UNL     1     -41.105  55.536 -54.306  1.00  0.00     0.012 A 
HETATM   35  C   UNL     1     -41.457  56.031 -55.563  1.00  0.00     0.001 A 
HETATM   36  C   UNL     1     -42.557  55.505 -56.237  1.00  0.00     0.000 A 
HETATM   37  C   UNL     1     -43.307  54.481 -55.659  1.00  0.00     0.001 A 
HETATM   38  C   UNL     1     -42.955  53.980 -54.404  1.00  0.00     0.012 A 
ENDBRANCH   1  33
TORSDOF 6
ENDMDL
MODEL 2
REMARK VINA RESULT:      -8.6      1.742      2.119
REMARK  6 active torsions:
REMARK  status: ('A' for Active; 'I' for Inactive)
REMARK    1  A    between atoms: C_4  and  C_5 
REMARK    2  A    between atoms: C_6  and  N_7 
REMARK    3  A    between atoms: C_9  and  C_10 
REMARK       I    between atoms: C_10  and  N_11 
REMARK    4  A    between atoms: N_11  and  C_12 
REMARK    5  A    between atoms: C_12  and  C_13 
REMARK    6  A    between atoms: C_13  and  N_14 
ROOT
HETATM    1  C   UNL     1     -41.483  54.057 -52.392  1.00  0.00     0.019 A 
HETATM    2  C   UNL     1     -41.807  54.775 -51.282  1.00  0.00     0.111 A 
HETATM    3  C   UNL     1     -41.345  54.260 -49.917  1.00  0.00     0.273 A 
HETATM    4  O   UNL     1     -41.553  54.875 -48.870  1.00  0.00    -0.266 OA
HETATM    5  N   UNL     1     -40.679  53.071 -49.872  1.00  0.00    -0.321 N 
HETATM    6  C   UNL     1     -40.365  52.314 -50.993  1.00  0.00     0.046 A 
HETATM    7  C   UNL     1     -40.734  52.776 -52.261  1.00  0.00     0.006 A 
HETATM    8  C   UNL     1     -39.679  51.108 -50.827  1.00  0.00     0.032 A 
HETATM    9  C   UNL     1     -39.349  50.340 -51.942  1.00  0.00     0.026 A 
HETATM   10  C   UNL     1     -39.701  50.790 -53.212  1.00  0.00     0.035 A 
HETATM   11 CL   UNL     1     -39.292  49.847 -54.592  1.00  0.00    -0.084 Cl
HETATM   12  C   UNL     1     -40.383  51.997 -53.376  1.00  0.00     0.038 A 
HETATM   13  H   UNL     1     -40.410  52.758 -48.949  1.00  0.00     0.169 HD
ENDROOT
BRANCH   2  14
HETATM   14  N   UNL     1     -42.576  55.973 -51.306  1.00  0.00    -0.375 N 
HETATM   15  C   UNL     1     -41.926  57.275 -51.067  1.00  0.00     0.137 C 
HETATM   16  C   UNL     1     -42.757  58.400 -51.693  1.00  0.00     0.096 C 
HETATM   17  C   UNL     1     -44.192  58.374 -51.152  1.00  0.00     0.017 C 
HETATM   18  C   UNL     1     -44.811  56.989 -51.325  1.00  0.00     0.021 C 
HETATM   19  C   UNL     1     -43.926  55.914 -50.701  1.00  0.00     0.123 C 
BRANCH  16  20
HETATM   20  C   UNL     1     -42.072  59.719 -51.376  1.00  0.00     0.223 C 
HETATM   21  N   UNL     1     -42.828  60.603 -50.642  1.00  0.00    -0.359 N 
HETATM   22  H   UNL     1     -43.791  60.332 -50.454  1.00  0.00     0.162 HD
HETATM   23  O   UNL     1     -40.941  60.009 -51.763  1.00  0.00    -0.273 OA
BRANCH  21  24
HETATM   24  C   UNL     1     -42.505  62.015 -50.453  1.00  0.00     0.150 C 
BRANCH  24  25
HETATM   25  C   UNL     1     -43.434  63.042 -51.142  1.00  0.00     0.254 C 
BRANCH  25  26
HETATM   26  N   UNL     1     -44.654  62.412 -51.769  1.00  0.00    -0.066 N 
HETATM   27  H   UNL     1     -44.635  61.411 -51.477  1.00  0.00     0.280 HD
HETATM   28  C   UNL     1     -45.983  62.966 -51.285  1.00  0.00     0.261 C 
HETATM   29  C   UNL     1     -47.133  62.198 -51.947  1.00  0.00     0.195 C 
HETATM   30  O   UNL     1     -47.039  62.267 -53.374  1.00  0.00    -0.388 OA
HETATM   31  C   UNL     1     -45.825  61.669 -53.844  1.00  0.00     0.195 C 
HETATM   32  C   UNL     1     -44.601  62.405 -53.287  1.00  0.00     0.261 C 
ENDBRANCH  25  26
ENDBRANCH  24  25
ENDBRANCH  21  24
ENDBRANCH  16  20
ENDBRANCH   2  14
BRANCH   1  33
HETATM   33  C   UNL     1     -41.880  54.610 -53.717  1.00  0.00    -0.023 A 
HETATM   34  C   UNL     1     -41.096  55.595 -54.333  1.00  0.00     0.012 A 
HETATM   35  C   UNL     1     -41.446  56.089 -55.591  1.00  0.00     0.001 A 
HETATM   36  C   UNL     1     -42.579  55.604 -56.241  1.00  0.00     0.000 A 
HETATM   37  C   UNL     1     -43.364  54.622 -55.637  1.00  0.00     0.001 A 
HETATM   38  C   UNL     1     -43.014  54.122 -54.381  1.00  0.00     0.012 A 
ENDBRANCH   1  33
TORSDOF 6
ENDMDL
MODEL 3
REMARK VINA RESULT:      -8.4      4.399      7.985
REMARK  6 active torsions:
REMARK  status: ('A' for Active; 'I' for Inactive)
REMARK    1  A    between atoms: C_4  and  C_5 
REMARK    2  A    between atoms: C_6  and  N_7 
REMARK    3  A    between atoms: C_9  and  C_10 
REMARK       I    between atoms: C_10  and  N_11 
REMARK    4  A    between atoms: N_11  and  C_12 
REMARK    5  A    between atoms: C_12  and  C_13 
REMARK    6  A    between atoms: C_13  and  N_14 
ROOT
HETATM    1  C   UNL     1     -42.202  57.158 -52.498  1.00  0.00     0.019 A 
HETATM    2  C   UNL     1     -42.310  57.237 -53.853  1.00  0.00     0.111 A 
HETATM    3  C   UNL     1     -41.862  56.039 -54.694  1.00  0.00     0.273 A 
HETATM    4  O   UNL     1     -41.973  56.010 -55.920  1.00  0.00    -0.266 OA
HETATM    5  N   UNL     1     -41.318  54.970 -54.047  1.00  0.00    -0.321 N 
HETATM    6  C   UNL     1     -41.176  54.886 -52.668  1.00  0.00     0.046 A 
HETATM    7  C   UNL     1     -41.615  55.944 -51.865  1.00  0.00     0.006 A 
HETATM    8  C   UNL     1     -40.602  53.738 -52.113  1.00  0.00     0.032 A 
HETATM    9  C   UNL     1     -40.460  53.635 -50.731  1.00  0.00     0.026 A 
HETATM   10  C   UNL     1     -40.901  54.675 -49.917  1.00  0.00     0.035 A 
HETATM   11 CL   UNL     1     -40.730  54.549 -48.209  1.00  0.00    -0.084 Cl
HETATM   12  C   UNL     1     -41.476  55.819 -50.473  1.00  0.00     0.038 A 
HETATM   13  H   UNL     1     -41.017  54.208 -54.641  1.00  0.00     0.169 HD
ENDROOT
BRANCH   2  14
HETATM   14  N   UNL     1     -42.795  58.382 -54.547  1.00  0.00    -0.375 N 
HETATM   15  C   UNL     1     -44.030  58.293 -55.348  1.00  0.00     0.137 C 
HETATM   16  C   UNL     1     -44.658  59.682 -55.502  1.00  0.00     0.096 C 
HETATM   17  C   UNL     1     -43.651  60.662 -56.116  1.00  0.00     0.017 C 
HETATM   18  C   UNL     1     -42.346  60.667 -55.324  1.00  0.00     0.021 C 
HETATM   19  C   UNL     1     -41.786  59.254 -55.187  1.00  0.00     0.123 C 
BRANCH  16  20
HETATM   20  C   UNL     1     -45.894  59.542 -56.375  1.00  0.00     0.223 C 
HETATM   21  N   UNL     1     -46.331  58.251 -56.559  1.00  0.00    -0.359 N 
HETATM   22  H   UNL     1     -45.747  57.513 -56.171  1.00  0.00     0.162 HD
HETATM   23  O   UNL     1     -46.459  60.493 -56.914  1.00  0.00    -0.273 OA
BRANCH  21  24
HETATM   24  C   UNL     1     -47.309  57.839 -57.563  1.00  0.00     0.150 C 
BRANCH  24  25
HETATM   25  C   UNL     1     -46.798  57.680 -59.013  1.00  0.00     0.254 C 
BRANCH  25  26
HETATM   26  N   UNL     1     -45.718  56.634 -59.150  1.00  0.00    -0.066 N 
HETATM   27  H   UNL     1     -45.768  56.062 -58.279  1.00  0.00     0.280 HD
HETATM   28  C   UNL     1     -45.909  55.661 -60.302  1.00  0.00     0.261 C 
HETATM   29  C   UNL     1     -44.787  54.617 -60.286  1.00  0.00     0.195 C 
HETATM   30  O   UNL     1     -43.502  55.247 -60.356  1.00  0.00    -0.388 OA
HETATM   31  C   UNL     1     -43.281  56.101 -59.227  1.00  0.00     0.195 C 
HETATM   32  C   UNL     1     -44.321  57.227 -59.181  1.00  0.00     0.261 C 
ENDBRANCH  25  26
ENDBRANCH  24  25
ENDBRANCH  21  24
ENDBRANCH  16  20
ENDBRANCH   2  14
BRANCH   1  33
HETATM   33  C   UNL     1     -42.708  58.304 -51.693  1.00  0.00    -0.023 A 
HETATM   34  C   UNL     1     -41.819  59.275 -51.213  1.00  0.00     0.012 A 
HETATM   35  C   UNL     1     -42.294  60.370 -50.489  1.00  0.00     0.001 A 
HETATM   36  C   UNL     1     -43.659  60.502 -50.241  1.00  0.00     0.000 A 
HETATM   37  C   UNL     1     -44.552  59.543 -50.717  1.00  0.00     0.001 A 
HETATM   38  C   UNL     1     -44.081  58.449 -51.445  1.00  0.00     0.012 A 
ENDBRANCH   1  33
TORSDOF 6
ENDMDL
MODEL 4
REMARK VINA RESULT:      -8.4      2.874      4.503
REMARK  6 active torsions:
REMARK  status: ('A' for Active; 'I' for Inactive)
REMARK    1  A    between atoms: C_4  and  C_5 
REMARK    2  A    between atoms: C_6  and  N_7 
REMARK    3  A    between atoms: C_9  and  C_10 
REMARK       I    between atoms: C_10  and  N_11 
REMARK    4  A    between atoms: N_11  and  C_12 
REMARK    5  A    between atoms: C_12  and  C_13 
REMARK    6  A    between atoms: C_13  and  N_14 
ROOT
HETATM    1  C   UNL     1     -41.602  54.219 -52.737  1.00  0.00     0.019 A 
HETATM    2  C   UNL     1     -41.915  55.027 -51.686  1.00  0.00     0.111 A 
HETATM    3  C   UNL     1     -41.395  54.653 -50.295  1.00  0.00     0.273 A 
HETATM    4  O   UNL     1     -41.592  55.356 -49.303  1.00  0.00    -0.266 OA
HETATM    5  N   UNL     1     -40.692  53.493 -50.164  1.00  0.00    -0.321 N 
HETATM    6  C   UNL     1     -40.387  52.645 -51.222  1.00  0.00     0.046 A 
HETATM    7  C   UNL     1     -40.809  52.978 -52.514  1.00  0.00     0.006 A 
HETATM    8  C   UNL     1     -39.659  51.480 -50.969  1.00  0.00     0.032 A 
HETATM    9  C   UNL     1     -39.338  50.623 -52.020  1.00  0.00     0.026 A 
HETATM   10  C   UNL     1     -39.742  50.943 -53.314  1.00  0.00     0.035 A 
HETATM   11 CL   UNL     1     -39.345  49.890 -54.615  1.00  0.00    -0.084 Cl
HETATM   12  C   UNL     1     -40.467  52.110 -53.564  1.00  0.00     0.038 A 
HETATM   13  H   UNL     1     -40.384  53.274 -49.226  1.00  0.00     0.169 HD
ENDROOT
BRANCH   2  14
HETATM   14  N   UNL     1     -42.722  56.195 -51.793  1.00  0.00    -0.375 N 
HETATM   15  C   UNL     1     -42.105  57.493 -52.122  1.00  0.00     0.137 C 
HETATM   16  C   UNL     1     -43.148  58.429 -52.741  1.00  0.00     0.096 C 
HETATM   17  C   UNL     1     -44.350  58.591 -51.803  1.00  0.00     0.017 C 
HETATM   18  C   UNL     1     -44.913  57.231 -51.402  1.00  0.00     0.021 C 
HETATM   19  C   UNL     1     -43.822  56.340 -50.814  1.00  0.00     0.123 C 
BRANCH  16  20
HETATM   20  C   UNL     1     -42.475  59.764 -53.012  1.00  0.00     0.223 C 
HETATM   21  N   UNL     1     -43.334  60.798 -53.303  1.00  0.00    -0.359 N 
HETATM   22  H   UNL     1     -44.320  60.560 -53.392  1.00  0.00     0.162 HD
HETATM   23  O   UNL     1     -41.255  59.925 -53.010  1.00  0.00    -0.273 OA
BRANCH  21  24
HETATM   24  C   UNL     1     -42.928  62.085 -53.862  1.00  0.00     0.150 C 
BRANCH  24  25
HETATM   25  C   UNL     1     -43.139  62.284 -55.381  1.00  0.00     0.254 C 
BRANCH  25  26
HETATM   26  N   UNL     1     -43.080  60.995 -56.163  1.00  0.00    -0.066 N 
HETATM   27  H   UNL     1     -42.812  60.259 -55.474  1.00  0.00     0.280 HD
HETATM   28  C   UNL     1     -44.402  60.545 -56.762  1.00  0.00     0.261 C 
HETATM   29  C   UNL     1     -44.217  59.197 -57.467  1.00  0.00     0.195 C 
HETATM   30  O   UNL     1     -43.203  59.282 -58.475  1.00  0.00    -0.388 OA
HETATM   31  C   UNL     1     -41.933  59.623 -57.905  1.00  0.00     0.195 C 
HETATM   32  C   UNL     1     -41.990  60.994 -57.220  1.00  0.00     0.261 C 
ENDBRANCH  25  26
ENDBRANCH  24  25
ENDBRANCH  21  24
ENDBRANCH  16  20
ENDBRANCH   2  14
BRANCH   1  33
HETATM   33  C   UNL     1     -42.056  54.636 -54.092  1.00  0.00    -0.023 A 
HETATM   34  C   UNL     1     -41.296  55.546 -54.841  1.00  0.00     0.012 A 
HETATM   35  C   UNL     1     -41.701  55.911 -56.126  1.00  0.00     0.001 A 
HETATM   36  C   UNL     1     -42.864  55.371 -56.672  1.00  0.00     0.000 A 
HETATM   37  C   UNL     1     -43.624  54.463 -55.936  1.00  0.00     0.001 A 
HETATM   38  C   UNL     1     -43.220  54.092 -54.652  1.00  0.00     0.012 A 
ENDBRANCH   1  33
TORSDOF 6
ENDMDL
MODEL 5
REMARK VINA RESULT:      -8.3      4.219      7.107
REMARK  6 active torsions:
REMARK  status: ('A' for Active; 'I' for Inactive)
REMARK    1  A    between atoms: C_4  and  C_5 
REMARK    2  A    between atoms: C_6  and  N_7 
REMARK    3  A    between atoms: C_9  and  C_10 
REMARK       I    between atoms: C_10  and  N_11 
REMARK    4  A    between atoms: N_11  and  C_12 
REMARK    5  A    between atoms: C_12  and  C_13 
REMARK    6  A    between atoms: C_13  and  N_14 
ROOT
HETATM    1  C   UNL     1     -40.809  53.736 -52.670  1.00  0.00     0.019 A 
HETATM    2  C   UNL     1     -41.147  54.567 -53.694  1.00  0.00     0.111 A 
HETATM    3  C   UNL     1     -41.076  54.032 -55.126  1.00  0.00     0.273 A 
HETATM    4  O   UNL     1     -41.412  54.702 -56.103  1.00  0.00    -0.266 OA
HETATM    5  N   UNL     1     -40.618  52.761 -55.313  1.00  0.00    -0.321 N 
HETATM    6  C   UNL     1     -40.243  51.910 -54.281  1.00  0.00     0.046 A 
HETATM    7  C   UNL     1     -40.337  52.352 -52.957  1.00  0.00     0.006 A 
HETATM    8  C   UNL     1     -39.787  50.626 -54.592  1.00  0.00     0.032 A 
HETATM    9  C   UNL     1     -39.415  49.758 -53.568  1.00  0.00     0.026 A 
HETATM   10  C   UNL     1     -39.511  50.178 -52.244  1.00  0.00     0.035 A 
HETATM   11 CL   UNL     1     -39.056  49.107 -50.976  1.00  0.00    -0.084 Cl
HETATM   12  C   UNL     1     -39.970  51.460 -51.936  1.00  0.00     0.038 A 
HETATM   13  H   UNL     1     -40.567  52.454 -56.275  1.00  0.00     0.169 HD
ENDROOT
BRANCH   2  14
HETATM   14  N   UNL     1     -41.543  55.924 -53.520  1.00  0.00    -0.375 N 
HETATM   15  C   UNL     1     -42.802  56.409 -54.115  1.00  0.00     0.137 C 
HETATM   16  C   UNL     1     -43.304  57.640 -53.353  1.00  0.00     0.096 C 
HETATM   17  C   UNL     1     -42.227  58.733 -53.329  1.00  0.00     0.017 C 
HETATM   18  C   UNL     1     -40.907  58.182 -52.796  1.00  0.00     0.021 C 
HETATM   19  C   UNL     1     -40.475  56.946 -53.581  1.00  0.00     0.123 C 
BRANCH  16  20
HETATM   20  C   UNL     1     -44.570  58.128 -54.036  1.00  0.00     0.223 C 
HETATM   21  N   UNL     1     -44.871  57.497 -55.220  1.00  0.00    -0.359 N 
HETATM   22  H   UNL     1     -44.185  56.830 -55.568  1.00  0.00     0.162 HD
HETATM   23  O   UNL     1     -45.271  59.041 -53.600  1.00  0.00    -0.273 OA
BRANCH  21  24
HETATM   24  C   UNL     1     -45.861  57.968 -56.186  1.00  0.00     0.150 C 
BRANCH  24  25
HETATM   25  C   UNL     1     -45.349  58.295 -57.608  1.00  0.00     0.254 C 
BRANCH  25  26
HETATM   26  N   UNL     1     -44.993  57.066 -58.408  1.00  0.00    -0.066 N 
HETATM   27  H   UNL     1     -45.164  56.257 -57.773  1.00  0.00     0.280 HD
HETATM   28  C   UNL     1     -45.856  56.826 -59.635  1.00  0.00     0.261 C 
HETATM   29  C   UNL     1     -45.435  55.519 -60.314  1.00  0.00     0.195 C 
HETATM   30  O   UNL     1     -44.046  55.548 -60.664  1.00  0.00    -0.388 OA
HETATM   31  C   UNL     1     -43.221  55.689 -59.501  1.00  0.00     0.195 C 
HETATM   32  C   UNL     1     -43.520  57.005 -58.773  1.00  0.00     0.261 C 
ENDBRANCH  25  26
ENDBRANCH  24  25
ENDBRANCH  21  24
ENDBRANCH  16  20
ENDBRANCH   2  14
BRANCH   1  33
HETATM   33  C   UNL     1     -40.952  54.252 -51.281  1.00  0.00    -0.023 A 
HETATM   34  C   UNL     1     -42.200  54.691 -50.817  1.00  0.00     0.012 A 
HETATM   35  C   UNL     1     -42.345  55.141 -49.504  1.00  0.00     0.001 A 
HETATM   36  C   UNL     1     -41.246  55.156 -48.646  1.00  0.00     0.000 A 
HETATM   37  C   UNL     1     -40.001  54.719 -49.097  1.00  0.00     0.001 A 
HETATM   38  C   UNL     1     -39.854  54.263 -50.409  1.00  0.00     0.012 A 
ENDBRANCH   1  33
TORSDOF 6
ENDMDL
MODEL 6
REMARK VINA RESULT:      -8.2      3.112      5.644
REMARK  6 active torsions:
REMARK  status: ('A' for Active; 'I' for Inactive)
REMARK    1  A    between atoms: C_4  and  C_5 
REMARK    2  A    between atoms: C_6  and  N_7 
REMARK    3  A    between atoms: C_9  and  C_10 
REMARK       I    between atoms: C_10  and  N_11 
REMARK    4  A    between atoms: N_11  and  C_12 
REMARK    5  A    between atoms: C_12  and  C_13 
REMARK    6  A    between atoms: C_13  and  N_14 
ROOT
HETATM    1  C   UNL     1     -41.001  53.981 -52.297  1.00  0.00     0.019 A 
HETATM    2  C   UNL     1     -41.141  54.722 -51.163  1.00  0.00     0.111 A 
HETATM    3  C   UNL     1     -40.709  54.107 -49.829  1.00  0.00     0.273 A 
HETATM    4  O   UNL     1     -40.756  54.727 -48.766  1.00  0.00    -0.266 OA
HETATM    5  N   UNL     1     -40.258  52.820 -49.833  1.00  0.00    -0.321 N 
HETATM    6  C   UNL     1     -40.135  52.043 -50.978  1.00  0.00     0.046 A 
HETATM    7  C   UNL     1     -40.480  52.588 -52.220  1.00  0.00     0.006 A 
HETATM    8  C   UNL     1     -39.661  50.734 -50.861  1.00  0.00     0.032 A 
HETATM    9  C   UNL     1     -39.524  49.944 -52.001  1.00  0.00     0.026 A 
HETATM   10  C   UNL     1     -39.853  50.473 -53.246  1.00  0.00     0.035 A 
HETATM   11 CL   UNL     1     -39.682  49.502 -54.656  1.00  0.00    -0.084 Cl
HETATM   12  C   UNL     1     -40.323  51.783 -53.360  1.00  0.00     0.038 A 
HETATM   13  H   UNL     1     -40.002  52.446 -48.929  1.00  0.00     0.169 HD
ENDROOT
BRANCH   2  14
HETATM   14  N   UNL     1     -41.691  56.035 -51.133  1.00  0.00    -0.375 N 
HETATM   15  C   UNL     1     -42.837  56.376 -51.996  1.00  0.00     0.137 C 
HETATM   16  C   UNL     1     -43.602  57.567 -51.408  1.00  0.00     0.096 C 
HETATM   17  C   UNL     1     -42.663  58.763 -51.210  1.00  0.00     0.017 C 
HETATM   18  C   UNL     1     -41.437  58.362 -50.393  1.00  0.00     0.021 C 
HETATM   19  C   UNL     1     -40.736  57.159 -51.017  1.00  0.00     0.123 C 
BRANCH  16  20
HETATM   20  C   UNL     1     -44.737  57.908 -52.359  1.00  0.00     0.223 C 
HETATM   21  N   UNL     1     -44.759  57.176 -53.523  1.00  0.00    -0.359 N 
HETATM   22  H   UNL     1     -43.977  56.542 -53.677  1.00  0.00     0.162 HD
HETATM   23  O   UNL     1     -45.566  58.791 -52.141  1.00  0.00    -0.273 OA
BRANCH  21  24
HETATM   24  C   UNL     1     -45.567  57.503 -54.695  1.00  0.00     0.150 C 
BRANCH  24  25
HETATM   25  C   UNL     1     -44.854  58.243 -55.851  1.00  0.00     0.254 C 
BRANCH  25  26
HETATM   26  N   UNL     1     -45.200  57.691 -57.212  1.00  0.00    -0.066 N 
HETATM   27  H   UNL     1     -45.234  56.655 -57.097  1.00  0.00     0.280 HD
HETATM   28  C   UNL     1     -46.565  58.099 -57.742  1.00  0.00     0.261 C 
HETATM   29  C   UNL     1     -46.817  57.421 -59.093  1.00  0.00     0.195 C 
HETATM   30  O   UNL     1     -45.786  57.750 -60.031  1.00  0.00    -0.388 OA
HETATM   31  C   UNL     1     -44.506  57.292 -59.576  1.00  0.00     0.195 C 
HETATM   32  C   UNL     1     -44.125  57.960 -58.251  1.00  0.00     0.261 C 
ENDBRANCH  25  26
ENDBRANCH  24  25
ENDBRANCH  21  24
ENDBRANCH  16  20
ENDBRANCH   2  14
BRANCH   1  33
HETATM   33  C   UNL     1     -41.360  54.622 -53.593  1.00  0.00    -0.023 A 
HETATM   34  C   UNL     1     -42.508  54.214 -54.285  1.00  0.00     0.012 A 
HETATM   35  C   UNL     1     -42.868  54.837 -55.482  1.00  0.00     0.001 A 
HETATM   36  C   UNL     1     -42.084  55.869 -55.994  1.00  0.00     0.000 A 
HETATM   37  C   UNL     1     -40.941  56.284 -55.311  1.00  0.00     0.001 A 
HETATM   38  C   UNL     1     -40.581  55.666 -54.111  1.00  0.00     0.012 A 
ENDBRANCH   1  33
TORSDOF 6
ENDMDL
MODEL 7
REMARK VINA RESULT:      -7.8      2.136      3.828
REMARK  6 active torsions:
REMARK  status: ('A' for Active; 'I' for Inactive)
REMARK    1  A    between atoms: C_4  and  C_5 
REMARK    2  A    between atoms: C_6  and  N_7 
REMARK    3  A    between atoms: C_9  and  C_10 
REMARK       I    between atoms: C_10  and  N_11 
REMARK    4  A    between atoms: N_11  and  C_12 
REMARK    5  A    between atoms: C_12  and  C_13 
REMARK    6  A    between atoms: C_13  and  N_14 
ROOT
HETATM    1  C   UNL     1     -40.712  54.053 -52.476  1.00  0.00     0.019 A 
HETATM    2  C   UNL     1     -41.056  55.118 -53.252  1.00  0.00     0.111 A 
HETATM    3  C   UNL     1     -41.150  54.920 -54.766  1.00  0.00     0.273 A 
HETATM    4  O   UNL     1     -41.502  55.817 -55.533  1.00  0.00    -0.266 OA
HETATM    5  N   UNL     1     -40.825  53.697 -55.274  1.00  0.00    -0.321 N 
HETATM    6  C   UNL     1     -40.446  52.609 -54.498  1.00  0.00     0.046 A 
HETATM    7  C   UNL     1     -40.391  52.742 -53.106  1.00  0.00     0.006 A 
HETATM    8  C   UNL     1     -40.134  51.401 -55.129  1.00  0.00     0.032 A 
HETATM    9  C   UNL     1     -39.760  50.298 -54.364  1.00  0.00     0.026 A 
HETATM   10  C   UNL     1     -39.710  50.410 -52.977  1.00  0.00     0.035 A 
HETATM   11 CL   UNL     1     -39.252  49.049 -52.029  1.00  0.00    -0.084 Cl
HETATM   12  C   UNL     1     -40.025  51.617 -52.349  1.00  0.00     0.038 A 
HETATM   13  H   UNL     1     -40.880  53.614 -56.281  1.00  0.00     0.169 HD
ENDROOT
BRANCH   2  14
HETATM   14  N   UNL     1     -41.313  56.423 -52.743  1.00  0.00    -0.375 N 
HETATM   15  C   UNL     1     -42.700  56.869 -52.518  1.00  0.00     0.137 C 
HETATM   16  C   UNL     1     -42.729  57.990 -51.475  1.00  0.00     0.096 C 
HETATM   17  C   UNL     1     -41.822  59.149 -51.906  1.00  0.00     0.017 C 
HETATM   18  C   UNL     1     -40.416  58.648 -52.223  1.00  0.00     0.021 C 
HETATM   19  C   UNL     1     -40.458  57.519 -53.249  1.00  0.00     0.123 C 
BRANCH  16  20
HETATM   20  C   UNL     1     -44.170  58.447 -51.319  1.00  0.00     0.223 C 
HETATM   21  N   UNL     1     -44.405  59.756 -51.668  1.00  0.00    -0.359 N 
HETATM   22  H   UNL     1     -43.590  60.315 -51.913  1.00  0.00     0.162 HD
HETATM   23  O   UNL     1     -45.070  57.728 -50.885  1.00  0.00    -0.273 OA
BRANCH  21  24
HETATM   24  C   UNL     1     -45.624  60.496 -51.349  1.00  0.00     0.150 C 
BRANCH  24  25
HETATM   25  C   UNL     1     -45.447  61.940 -50.824  1.00  0.00     0.254 C 
BRANCH  25  26
HETATM   26  N   UNL     1     -45.760  62.080 -49.354  1.00  0.00    -0.066 N 
HETATM   27  H   UNL     1     -45.025  62.712 -48.969  1.00  0.00     0.280 HD
HETATM   28  C   UNL     1     -47.090  62.744 -49.041  1.00  0.00     0.261 C 
HETATM   29  C   UNL     1     -47.252  62.885 -47.524  1.00  0.00     0.195 C 
HETATM   30  O   UNL     1     -47.153  61.610 -46.879  1.00  0.00    -0.388 OA
HETATM   31  C   UNL     1     -45.868  61.015 -47.099  1.00  0.00     0.195 C 
HETATM   32  C   UNL     1     -45.626  60.773 -48.594  1.00  0.00     0.261 C 
ENDBRANCH  25  26
ENDBRANCH  24  25
ENDBRANCH  21  24
ENDBRANCH  16  20
ENDBRANCH   2  14
BRANCH   1  33
HETATM   33  C   UNL     1     -40.694  54.247 -50.999  1.00  0.00    -0.023 A 
HETATM   34  C   UNL     1     -41.891  54.474 -50.305  1.00  0.00     0.012 A 
HETATM   35  C   UNL     1     -41.882  54.620 -48.916  1.00  0.00     0.001 A 
HETATM   36  C   UNL     1     -40.681  54.540 -48.214  1.00  0.00     0.000 A 
HETATM   37  C   UNL     1     -39.487  54.311 -48.896  1.00  0.00     0.001 A 
HETATM   38  C   UNL     1     -39.492  54.160 -50.284  1.00  0.00     0.012 A 
ENDBRANCH   1  33
TORSDOF 6
ENDMDL
MODEL 8
REMARK VINA RESULT:      -7.7      3.209      5.642
REMARK  6 active torsions:
REMARK  status: ('A' for Active; 'I' for Inactive)
REMARK    1  A    between atoms: C_4  and  C_5 
REMARK    2  A    between atoms: C_6  and  N_7 
REMARK    3  A    between atoms: C_9  and  C_10 
REMARK       I    between atoms: C_10  and  N_11 
REMARK    4  A    between atoms: N_11  and  C_12 
REMARK    5  A    between atoms: C_12  and  C_13 
REMARK    6  A    between atoms: C_13  and  N_14 
ROOT
HETATM    1  C   UNL     1     -42.656  57.402 -55.445  1.00  0.00     0.019 A 
HETATM    2  C   UNL     1     -42.453  58.643 -54.922  1.00  0.00     0.111 A 
HETATM    3  C   UNL     1     -42.709  59.862 -55.811  1.00  0.00     0.273 A 
HETATM    4  O   UNL     1     -42.597  61.018 -55.400  1.00  0.00    -0.266 OA
HETATM    5  N   UNL     1     -43.073  59.646 -57.107  1.00  0.00    -0.321 N 
HETATM    6  C   UNL     1     -43.259  58.386 -57.662  1.00  0.00     0.046 A 
HETATM    7  C   UNL     1     -43.075  57.250 -56.866  1.00  0.00     0.006 A 
HETATM    8  C   UNL     1     -43.633  58.285 -59.005  1.00  0.00     0.032 A 
HETATM    9  C   UNL     1     -43.831  57.029 -59.574  1.00  0.00     0.026 A 
HETATM   10  C   UNL     1     -43.662  55.888 -58.795  1.00  0.00     0.035 A 
HETATM   11 CL   UNL     1     -43.908  54.335 -59.494  1.00  0.00    -0.084 Cl
HETATM   12  C   UNL     1     -43.291  55.992 -57.452  1.00  0.00     0.038 A 
HETATM   13  H   UNL     1     -43.213  60.478 -57.665  1.00  0.00     0.169 HD
ENDROOT
BRANCH   2  14
HETATM   14  N   UNL     1     -41.988  58.882 -53.598  1.00  0.00    -0.375 N 
HETATM   15  C   UNL     1     -42.692  59.843 -52.730  1.00  0.00     0.137 C 
HETATM   16  C   UNL     1     -42.417  59.522 -51.257  1.00  0.00     0.096 C 
HETATM   17  C   UNL     1     -40.907  59.507 -50.983  1.00  0.00     0.017 C 
HETATM   18  C   UNL     1     -40.189  58.575 -51.956  1.00  0.00     0.021 C 
HETATM   19  C   UNL     1     -40.523  58.933 -53.401  1.00  0.00     0.123 C 
BRANCH  16  20
HETATM   20  C   UNL     1     -43.120  60.569 -50.410  1.00  0.00     0.223 C 
HETATM   21  N   UNL     1     -44.307  60.160 -49.849  1.00  0.00    -0.359 N 
HETATM   22  H   UNL     1     -44.643  59.236 -50.116  1.00  0.00     0.162 HD
HETATM   23  O   UNL     1     -42.697  61.714 -50.252  1.00  0.00    -0.273 OA
BRANCH  21  24
HETATM   24  C   UNL     1     -45.289  61.052 -49.237  1.00  0.00     0.150 C 
BRANCH  24  25
HETATM   25  C   UNL     1     -45.263  61.167 -47.695  1.00  0.00     0.254 C 
BRANCH  25  26
HETATM   26  N   UNL     1     -45.869  62.451 -47.185  1.00  0.00    -0.066 N 
HETATM   27  H   UNL     1     -45.281  63.217 -47.580  1.00  0.00     0.280 HD
HETATM   28  C   UNL     1     -47.287  62.725 -47.658  1.00  0.00     0.261 C 
HETATM   29  C   UNL     1     -47.754  64.084 -47.126  1.00  0.00     0.195 C 
HETATM   30  O   UNL     1     -47.675  64.129 -45.697  1.00  0.00    -0.388 OA
HETATM   31  C   UNL     1     -46.325  63.956 -45.247  1.00  0.00     0.195 C 
HETATM   32  C   UNL     1     -45.775  62.591 -45.676  1.00  0.00     0.261 C 
ENDBRANCH  25  26
ENDBRANCH  24  25
ENDBRANCH  21  24
ENDBRANCH  16  20
ENDBRANCH   2  14
BRANCH   1  33
HETATM   33  C   UNL     1     -42.470  56.230 -54.545  1.00  0.00    -0.023 A 
HETATM   34  C   UNL     1     -43.534  55.771 -53.757  1.00  0.00     0.012 A 
HETATM   35  C   UNL     1     -43.373  54.652 -52.939  1.00  0.00     0.001 A 
HETATM   36  C   UNL     1     -42.150  53.984 -52.903  1.00  0.00     0.000 A 
HETATM   37  C   UNL     1     -41.087  54.431 -53.686  1.00  0.00     0.001 A 
HETATM   38  C   UNL     1     -41.246  55.548 -54.509  1.00  0.00     0.012 A 
ENDBRANCH   1  33
TORSDOF 6
ENDMDL
MODEL 9
REMARK VINA RESULT:      -7.6      5.455      8.522
REMARK  6 active torsions:
REMARK  status: ('A' for Active; 'I' for Inactive)
REMARK    1  A    between atoms: C_4  and  C_5 
REMARK    2  A    between atoms: C_6  and  N_7 
REMARK    3  A    between atoms: C_9  and  C_10 
REMARK       I    between atoms: C_10  and  N_11 
REMARK    4  A    between atoms: N_11  and  C_12 
REMARK    5  A    between atoms: C_12  and  C_13 
REMARK    6  A    between atoms: C_13  and  N_14 
ROOT
HETATM    1  C   UNL     1     -42.399  57.166 -52.737  1.00  0.00     0.019 A 
HETATM    2  C   UNL     1     -42.464  57.232 -54.096  1.00  0.00     0.111 A 
HETATM    3  C   UNL     1     -41.907  56.064 -54.913  1.00  0.00     0.273 A 
HETATM    4  O   UNL     1     -41.972  56.022 -56.142  1.00  0.00    -0.266 OA
HETATM    5  N   UNL     1     -41.315  55.036 -54.240  1.00  0.00    -0.321 N 
HETATM    6  C   UNL     1     -41.217  54.967 -52.856  1.00  0.00     0.046 A 
HETATM    7  C   UNL     1     -41.754  55.997 -52.076  1.00  0.00     0.006 A 
HETATM    8  C   UNL     1     -40.587  53.864 -52.275  1.00  0.00     0.032 A 
HETATM    9  C   UNL     1     -40.487  53.776 -50.888  1.00  0.00     0.026 A 
HETATM   10  C   UNL     1     -41.025  54.787 -50.096  1.00  0.00     0.035 A 
HETATM   11 CL   UNL     1     -40.907  54.680 -48.383  1.00  0.00    -0.084 Cl
HETATM   12  C   UNL     1     -41.657  55.887 -50.680  1.00  0.00     0.038 A 
HETATM   13  H   UNL     1     -40.943  54.294 -54.818  1.00  0.00     0.169 HD
ENDROOT
BRANCH   2  14
HETATM   14  N   UNL     1     -43.001  58.338 -54.814  1.00  0.00    -0.375 N 
HETATM   15  C   UNL     1     -44.113  58.137 -55.760  1.00  0.00     0.137 C 
HETATM   16  C   UNL     1     -44.883  59.448 -55.953  1.00  0.00     0.096 C 
HETATM   17  C   UNL     1     -43.937  60.563 -56.416  1.00  0.00     0.017 C 
HETATM   18  C   UNL     1     -42.745  60.689 -55.472  1.00  0.00     0.021 C 
HETATM   19  C   UNL     1     -42.037  59.348 -55.305  1.00  0.00     0.123 C 
BRANCH  16  20
HETATM   20  C   UNL     1     -45.983  59.198 -56.972  1.00  0.00     0.223 C 
HETATM   21  N   UNL     1     -46.099  57.893 -57.392  1.00  0.00    -0.359 N 
HETATM   22  H   UNL     1     -45.395  57.241 -57.052  1.00  0.00     0.162 HD
HETATM   23  O   UNL     1     -46.705  60.085 -57.426  1.00  0.00    -0.273 OA
BRANCH  21  24
HETATM   24  C   UNL     1     -46.877  57.459 -58.550  1.00  0.00     0.150 C 
BRANCH  24  25
HETATM   25  C   UNL     1     -46.109  57.281 -59.880  1.00  0.00     0.254 C 
BRANCH  25  26
HETATM   26  N   UNL     1     -46.926  57.658 -61.092  1.00  0.00    -0.066 N 
HETATM   27  H   UNL     1     -46.236  57.828 -61.855  1.00  0.00     0.280 HD
HETATM   28  C   UNL     1     -47.857  56.571 -61.603  1.00  0.00     0.261 C 
HETATM   29  C   UNL     1     -48.571  57.057 -62.868  1.00  0.00     0.195 C 
HETATM   30  O   UNL     1     -49.292  58.269 -62.615  1.00  0.00    -0.388 OA
HETATM   31  C   UNL     1     -48.408  59.324 -62.214  1.00  0.00     0.195 C 
HETATM   32  C   UNL     1     -47.680  58.964 -60.914  1.00  0.00     0.261 C 
ENDBRANCH  25  26
ENDBRANCH  24  25
ENDBRANCH  21  24
ENDBRANCH  16  20
ENDBRANCH   2  14
BRANCH   1  33
HETATM   33  C   UNL     1     -43.010  58.279 -51.958  1.00  0.00    -0.023 A 
HETATM   34  C   UNL     1     -44.363  58.227 -51.599  1.00  0.00     0.012 A 
HETATM   35  C   UNL     1     -44.930  59.251 -50.838  1.00  0.00     0.001 A 
HETATM   36  C   UNL     1     -44.149  60.332 -50.431  1.00  0.00     0.000 A 
HETATM   37  C   UNL     1     -42.801  60.391 -50.782  1.00  0.00     0.001 A 
HETATM   38  C   UNL     1     -42.230  59.366 -51.539  1.00  0.00     0.012 A 
ENDBRANCH   1  33
TORSDOF 6
ENDMDL
MODEL 10
REMARK VINA RESULT:      -7.6      4.446      6.693
REMARK  6 active torsions:
REMARK  status: ('A' for Active; 'I' for Inactive)
REMARK    1  A    between atoms: C_4  and  C_5 
REMARK    2  A    between atoms: C_6  and  N_7 
REMARK    3  A    between atoms: C_9  and  C_10 
REMARK       I    between atoms: C_10  and  N_11 
REMARK    4  A    between atoms: N_11  and  C_12 
REMARK    5  A    between atoms: C_12  and  C_13 
REMARK    6  A    between atoms: C_13  and  N_14 
ROOT
HETATM    1  C   UNL     1     -41.980  56.087 -52.547  1.00  0.00     0.019 A 
HETATM    2  C   UNL     1     -42.297  57.389 -52.304  1.00  0.00     0.111 A 
HETATM    3  C   UNL     1     -41.888  58.004 -50.963  1.00  0.00     0.273 A 
HETATM    4  O   UNL     1     -42.092  59.186 -50.686  1.00  0.00    -0.266 OA
HETATM    5  N   UNL     1     -41.276  57.199 -50.049  1.00  0.00    -0.321 N 
HETATM    6  C   UNL     1     -40.970  55.862 -50.272  1.00  0.00     0.046 A 
HETATM    7  C   UNL     1     -41.290  55.279 -51.503  1.00  0.00     0.006 A 
HETATM    8  C   UNL     1     -40.340  55.132 -49.260  1.00  0.00     0.032 A 
HETATM    9  C   UNL     1     -40.019  53.793 -49.471  1.00  0.00     0.026 A 
HETATM   10  C   UNL     1     -40.323  53.199 -50.693  1.00  0.00     0.035 A 
HETATM   11 CL   UNL     1     -39.925  51.546 -50.958  1.00  0.00    -0.084 Cl
HETATM   12  C   UNL     1     -40.949  53.932 -51.703  1.00  0.00     0.038 A 
HETATM   13  H   UNL     1     -41.040  57.639 -49.170  1.00  0.00     0.169 HD
ENDROOT
BRANCH   2  14
HETATM   14  N   UNL     1     -43.013  58.216 -53.215  1.00  0.00    -0.375 N 
HETATM   15  C   UNL     1     -42.291  59.190 -54.054  1.00  0.00     0.137 C 
HETATM   16  C   UNL     1     -43.116  59.521 -55.303  1.00  0.00     0.096 C 
HETATM   17  C   UNL     1     -44.507  60.032 -54.908  1.00  0.00     0.017 C 
HETATM   18  C   UNL     1     -45.197  59.052 -53.963  1.00  0.00     0.021 C 
HETATM   19  C   UNL     1     -44.316  58.746 -52.755  1.00  0.00     0.123 C 
BRANCH  16  20
HETATM   20  C   UNL     1     -42.353  60.563 -56.104  1.00  0.00     0.223 C 
HETATM   21  N   UNL     1     -42.904  61.823 -56.092  1.00  0.00    -0.359 N 
HETATM   22  H   UNL     1     -43.804  61.922 -55.625  1.00  0.00     0.162 HD
HETATM   23  O   UNL     1     -41.335  60.315 -56.749  1.00  0.00    -0.273 OA
BRANCH  21  24
HETATM   24  C   UNL     1     -42.522  62.907 -56.993  1.00  0.00     0.150 C 
BRANCH  24  25
HETATM   25  C   UNL     1     -43.159  62.901 -58.402  1.00  0.00     0.254 C 
BRANCH  25  26
HETATM   26  N   UNL     1     -42.402  62.052 -59.393  1.00  0.00    -0.066 N 
HETATM   27  H   UNL     1     -41.504  61.804 -58.924  1.00  0.00     0.280 HD
HETATM   28  C   UNL     1     -43.067  60.734 -59.750  1.00  0.00     0.261 C 
HETATM   29  C   UNL     1     -42.167  59.944 -60.707  1.00  0.00     0.195 C 
HETATM   30  O   UNL     1     -41.879  60.707 -61.885  1.00  0.00    -0.388 OA
HETATM   31  C   UNL     1     -41.175  61.912 -61.563  1.00  0.00     0.195 C 
HETATM   32  C   UNL     1     -42.018  62.812 -60.651  1.00  0.00     0.261 C 
ENDBRANCH  25  26
ENDBRANCH  24  25
ENDBRANCH  21  24
ENDBRANCH  16  20
ENDBRANCH   2  14
BRANCH   1  33
HETATM   33  C   UNL     1     -42.323  55.526 -53.883  1.00  0.00    -0.023 A 
HETATM   34  C   UNL     1     -43.509  54.800 -54.059  1.00  0.00     0.012 A 
HETATM   35  C   UNL     1     -43.852  54.305 -55.318  1.00  0.00     0.001 A 
HETATM   36  C   UNL     1     -43.014  54.531 -56.408  1.00  0.00     0.000 A 
HETATM   37  C   UNL     1     -41.834  55.254 -56.244  1.00  0.00     0.001 A 
HETATM   38  C   UNL     1     -41.490  55.756 -54.987  1.00  0.00     0.012 A 
ENDBRANCH   1  33
TORSDOF 6
ENDMDL
