MODEL 1
REMARK VINA RESULT:      -8.7      0.000      0.000
REMARK  5 active torsions:
REMARK  status: ('A' for Active; 'I' for Inactive)
REMARK    1  A    between atoms: C_2  and  N_3 
REMARK       I    between atoms: N_3  and  C_4 
REMARK       I    between atoms: C_4  and  N_5 
REMARK    2  A    between atoms: N_5  and  C_6 
REMARK    3  A    between atoms: C_9  and  C_10 
REMARK    4  A    between atoms: C_10  and  C_11 
REMARK       I    between atoms: C_11  and  N_12 
REMARK    5  A    between atoms: N_12  and  C_13 
ROOT
HETATM    1  C   UNL     1     -43.850  56.916 -54.907  1.00  0.00     0.174 A 
HETATM    2  S   UNL     1     -44.558  58.334 -54.280  1.00  0.00    -0.062 SA
HETATM    3  C   UNL     1     -43.989  57.901 -52.718  1.00  0.00     0.081 A 
HETATM    4  C   UNL     1     -43.278  56.716 -52.785  1.00  0.00     0.052 A 
HETATM    5  N   UNL     1     -43.204  56.162 -54.057  1.00  0.00    -0.228 NA
ENDROOT
BRANCH   1   6
HETATM    6  N   UNL     1     -44.013  56.741 -56.251  1.00  0.00    -0.287 N 
HETATM    7  C   UNL     1     -43.133  57.257 -57.152  1.00  0.00     0.326 C 
HETATM    8  N   UNL     1     -43.452  57.106 -58.475  1.00  0.00    -0.309 N 
HETATM    9  O   UNL     1     -42.043  57.760 -56.882  1.00  0.00    -0.247 OA
HETATM   10  H   UNL     1     -42.642  57.260 -59.065  1.00  0.00     0.170 HD
HETATM   11  H   UNL     1     -44.646  56.018 -56.551  1.00  0.00     0.172 HD
BRANCH   8  12
HETATM   12  C   UNL     1     -44.681  56.924 -59.131  1.00  0.00     0.036 A 
HETATM   13  C   UNL     1     -45.767  57.798 -59.015  1.00  0.00     0.032 A 
HETATM   14  C   UNL     1     -46.940  57.563 -59.741  1.00  0.00     0.044 A 
HETATM   15  C   UNL     1     -47.020  56.465 -60.589  1.00  0.00     0.116 A 
HETATM   16  C   UNL     1     -45.945  55.599 -60.732  1.00  0.00     0.044 A 
HETATM   17  F   UNL     1     -48.142  56.249 -61.286  1.00  0.00    -0.206 F 
HETATM   18  C   UNL     1     -44.772  55.834 -60.011  1.00  0.00     0.032 A 
ENDBRANCH   8  12
ENDBRANCH   1   6
BRANCH   4  19
HETATM   19  C   UNL     1     -42.562  56.030 -51.667  1.00  0.00     0.163 C 
BRANCH  19  20
HETATM   20  C   UNL     1     -42.364  54.534 -51.866  1.00  0.00     0.227 C 
HETATM   21  N   UNL     1     -41.223  54.189 -52.568  1.00  0.00    -0.327 N 
HETATM   22  H   UNL     1     -40.746  54.959 -53.050  1.00  0.00     0.169 HD
HETATM   23  O   UNL     1     -43.150  53.742 -51.349  1.00  0.00    -0.273 OA
BRANCH  21  24
HETATM   24  C   UNL     1     -40.688  52.900 -52.769  1.00  0.00     0.036 A 
HETATM   25  C   UNL     1     -40.202  52.087 -51.741  1.00  0.00     0.056 A 
HETATM   26  C   UNL     1     -39.659  50.833 -52.037  1.00  0.00     0.074 A 
HETATM   27 CL   UNL     1     -39.044  49.852 -50.760  1.00  0.00    -0.081 Cl
HETATM   28  C   UNL     1     -39.606  50.386 -53.354  1.00  0.00     0.138 A 
HETATM   29  F   UNL     1     -39.088  49.186 -53.655  1.00  0.00    -0.204 F 
HETATM   30  C   UNL     1     -40.086  51.183 -54.385  1.00  0.00     0.046 A 
HETATM   31  C   UNL     1     -40.621  52.440 -54.092  1.00  0.00     0.032 A 
ENDBRANCH  21  24
ENDBRANCH  19  20
ENDBRANCH   4  19
TORSDOF 5
ENDMDL
MODEL 2
REMARK VINA RESULT:      -8.4      1.640      2.283
REMARK  5 active torsions:
REMARK  status: ('A' for Active; 'I' for Inactive)
REMARK    1  A    between atoms: C_2  and  N_3 
REMARK       I    between atoms: N_3  and  C_4 
REMARK       I    between atoms: C_4  and  N_5 
REMARK    2  A    between atoms: N_5  and  C_6 
REMARK    3  A    between atoms: C_9  and  C_10 
REMARK    4  A    between atoms: C_10  and  C_11 
REMARK       I    between atoms: C_11  and  N_12 
REMARK    5  A    between atoms: N_12  and  C_13 
ROOT
HETATM    1  C   UNL     1     -44.312  57.155 -54.773  1.00  0.00     0.174 A 
HETATM    2  S   UNL     1     -44.995  58.716 -54.765  1.00  0.00    -0.062 SA
HETATM    3  C   UNL     1     -44.935  58.710 -53.049  1.00  0.00     0.081 A 
HETATM    4  C   UNL     1     -44.378  57.527 -52.598  1.00  0.00     0.052 A 
HETATM    5  N   UNL     1     -44.020  56.641 -53.607  1.00  0.00    -0.228 NA
ENDROOT
BRANCH   1   6
HETATM    6  N   UNL     1     -44.116  56.622 -56.014  1.00  0.00    -0.287 N 
HETATM    7  C   UNL     1     -42.906  56.681 -56.636  1.00  0.00     0.326 C 
HETATM    8  N   UNL     1     -42.853  56.205 -57.918  1.00  0.00    -0.309 N 
HETATM    9  O   UNL     1     -41.851  57.038 -56.116  1.00  0.00    -0.247 OA
HETATM   10  H   UNL     1     -41.896  56.030 -58.203  1.00  0.00     0.170 HD
HETATM   11  H   UNL     1     -44.803  55.967 -56.351  1.00  0.00     0.172 HD
BRANCH   8  12
HETATM   12  C   UNL     1     -43.839  56.059 -58.909  1.00  0.00     0.036 A 
HETATM   13  C   UNL     1     -44.186  54.836 -59.493  1.00  0.00     0.032 A 
HETATM   14  C   UNL     1     -45.212  54.775 -60.442  1.00  0.00     0.044 A 
HETATM   15  C   UNL     1     -45.895  55.932 -60.796  1.00  0.00     0.116 A 
HETATM   16  C   UNL     1     -45.579  57.150 -60.212  1.00  0.00     0.044 A 
HETATM   17  F   UNL     1     -46.881  55.867 -61.699  1.00  0.00    -0.206 F 
HETATM   18  C   UNL     1     -44.557  57.212 -59.261  1.00  0.00     0.032 A 
ENDBRANCH   8  12
ENDBRANCH   1   6
BRANCH   4  19
HETATM   19  C   UNL     1     -44.086  57.150 -51.182  1.00  0.00     0.163 C 
BRANCH  19  20
HETATM   20  C   UNL     1     -42.824  56.318 -50.997  1.00  0.00     0.227 C 
HETATM   21  N   UNL     1     -42.920  55.012 -51.441  1.00  0.00    -0.327 N 
HETATM   22  H   UNL     1     -43.867  54.682 -51.654  1.00  0.00     0.169 HD
HETATM   23  O   UNL     1     -41.805  56.848 -50.555  1.00  0.00    -0.273 OA
BRANCH  21  24
HETATM   24  C   UNL     1     -41.888  54.059 -51.555  1.00  0.00     0.036 A 
HETATM   25  C   UNL     1     -41.421  53.552 -52.771  1.00  0.00     0.056 A 
HETATM   26  C   UNL     1     -40.413  52.584 -52.787  1.00  0.00     0.074 A 
HETATM   27 CL   UNL     1     -39.865  51.955 -54.296  1.00  0.00    -0.081 Cl
HETATM   28  C   UNL     1     -39.864  52.126 -51.593  1.00  0.00     0.138 A 
HETATM   29  F   UNL     1     -38.896  51.196 -51.591  1.00  0.00    -0.204 F 
HETATM   30  C   UNL     1     -40.317  52.620 -50.378  1.00  0.00     0.046 A 
HETATM   31  C   UNL     1     -41.330  53.581 -50.360  1.00  0.00     0.032 A 
ENDBRANCH  21  24
ENDBRANCH  19  20
ENDBRANCH   4  19
TORSDOF 5
ENDMDL
MODEL 3
REMARK VINA RESULT:      -8.4      3.521      8.200
REMARK  5 active torsions:
REMARK  status: ('A' for Active; 'I' for Inactive)
REMARK    1  A    between atoms: C_2  and  N_3 
REMARK       I    between atoms: N_3  and  C_4 
REMARK       I    between atoms: C_4  and  N_5 
REMARK    2  A    between atoms: N_5  and  C_6 
REMARK    3  A    between atoms: C_9  and  C_10 
REMARK    4  A    between atoms: C_10  and  C_11 
REMARK       I    between atoms: C_11  and  N_12 
REMARK    5  A    between atoms: N_12  and  C_13 
ROOT
HETATM    1  C   UNL     1     -42.267  55.622 -51.765  1.00  0.00     0.174 A 
HETATM    2  S   UNL     1     -43.657  55.787 -50.794  1.00  0.00    -0.062 SA
HETATM    3  C   UNL     1     -43.866  57.381 -51.401  1.00  0.00     0.081 A 
HETATM    4  C   UNL     1     -42.873  57.671 -52.320  1.00  0.00     0.052 A 
HETATM    5  N   UNL     1     -41.960  56.644 -52.522  1.00  0.00    -0.228 NA
ENDROOT
BRANCH   1   6
HETATM    6  N   UNL     1     -41.638  54.415 -51.665  1.00  0.00    -0.287 N 
HETATM    7  C   UNL     1     -40.586  54.222 -50.823  1.00  0.00     0.326 C 
HETATM    8  N   UNL     1     -39.971  53.001 -50.882  1.00  0.00    -0.309 N 
HETATM    9  O   UNL     1     -40.206  55.012 -49.960  1.00  0.00    -0.247 OA
HETATM   10  H   UNL     1     -39.399  52.841 -50.060  1.00  0.00     0.170 HD
HETATM   11  H   UNL     1     -42.121  53.610 -52.031  1.00  0.00     0.172 HD
BRANCH   8  12
HETATM   12  C   UNL     1     -39.885  52.039 -51.902  1.00  0.00     0.036 A 
HETATM   13  C   UNL     1     -39.584  50.690 -51.683  1.00  0.00     0.032 A 
HETATM   14  C   UNL     1     -39.564  49.790 -52.754  1.00  0.00     0.044 A 
HETATM   15  C   UNL     1     -39.856  50.236 -54.036  1.00  0.00     0.116 A 
HETATM   16  C   UNL     1     -40.178  51.566 -54.270  1.00  0.00     0.044 A 
HETATM   17  F   UNL     1     -39.843  49.369 -55.056  1.00  0.00    -0.206 F 
HETATM   18  C   UNL     1     -40.202  52.465 -53.201  1.00  0.00     0.032 A 
ENDBRANCH   8  12
ENDBRANCH   1   6
BRANCH   4  19
HETATM   19  C   UNL     1     -42.730  58.920 -53.127  1.00  0.00     0.163 C 
BRANCH  19  20
HETATM   20  C   UNL     1     -43.067  58.761 -54.603  1.00  0.00     0.227 C 
HETATM   21  N   UNL     1     -42.300  57.826 -55.275  1.00  0.00    -0.327 N 
HETATM   22  H   UNL     1     -41.468  57.492 -54.778  1.00  0.00     0.169 HD
HETATM   23  O   UNL     1     -44.012  59.386 -55.082  1.00  0.00    -0.273 OA
BRANCH  21  24
HETATM   24  C   UNL     1     -42.479  57.343 -56.588  1.00  0.00     0.036 A 
HETATM   25  C   UNL     1     -42.185  58.081 -57.738  1.00  0.00     0.056 A 
HETATM   26  C   UNL     1     -42.424  57.532 -59.002  1.00  0.00     0.074 A 
HETATM   27 CL   UNL     1     -42.075  58.463 -60.410  1.00  0.00    -0.081 Cl
HETATM   28  C   UNL     1     -42.949  56.249 -59.120  1.00  0.00     0.138 A 
HETATM   29  F   UNL     1     -43.185  55.708 -60.325  1.00  0.00    -0.204 F 
HETATM   30  C   UNL     1     -43.245  55.505 -57.986  1.00  0.00     0.046 A 
HETATM   31  C   UNL     1     -43.015  56.055 -56.723  1.00  0.00     0.032 A 
ENDBRANCH  21  24
ENDBRANCH  19  20
ENDBRANCH   4  19
TORSDOF 5
ENDMDL
MODEL 4
REMARK VINA RESULT:      -8.3      2.398      2.795
REMARK  5 active torsions:
REMARK  status: ('A' for Active; 'I' for Inactive)
REMARK    1  A    between atoms: C_2  and  N_3 
REMARK       I    between atoms: N_3  and  C_4 
REMARK       I    between atoms: C_4  and  N_5 
REMARK    2  A    between atoms: N_5  and  C_6 
REMARK    3  A    between atoms: C_9  and  C_10 
REMARK    4  A    between atoms: C_10  and  C_11 
REMARK       I    between atoms: C_11  and  N_12 
REMARK    5  A    between atoms: N_12  and  C_13 
ROOT
HETATM    1  C   UNL     1     -42.719  58.021 -53.423  1.00  0.00     0.174 A 
HETATM    2  S   UNL     1     -42.742  59.552 -52.676  1.00  0.00    -0.062 SA
HETATM    3  C   UNL     1     -42.146  58.834 -51.234  1.00  0.00     0.081 A 
HETATM    4  C   UNL     1     -41.948  57.478 -51.427  1.00  0.00     0.052 A 
HETATM    5  N   UNL     1     -42.279  57.026 -52.698  1.00  0.00    -0.228 NA
ENDROOT
BRANCH   1   6
HETATM    6  N   UNL     1     -43.137  58.011 -54.722  1.00  0.00    -0.287 N 
HETATM    7  C   UNL     1     -44.263  57.351 -55.107  1.00  0.00     0.326 C 
HETATM    8  N   UNL     1     -44.528  57.324 -56.450  1.00  0.00    -0.309 N 
HETATM    9  O   UNL     1     -45.099  56.859 -54.351  1.00  0.00    -0.247 OA
HETATM   10  H   UNL     1     -45.493  57.066 -56.626  1.00  0.00     0.170 HD
HETATM   11  H   UNL     1     -42.746  58.704 -55.340  1.00  0.00     0.172 HD
BRANCH   8  12
HETATM   12  C   UNL     1     -43.697  57.448 -57.576  1.00  0.00     0.036 A 
HETATM   13  C   UNL     1     -43.269  56.367 -58.355  1.00  0.00     0.032 A 
HETATM   14  C   UNL     1     -42.477  56.586 -59.488  1.00  0.00     0.044 A 
HETATM   15  C   UNL     1     -42.127  57.882 -59.846  1.00  0.00     0.116 A 
HETATM   16  C   UNL     1     -42.560  58.967 -59.098  1.00  0.00     0.044 A 
HETATM   17  F   UNL     1     -41.376  58.086 -60.935  1.00  0.00    -0.206 F 
HETATM   18  C   UNL     1     -43.354  58.750 -57.969  1.00  0.00     0.032 A 
ENDBRANCH   8  12
ENDBRANCH   1   6
BRANCH   4  19
HETATM   19  C   UNL     1     -41.379  56.502 -50.450  1.00  0.00     0.163 C 
BRANCH  19  20
HETATM   20  C   UNL     1     -41.492  55.044 -50.873  1.00  0.00     0.227 C 
HETATM   21  N   UNL     1     -40.590  54.652 -51.846  1.00  0.00    -0.327 N 
HETATM   22  H   UNL     1     -40.089  55.410 -52.321  1.00  0.00     0.169 HD
HETATM   23  O   UNL     1     -42.289  54.304 -50.299  1.00  0.00    -0.273 OA
BRANCH  21  24
HETATM   24  C   UNL     1     -40.342  53.348 -52.319  1.00  0.00     0.036 A 
HETATM   25  C   UNL     1     -39.934  52.286 -51.506  1.00  0.00     0.056 A 
HETATM   26  C   UNL     1     -39.680  51.031 -52.067  1.00  0.00     0.074 A 
HETATM   27 CL   UNL     1     -39.157  49.738 -51.054  1.00  0.00    -0.081 Cl
HETATM   28  C   UNL     1     -39.838  50.831 -53.436  1.00  0.00     0.138 A 
HETATM   29  F   UNL     1     -39.597  49.633 -53.990  1.00  0.00    -0.204 F 
HETATM   30  C   UNL     1     -40.243  51.876 -54.255  1.00  0.00     0.046 A 
HETATM   31  C   UNL     1     -40.489  53.133 -53.697  1.00  0.00     0.032 A 
ENDBRANCH  21  24
ENDBRANCH  19  20
ENDBRANCH   4  19
TORSDOF 5
ENDMDL
MODEL 5
REMARK VINA RESULT:      -8.1      3.347      8.399
REMARK  5 active torsions:
REMARK  status: ('A' for Active; 'I' for Inactive)
REMARK    1  A    between atoms: C_2  and  N_3 
REMARK       I    between atoms: N_3  and  C_4 
REMARK       I    between atoms: C_4  and  N_5 
REMARK    2  A    between atoms: N_5  and  C_6 
REMARK    3  A    between atoms: C_9  and  C_10 
REMARK    4  A    between atoms: C_10  and  C_11 
REMARK       I    between atoms: C_11  and  N_12 
REMARK    5  A    between atoms: N_12  and  C_13 
ROOT
HETATM    1  C   UNL     1     -42.142  55.928 -51.956  1.00  0.00     0.174 A 
HETATM    2  S   UNL     1     -43.472  56.224 -50.933  1.00  0.00    -0.062 SA
HETATM    3  C   UNL     1     -43.581  57.816 -51.569  1.00  0.00     0.081 A 
HETATM    4  C   UNL     1     -42.608  58.007 -52.535  1.00  0.00     0.052 A 
HETATM    5  N   UNL     1     -41.789  56.906 -52.750  1.00  0.00    -0.228 NA
ENDROOT
BRANCH   1   6
HETATM    6  N   UNL     1     -41.607  54.677 -51.853  1.00  0.00    -0.287 N 
HETATM    7  C   UNL     1     -40.599  54.399 -50.981  1.00  0.00     0.326 C 
HETATM    8  N   UNL     1     -40.072  53.137 -51.038  1.00  0.00    -0.309 N 
HETATM    9  O   UNL     1     -40.189  55.149 -50.097  1.00  0.00    -0.247 OA
HETATM   10  H   UNL     1     -39.540  52.926 -50.200  1.00  0.00     0.170 HD
HETATM   11  H   UNL     1     -42.134  53.914 -52.244  1.00  0.00     0.172 HD
BRANCH   8  12
HETATM   12  C   UNL     1     -40.025  52.181 -52.067  1.00  0.00     0.036 A 
HETATM   13  C   UNL     1     -40.243  52.476 -53.418  1.00  0.00     0.032 A 
HETATM   14  C   UNL     1     -40.132  51.469 -54.384  1.00  0.00     0.044 A 
HETATM   15  C   UNL     1     -39.793  50.178 -54.000  1.00  0.00     0.116 A 
HETATM   16  C   UNL     1     -39.553  49.872 -52.668  1.00  0.00     0.044 A 
HETATM   17  F   UNL     1     -39.681  49.221 -54.929  1.00  0.00    -0.206 F 
HETATM   18  C   UNL     1     -39.659  50.877 -51.703  1.00  0.00     0.032 A 
ENDBRANCH   8  12
ENDBRANCH   1   6
BRANCH   4  19
HETATM   19  C   UNL     1     -42.402  59.223 -53.378  1.00  0.00     0.163 C 
BRANCH  19  20
HETATM   20  C   UNL     1     -42.359  58.955 -54.876  1.00  0.00     0.227 C 
HETATM   21  N   UNL     1     -43.173  57.921 -55.303  1.00  0.00    -0.327 N 
HETATM   22  H   UNL     1     -43.555  57.321 -54.565  1.00  0.00     0.169 HD
HETATM   23  O   UNL     1     -41.694  59.688 -55.607  1.00  0.00    -0.273 OA
BRANCH  21  24
HETATM   24  C   UNL     1     -43.470  57.546 -56.629  1.00  0.00     0.036 A 
HETATM   25  C   UNL     1     -44.397  58.208 -57.440  1.00  0.00     0.056 A 
HETATM   26  C   UNL     1     -44.652  57.746 -58.735  1.00  0.00     0.074 A 
HETATM   27 CL   UNL     1     -45.814  58.561 -59.713  1.00  0.00    -0.081 Cl
HETATM   28  C   UNL     1     -43.978  56.631 -59.225  1.00  0.00     0.138 A 
HETATM   29  F   UNL     1     -44.211  56.175 -60.465  1.00  0.00    -0.204 F 
HETATM   30  C   UNL     1     -43.054  55.965 -58.432  1.00  0.00     0.046 A 
HETATM   31  C   UNL     1     -42.805  56.420 -57.135  1.00  0.00     0.032 A 
ENDBRANCH  21  24
ENDBRANCH  19  20
ENDBRANCH   4  19
TORSDOF 5
ENDMDL
MODEL 6
REMARK VINA RESULT:      -8.1      3.946      8.691
REMARK  5 active torsions:
REMARK  status: ('A' for Active; 'I' for Inactive)
REMARK    1  A    between atoms: C_2  and  N_3 
REMARK       I    between atoms: N_3  and  C_4 
REMARK       I    between atoms: C_4  and  N_5 
REMARK    2  A    between atoms: N_5  and  C_6 
REMARK    3  A    between atoms: C_9  and  C_10 
REMARK    4  A    between atoms: C_10  and  C_11 
REMARK       I    between atoms: C_11  and  N_12 
REMARK    5  A    between atoms: N_12  and  C_13 
ROOT
HETATM    1  C   UNL     1     -42.083  55.470 -51.440  1.00  0.00     0.174 A 
HETATM    2  S   UNL     1     -43.693  55.456 -50.880  1.00  0.00    -0.062 SA
HETATM    3  C   UNL     1     -43.788  57.146 -51.177  1.00  0.00     0.081 A 
HETATM    4  C   UNL     1     -42.592  57.602 -51.703  1.00  0.00     0.052 A 
HETATM    5  N   UNL     1     -41.620  56.621 -51.853  1.00  0.00    -0.228 NA
ENDROOT
BRANCH   1   6
HETATM    6  N   UNL     1     -41.461  54.255 -51.423  1.00  0.00    -0.287 N 
HETATM    7  C   UNL     1     -40.364  54.023 -50.651  1.00  0.00     0.326 C 
HETATM    8  N   UNL     1     -39.763  52.802 -50.793  1.00  0.00    -0.309 N 
HETATM    9  O   UNL     1     -39.927  54.777 -49.783  1.00  0.00    -0.247 OA
HETATM   10  H   UNL     1     -39.146  52.606 -50.012  1.00  0.00     0.170 HD
HETATM   11  H   UNL     1     -41.971  53.468 -51.790  1.00  0.00     0.172 HD
BRANCH   8  12
HETATM   12  C   UNL     1     -39.746  51.879 -51.852  1.00  0.00     0.036 A 
HETATM   13  C   UNL     1     -39.576  50.500 -51.685  1.00  0.00     0.032 A 
HETATM   14  C   UNL     1     -39.617  49.647 -52.794  1.00  0.00     0.044 A 
HETATM   15  C   UNL     1     -39.839  50.171 -54.061  1.00  0.00     0.116 A 
HETATM   16  C   UNL     1     -40.030  51.533 -54.243  1.00  0.00     0.044 A 
HETATM   17  F   UNL     1     -39.884  49.350 -55.117  1.00  0.00    -0.206 F 
HETATM   18  C   UNL     1     -39.994  52.386 -53.137  1.00  0.00     0.032 A 
ENDBRANCH   8  12
ENDBRANCH   1   6
BRANCH   4  19
HETATM   19  C   UNL     1     -42.280  58.989 -52.161  1.00  0.00     0.163 C 
BRANCH  19  20
HETATM   20  C   UNL     1     -41.691  59.075 -53.562  1.00  0.00     0.227 C 
HETATM   21  N   UNL     1     -42.617  58.998 -54.586  1.00  0.00    -0.327 N 
HETATM   22  H   UNL     1     -43.557  58.692 -54.315  1.00  0.00     0.169 HD
HETATM   23  O   UNL     1     -40.486  59.279 -53.704  1.00  0.00    -0.273 OA
BRANCH  21  24
HETATM   24  C   UNL     1     -42.403  59.208 -55.964  1.00  0.00     0.036 A 
HETATM   25  C   UNL     1     -42.411  58.188 -56.920  1.00  0.00     0.056 A 
HETATM   26  C   UNL     1     -42.157  58.485 -58.263  1.00  0.00     0.074 A 
HETATM   27 CL   UNL     1     -42.150  57.213 -59.426  1.00  0.00    -0.081 Cl
HETATM   28  C   UNL     1     -41.902  59.796 -58.654  1.00  0.00     0.138 A 
HETATM   29  F   UNL     1     -41.656  60.098 -59.938  1.00  0.00    -0.204 F 
HETATM   30  C   UNL     1     -41.892  60.819 -57.715  1.00  0.00     0.046 A 
HETATM   31  C   UNL     1     -42.136  60.523 -56.372  1.00  0.00     0.032 A 
ENDBRANCH  21  24
ENDBRANCH  19  20
ENDBRANCH   4  19
TORSDOF 5
ENDMDL
MODEL 7
REMARK VINA RESULT:      -8.0      3.214      8.419
REMARK  5 active torsions:
REMARK  status: ('A' for Active; 'I' for Inactive)
REMARK    1  A    between atoms: C_2  and  N_3 
REMARK       I    between atoms: N_3  and  C_4 
REMARK       I    between atoms: C_4  and  N_5 
REMARK    2  A    between atoms: N_5  and  C_6 
REMARK    3  A    between atoms: C_9  and  C_10 
REMARK    4  A    between atoms: C_10  and  C_11 
REMARK       I    between atoms: C_11  and  N_12 
REMARK    5  A    between atoms: N_12  and  C_13 
ROOT
HETATM    1  C   UNL     1     -42.901  56.965 -53.460  1.00  0.00     0.174 A 
HETATM    2  S   UNL     1     -44.377  57.363 -52.707  1.00  0.00    -0.062 SA
HETATM    3  C   UNL     1     -44.522  58.716 -53.754  1.00  0.00     0.081 A 
HETATM    4  C   UNL     1     -43.446  58.761 -54.623  1.00  0.00     0.052 A 
HETATM    5  N   UNL     1     -42.521  57.740 -54.443  1.00  0.00    -0.228 NA
ENDROOT
BRANCH   1   6
HETATM    6  N   UNL     1     -42.289  55.850 -52.967  1.00  0.00    -0.287 N 
HETATM    7  C   UNL     1     -41.457  55.905 -51.891  1.00  0.00     0.326 C 
HETATM    8  N   UNL     1     -40.820  54.743 -51.549  1.00  0.00    -0.309 N 
HETATM    9  O   UNL     1     -41.303  56.878 -51.155  1.00  0.00    -0.247 OA
HETATM   10  H   UNL     1     -40.451  54.793 -50.605  1.00  0.00     0.170 HD
HETATM   11  H   UNL     1     -42.657  54.956 -53.250  1.00  0.00     0.172 HD
BRANCH   8  12
HETATM   12  C   UNL     1     -40.482  53.601 -52.294  1.00  0.00     0.036 A 
HETATM   13  C   UNL     1     -40.577  53.520 -53.687  1.00  0.00     0.032 A 
HETATM   14  C   UNL     1     -40.175  52.357 -54.354  1.00  0.00     0.044 A 
HETATM   15  C   UNL     1     -39.669  51.285 -53.628  1.00  0.00     0.116 A 
HETATM   16  C   UNL     1     -39.548  51.356 -52.248  1.00  0.00     0.044 A 
HETATM   17  F   UNL     1     -39.279  50.177 -54.271  1.00  0.00    -0.206 F 
HETATM   18  C   UNL     1     -39.944  52.518 -51.582  1.00  0.00     0.032 A 
ENDBRANCH   8  12
ENDBRANCH   1   6
BRANCH   4  19
HETATM   19  C   UNL     1     -43.223  59.736 -55.733  1.00  0.00     0.163 C 
BRANCH  19  20
HETATM   20  C   UNL     1     -43.450  59.169 -57.127  1.00  0.00     0.227 C 
HETATM   21  N   UNL     1     -43.748  57.819 -57.163  1.00  0.00    -0.327 N 
HETATM   22  H   UNL     1     -43.587  57.304 -56.292  1.00  0.00     0.169 HD
HETATM   23  O   UNL     1     -43.436  59.923 -58.100  1.00  0.00    -0.273 OA
BRANCH  21  24
HETATM   24  C   UNL     1     -44.163  57.055 -58.272  1.00  0.00     0.036 A 
HETATM   25  C   UNL     1     -45.409  57.190 -58.892  1.00  0.00     0.056 A 
HETATM   26  C   UNL     1     -45.749  56.366 -59.969  1.00  0.00     0.074 A 
HETATM   27 CL   UNL     1     -47.298  56.531 -60.708  1.00  0.00    -0.081 Cl
HETATM   28  C   UNL     1     -44.847  55.413 -60.433  1.00  0.00     0.138 A 
HETATM   29  F   UNL     1     -45.158  54.614 -61.465  1.00  0.00    -0.204 F 
HETATM   30  C   UNL     1     -43.606  55.269 -59.828  1.00  0.00     0.046 A 
HETATM   31  C   UNL     1     -43.268  56.085 -58.747  1.00  0.00     0.032 A 
ENDBRANCH  21  24
ENDBRANCH  19  20
ENDBRANCH   4  19
TORSDOF 5
ENDMDL
MODEL 8
REMARK VINA RESULT:      -7.9      6.628      9.766
REMARK  5 active torsions:
REMARK  status: ('A' for Active; 'I' for Inactive)
REMARK    1  A    between atoms: C_2  and  N_3 
REMARK       I    between atoms: N_3  and  C_4 
REMARK       I    between atoms: C_4  and  N_5 
REMARK    2  A    between atoms: N_5  and  C_6 
REMARK    3  A    between atoms: C_9  and  C_10 
REMARK    4  A    between atoms: C_10  and  C_11 
REMARK       I    between atoms: C_11  and  N_12 
REMARK    5  A    between atoms: N_12  and  C_13 
ROOT
HETATM    1  C   UNL     1     -43.708  61.171 -50.232  1.00  0.00     0.174 A 
HETATM    2  S   UNL     1     -44.330  62.552 -51.014  1.00  0.00    -0.062 SA
HETATM    3  C   UNL     1     -43.477  62.104 -52.436  1.00  0.00     0.081 A 
HETATM    4  C   UNL     1     -42.794  60.919 -52.225  1.00  0.00     0.052 A 
HETATM    5  N   UNL     1     -42.941  60.391 -50.949  1.00  0.00    -0.228 NA
ENDROOT
BRANCH   1   6
HETATM    6  N   UNL     1     -44.112  61.016 -48.938  1.00  0.00    -0.287 N 
HETATM    7  C   UNL     1     -45.300  60.430 -48.623  1.00  0.00     0.326 C 
HETATM    8  N   UNL     1     -45.646  60.421 -47.299  1.00  0.00    -0.309 N 
HETATM    9  O   UNL     1     -46.035  59.835 -49.409  1.00  0.00    -0.247 OA
HETATM   10  H   UNL     1     -46.380  59.745 -47.118  1.00  0.00     0.170 HD
HETATM   11  H   UNL     1     -43.412  61.109 -48.219  1.00  0.00     0.172 HD
BRANCH   8  12
HETATM   12  C   UNL     1     -45.277  61.247 -46.224  1.00  0.00     0.036 A 
HETATM   13  C   UNL     1     -44.516  60.817 -45.131  1.00  0.00     0.032 A 
HETATM   14  C   UNL     1     -44.156  61.720 -44.125  1.00  0.00     0.044 A 
HETATM   15  C   UNL     1     -44.546  63.050 -44.219  1.00  0.00     0.116 A 
HETATM   16  C   UNL     1     -45.283  63.499 -45.306  1.00  0.00     0.044 A 
HETATM   17  F   UNL     1     -44.192  63.912 -43.258  1.00  0.00    -0.206 F 
HETATM   18  C   UNL     1     -45.640  62.600 -46.313  1.00  0.00     0.032 A 
ENDBRANCH   8  12
ENDBRANCH   1   6
BRANCH   4  19
HETATM   19  C   UNL     1     -41.987  60.154 -53.223  1.00  0.00     0.163 C 
BRANCH  19  20
HETATM   20  C   UNL     1     -41.215  58.976 -52.643  1.00  0.00     0.227 C 
HETATM   21  N   UNL     1     -42.000  57.909 -52.245  1.00  0.00    -0.327 N 
HETATM   22  H   UNL     1     -43.007  58.093 -52.188  1.00  0.00     0.169 HD
HETATM   23  O   UNL     1     -39.985  59.001 -52.633  1.00  0.00    -0.273 OA
BRANCH  21  24
HETATM   24  C   UNL     1     -41.574  56.631 -51.828  1.00  0.00     0.036 A 
HETATM   25  C   UNL     1     -41.397  56.264 -50.491  1.00  0.00     0.056 A 
HETATM   26  C   UNL     1     -40.941  54.982 -50.171  1.00  0.00     0.074 A 
HETATM   27 CL   UNL     1     -40.707  54.552 -48.518  1.00  0.00    -0.081 Cl
HETATM   28  C   UNL     1     -40.667  54.064 -51.181  1.00  0.00     0.138 A 
HETATM   29  F   UNL     1     -40.228  52.829 -50.891  1.00  0.00    -0.204 F 
HETATM   30  C   UNL     1     -40.840  54.415 -52.513  1.00  0.00     0.046 A 
HETATM   31  C   UNL     1     -41.287  55.698 -52.835  1.00  0.00     0.032 A 
ENDBRANCH  21  24
ENDBRANCH  19  20
ENDBRANCH   4  19
TORSDOF 5
ENDMDL
MODEL 9
REMARK VINA RESULT:      -7.8      3.384      8.548
REMARK  5 active torsions:
REMARK  status: ('A' for Active; 'I' for Inactive)
REMARK    1  A    between atoms: C_2  and  N_3 
REMARK       I    between atoms: N_3  and  C_4 
REMARK       I    between atoms: C_4  and  N_5 
REMARK    2  A    between atoms: N_5  and  C_6 
REMARK    3  A    between atoms: C_9  and  C_10 
REMARK    4  A    between atoms: C_10  and  C_11 
REMARK       I    between atoms: C_11  and  N_12 
REMARK    5  A    between atoms: N_12  and  C_13 
ROOT
HETATM    1  C   UNL     1     -41.789  56.203 -53.516  1.00  0.00     0.174 A 
HETATM    2  S   UNL     1     -41.913  56.816 -51.931  1.00  0.00    -0.062 SA
HETATM    3  C   UNL     1     -42.832  58.135 -52.535  1.00  0.00     0.081 A 
HETATM    4  C   UNL     1     -43.001  58.007 -53.903  1.00  0.00     0.052 A 
HETATM    5  N   UNL     1     -42.396  56.884 -54.453  1.00  0.00    -0.228 NA
ENDROOT
BRANCH   1   6
HETATM    6  N   UNL     1     -41.087  55.038 -53.626  1.00  0.00    -0.287 N 
HETATM    7  C   UNL     1     -41.091  54.305 -54.774  1.00  0.00     0.326 C 
HETATM    8  N   UNL     1     -40.435  53.104 -54.735  1.00  0.00    -0.309 N 
HETATM    9  O   UNL     1     -41.551  54.670 -55.855  1.00  0.00    -0.247 OA
HETATM   10  H   UNL     1     -40.249  52.761 -55.671  1.00  0.00     0.170 HD
HETATM   11  H   UNL     1     -40.371  54.862 -52.941  1.00  0.00     0.172 HD
BRANCH   8  12
HETATM   12  C   UNL     1     -40.118  52.239 -53.675  1.00  0.00     0.036 A 
HETATM   13  C   UNL     1     -40.061  52.633 -52.334  1.00  0.00     0.032 A 
HETATM   14  C   UNL     1     -39.781  51.694 -51.335  1.00  0.00     0.044 A 
HETATM   15  C   UNL     1     -39.570  50.364 -51.678  1.00  0.00     0.116 A 
HETATM   16  C   UNL     1     -39.642  49.951 -53.000  1.00  0.00     0.044 A 
HETATM   17  F   UNL     1     -39.309  49.468 -50.718  1.00  0.00    -0.206 F 
HETATM   18  C   UNL     1     -39.927  50.887 -53.998  1.00  0.00     0.032 A 
ENDBRANCH   8  12
ENDBRANCH   1   6
BRANCH   4  19
HETATM   19  C   UNL     1     -43.791  58.902 -54.801  1.00  0.00     0.163 C 
BRANCH  19  20
HETATM   20  C   UNL     1     -44.564  58.177 -55.895  1.00  0.00     0.227 C 
HETATM   21  N   UNL     1     -43.850  57.955 -57.058  1.00  0.00    -0.327 N 
HETATM   22  H   UNL     1     -42.966  58.467 -57.143  1.00  0.00     0.169 HD
HETATM   23  O   UNL     1     -45.705  57.776 -55.670  1.00  0.00    -0.273 OA
BRANCH  21  24
HETATM   24  C   UNL     1     -44.231  57.178 -58.171  1.00  0.00     0.036 A 
HETATM   25  C   UNL     1     -45.437  57.337 -58.859  1.00  0.00     0.056 A 
HETATM   26  C   UNL     1     -45.746  56.499 -59.934  1.00  0.00     0.074 A 
HETATM   27 CL   UNL     1     -47.247  56.694 -60.759  1.00  0.00    -0.081 Cl
HETATM   28  C   UNL     1     -44.852  55.507 -60.329  1.00  0.00     0.138 A 
HETATM   29  F   UNL     1     -45.134  54.694 -61.359  1.00  0.00    -0.204 F 
HETATM   30  C   UNL     1     -43.650  55.339 -59.655  1.00  0.00     0.046 A 
HETATM   31  C   UNL     1     -43.344  56.170 -58.575  1.00  0.00     0.032 A 
ENDBRANCH  21  24
ENDBRANCH  19  20
ENDBRANCH   4  19
TORSDOF 5
ENDMDL
MODEL 10
REMARK VINA RESULT:      -7.7      4.380      5.092
REMARK  5 active torsions:
REMARK  status: ('A' for Active; 'I' for Inactive)
REMARK    1  A    between atoms: C_2  and  N_3 
REMARK       I    between atoms: N_3  and  C_4 
REMARK       I    between atoms: C_4  and  N_5 
REMARK    2  A    between atoms: N_5  and  C_6 
REMARK    3  A    between atoms: C_9  and  C_10 
REMARK    4  A    between atoms: C_10  and  C_11 
REMARK       I    between atoms: C_11  and  N_12 
REMARK    5  A    between atoms: N_12  and  C_13 
ROOT
HETATM    1  C   UNL     1     -42.187  58.790 -56.685  1.00  0.00     0.174 A 
HETATM    2  S   UNL     1     -42.636  57.535 -57.746  1.00  0.00    -0.062 SA
HETATM    3  C   UNL     1     -42.817  56.487 -56.397  1.00  0.00     0.081 A 
HETATM    4  C   UNL     1     -42.543  57.172 -55.226  1.00  0.00     0.052 A 
HETATM    5  N   UNL     1     -42.186  58.502 -55.409  1.00  0.00    -0.228 NA
ENDROOT
BRANCH   1   6
HETATM    6  N   UNL     1     -41.905  59.980 -57.291  1.00  0.00    -0.287 N 
HETATM    7  C   UNL     1     -42.813  60.993 -57.336  1.00  0.00     0.326 C 
HETATM    8  N   UNL     1     -42.459  62.101 -58.058  1.00  0.00    -0.309 N 
HETATM    9  O   UNL     1     -43.874  61.033 -56.714  1.00  0.00    -0.247 OA
HETATM   10  H   UNL     1     -43.045  62.894 -57.821  1.00  0.00     0.170 HD
HETATM   11  H   UNL     1     -40.938  60.187 -57.479  1.00  0.00     0.172 HD
BRANCH   8  12
HETATM   12  C   UNL     1     -41.561  62.282 -59.123  1.00  0.00     0.036 A 
HETATM   13  C   UNL     1     -41.825  61.899 -60.443  1.00  0.00     0.032 A 
HETATM   14  C   UNL     1     -40.890  62.159 -61.452  1.00  0.00     0.044 A 
HETATM   15  C   UNL     1     -39.702  62.809 -61.141  1.00  0.00     0.116 A 
HETATM   16  C   UNL     1     -39.432  63.214 -59.842  1.00  0.00     0.044 A 
HETATM   17  F   UNL     1     -38.814  63.061 -62.111  1.00  0.00    -0.206 F 
HETATM   18  C   UNL     1     -40.366  62.959 -58.835  1.00  0.00     0.032 A 
ENDBRANCH   8  12
ENDBRANCH   1   6
BRANCH   4  19
HETATM   19  C   UNL     1     -42.648  56.649 -53.830  1.00  0.00     0.163 C 
BRANCH  19  20
HETATM   20  C   UNL     1     -42.381  55.156 -53.693  1.00  0.00     0.227 C 
HETATM   21  N   UNL     1     -41.077  54.828 -53.370  1.00  0.00    -0.327 N 
HETATM   22  H   UNL     1     -40.393  55.587 -53.456  1.00  0.00     0.169 HD
HETATM   23  O   UNL     1     -43.313  54.360 -53.794  1.00  0.00    -0.273 OA
BRANCH  21  24
HETATM   24  C   UNL     1     -40.566  53.562 -53.019  1.00  0.00     0.036 A 
HETATM   25  C   UNL     1     -40.356  52.524 -53.931  1.00  0.00     0.056 A 
HETATM   26  C   UNL     1     -39.873  51.289 -53.489  1.00  0.00     0.074 A 
HETATM   27 CL   UNL     1     -39.641  50.013 -54.624  1.00  0.00    -0.081 Cl
HETATM   28  C   UNL     1     -39.593  51.089 -52.140  1.00  0.00     0.138 A 
HETATM   29  F   UNL     1     -39.130  49.910 -51.699  1.00  0.00    -0.204 F 
HETATM   30  C   UNL     1     -39.796  52.112 -51.223  1.00  0.00     0.046 A 
HETATM   31  C   UNL     1     -40.286  53.343 -51.662  1.00  0.00     0.032 A 
ENDBRANCH  21  24
ENDBRANCH  19  20
ENDBRANCH   4  19
TORSDOF 5
ENDMDL
