MODEL 1
REMARK VINA RESULT:      -9.2      0.000      0.000
REMARK  3 active torsions:
REMARK  status: ('A' for Active; 'I' for Inactive)
REMARK    1  A    between atoms: C_2  and  N_3 
REMARK       I    between atoms: N_6  and  C_7 
REMARK    2  A    between atoms: C_7  and  C_8 
REMARK    3  A    between atoms: C_24  and  O_25 
ROOT
HETATM    1  N   UNL     1     -41.010  53.940 -53.596  1.00  0.00    -0.280 NA
HETATM    2  C   UNL     1     -42.474  54.068 -53.364  1.00  0.00     0.115 C 
HETATM    3  C   UNL     1     -42.923  55.540 -53.437  1.00  0.00     0.141 C 
HETATM    4  N   UNL     1     -42.459  56.202 -54.661  1.00  0.00    -0.346 N 
HETATM    5  C   UNL     1     -43.202  57.284 -55.127  1.00  0.00     0.256 C 
HETATM    6  O   UNL     1     -44.163  57.750 -54.519  1.00  0.00    -0.267 OA
HETATM    7  C   UNL     1     -41.009  56.066 -54.880  1.00  0.00     0.141 C 
HETATM    8  C   UNL     1     -40.567  54.592 -54.847  1.00  0.00     0.115 C 
ENDROOT
BRANCH   5   9
HETATM    9  C   UNL     1     -42.868  57.870 -56.442  1.00  0.00     0.064 A 
HETATM   10  C   UNL     1     -43.213  57.227 -57.613  1.00  0.00     0.077 A 
HETATM   11  C   UNL     1     -42.880  57.754 -58.864  1.00  0.00     0.065 A 
HETATM   12  N   UNL     1     -43.890  56.024 -57.830  1.00  0.00    -0.330 N 
HETATM   13  N   UNL     1     -43.357  56.883 -59.843  1.00  0.00    -0.331 N 
HETATM   14  C   UNL     1     -42.179  58.927 -59.008  1.00  0.00     0.074 A 
HETATM   15  C   UNL     1     -43.970  55.796 -59.206  1.00  0.00     0.176 A 
HETATM   16  H   UNL     1     -43.251  56.977 -60.842  1.00  0.00     0.168 HD
HETATM   17  S   UNL     1     -44.647  54.491 -59.949  1.00  0.00    -0.041 SA
HETATM   18  C   UNL     1     -41.797  59.564 -57.829  1.00  0.00     0.119 A 
HETATM   19  F   UNL     1     -41.096  60.703 -57.903  1.00  0.00    -0.206 F 
HETATM   20  C   UNL     1     -42.119  59.050 -56.560  1.00  0.00     0.061 A 
HETATM   21  H   UNL     1     -44.190  55.389 -57.099  1.00  0.00     0.168 HD
ENDBRANCH   5   9
BRANCH   1  22
HETATM   22  C   UNL     1     -40.527  52.642 -53.336  1.00  0.00     0.010 A 
HETATM   23  C   UNL     1     -40.008  52.240 -52.096  1.00  0.00     0.026 A 
HETATM   24  C   UNL     1     -39.537  50.938 -51.889  1.00  0.00     0.038 A 
HETATM   25  C   UNL     1     -39.588  50.013 -52.920  1.00  0.00     0.065 A 
HETATM   26  C   UNL     1     -40.112  50.367 -54.155  1.00  0.00     0.038 A 
HETATM   27  C   UNL     1     -40.579  51.672 -54.353  1.00  0.00     0.026 A 
BRANCH  25  28
HETATM   28  O   UNL     1     -39.116  48.759 -52.677  1.00  0.00    -0.361 OA
HETATM   29  H   UNL     1     -39.684  48.339 -52.011  1.00  0.00     0.217 HD
ENDBRANCH  25  28
ENDBRANCH   1  22
TORSDOF 3
ENDMDL
MODEL 2
REMARK VINA RESULT:      -8.8      2.410      2.870
REMARK  3 active torsions:
REMARK  status: ('A' for Active; 'I' for Inactive)
REMARK    1  A    between atoms: C_2  and  N_3 
REMARK       I    between atoms: N_6  and  C_7 
REMARK    2  A    between atoms: C_7  and  C_8 
REMARK    3  A    between atoms: C_24  and  O_25 
ROOT
HETATM    1  N   UNL     1     -40.991  53.995 -53.251  1.00  0.00    -0.280 NA
HETATM    2  C   UNL     1     -42.417  54.289 -52.949  1.00  0.00     0.115 C 
HETATM    3  C   UNL     1     -42.834  55.663 -53.508  1.00  0.00     0.141 C 
HETATM    4  N   UNL     1     -42.488  55.814 -54.925  1.00  0.00    -0.346 N 
HETATM    5  C   UNL     1     -43.250  56.703 -55.681  1.00  0.00     0.256 C 
HETATM    6  O   UNL     1     -44.127  57.414 -55.196  1.00  0.00    -0.267 OA
HETATM    7  C   UNL     1     -41.075  55.518 -55.211  1.00  0.00     0.141 C 
HETATM    8  C   UNL     1     -40.669  54.129 -54.689  1.00  0.00     0.115 C 
ENDROOT
BRANCH   5   9
HETATM    9  C   UNL     1     -43.045  56.760 -57.143  1.00  0.00     0.064 A 
HETATM   10  C   UNL     1     -42.573  57.906 -57.749  1.00  0.00     0.077 A 
HETATM   11  C   UNL     1     -42.402  57.985 -59.134  1.00  0.00     0.065 A 
HETATM   12  N   UNL     1     -42.201  59.139 -57.208  1.00  0.00    -0.330 N 
HETATM   13  N   UNL     1     -41.919  59.256 -59.440  1.00  0.00    -0.331 N 
HETATM   14  C   UNL     1     -42.705  56.942 -59.976  1.00  0.00     0.074 A 
HETATM   15  C   UNL     1     -41.809  59.985 -58.249  1.00  0.00     0.176 A 
HETATM   16  H   UNL     1     -41.719  59.624 -60.358  1.00  0.00     0.168 HD
HETATM   17  S   UNL     1     -41.319  61.552 -58.111  1.00  0.00    -0.041 SA
HETATM   18  C   UNL     1     -43.215  55.793 -59.374  1.00  0.00     0.119 A 
HETATM   19  F   UNL     1     -43.547  54.748 -60.143  1.00  0.00    -0.206 F 
HETATM   20  C   UNL     1     -43.399  55.693 -57.983  1.00  0.00     0.061 A 
HETATM   21  H   UNL     1     -42.289  59.393 -56.231  1.00  0.00     0.168 HD
ENDBRANCH   5   9
BRANCH   1  22
HETATM   22  C   UNL     1     -40.516  52.848 -52.586  1.00  0.00     0.010 A 
HETATM   23  C   UNL     1     -40.576  52.677 -51.194  1.00  0.00     0.026 A 
HETATM   24  C   UNL     1     -40.086  51.518 -50.579  1.00  0.00     0.038 A 
HETATM   25  C   UNL     1     -39.539  50.506 -51.351  1.00  0.00     0.065 A 
HETATM   26  C   UNL     1     -39.479  50.630 -52.732  1.00  0.00     0.038 A 
HETATM   27  C   UNL     1     -39.970  51.793 -53.337  1.00  0.00     0.026 A 
BRANCH  25  28
HETATM   28  O   UNL     1     -39.071  49.397 -50.712  1.00  0.00    -0.361 OA
HETATM   29  H   UNL     1     -39.393  49.410 -49.796  1.00  0.00     0.217 HD
ENDBRANCH  25  28
ENDBRANCH   1  22
TORSDOF 3
ENDMDL
MODEL 3
REMARK VINA RESULT:      -8.7      3.929      5.190
REMARK  3 active torsions:
REMARK  status: ('A' for Active; 'I' for Inactive)
REMARK    1  A    between atoms: C_2  and  N_3 
REMARK       I    between atoms: N_6  and  C_7 
REMARK    2  A    between atoms: C_7  and  C_8 
REMARK    3  A    between atoms: C_24  and  O_25 
ROOT
HETATM    1  N   UNL     1     -41.075  53.839 -53.505  1.00  0.00    -0.280 NA
HETATM    2  C   UNL     1     -40.320  54.604 -54.533  1.00  0.00     0.115 C 
HETATM    3  C   UNL     1     -41.030  55.927 -54.876  1.00  0.00     0.141 C 
HETATM    4  N   UNL     1     -41.356  56.710 -53.680  1.00  0.00    -0.346 N 
HETATM    5  C   UNL     1     -41.474  58.090 -53.827  1.00  0.00     0.256 C 
HETATM    6  O   UNL     1     -41.402  58.657 -54.915  1.00  0.00    -0.267 OA
HETATM    7  C   UNL     1     -42.100  55.941 -52.669  1.00  0.00     0.141 C 
HETATM    8  C   UNL     1     -41.370  54.638 -52.296  1.00  0.00     0.115 C 
ENDROOT
BRANCH   5   9
HETATM    9  C   UNL     1     -41.633  58.929 -52.621  1.00  0.00     0.064 A 
HETATM   10  C   UNL     1     -42.736  59.743 -52.464  1.00  0.00     0.077 A 
HETATM   11  C   UNL     1     -42.887  60.565 -51.343  1.00  0.00     0.065 A 
HETATM   12  N   UNL     1     -43.847  59.945 -53.286  1.00  0.00    -0.330 N 
HETATM   13  N   UNL     1     -44.088  61.260 -51.473  1.00  0.00    -0.331 N 
HETATM   14  C   UNL     1     -41.948  60.627 -50.342  1.00  0.00     0.074 A 
HETATM   15  C   UNL     1     -44.681  60.893 -52.688  1.00  0.00     0.176 A 
HETATM   16  H   UNL     1     -44.463  61.947 -50.836  1.00  0.00     0.168 HD
HETATM   17  S   UNL     1     -46.094  61.483 -53.296  1.00  0.00    -0.041 SA
HETATM   18  C   UNL     1     -40.814  59.833 -50.511  1.00  0.00     0.119 A 
HETATM   19  F   UNL     1     -39.854  59.865 -49.578  1.00  0.00    -0.206 F 
HETATM   20  C   UNL     1     -40.640  59.003 -51.632  1.00  0.00     0.061 A 
HETATM   21  H   UNL     1     -43.972  59.532 -54.203  1.00  0.00     0.168 HD
ENDBRANCH   5   9
BRANCH   1  22
HETATM   22  C   UNL     1     -40.571  52.537 -53.313  1.00  0.00     0.010 A 
HETATM   23  C   UNL     1     -40.528  51.564 -54.323  1.00  0.00     0.026 A 
HETATM   24  C   UNL     1     -40.021  50.282 -54.081  1.00  0.00     0.038 A 
HETATM   25  C   UNL     1     -39.536  49.957 -52.824  1.00  0.00     0.065 A 
HETATM   26  C   UNL     1     -39.544  50.899 -51.804  1.00  0.00     0.038 A 
HETATM   27  C   UNL     1     -40.055  52.177 -52.056  1.00  0.00     0.026 A 
BRANCH  25  28
HETATM   28  O   UNL     1     -39.055  48.698 -52.630  1.00  0.00    -0.361 OA
HETATM   29  H   UNL     1     -39.609  48.254 -51.968  1.00  0.00     0.217 HD
ENDBRANCH  25  28
ENDBRANCH   1  22
TORSDOF 3
ENDMDL
MODEL 4
REMARK VINA RESULT:      -8.3      3.950      5.364
REMARK  3 active torsions:
REMARK  status: ('A' for Active; 'I' for Inactive)
REMARK    1  A    between atoms: C_2  and  N_3 
REMARK       I    between atoms: N_6  and  C_7 
REMARK    2  A    between atoms: C_7  and  C_8 
REMARK    3  A    between atoms: C_24  and  O_25 
ROOT
HETATM    1  N   UNL     1     -41.413  53.674 -53.821  1.00  0.00    -0.280 NA
HETATM    2  C   UNL     1     -40.563  54.543 -54.679  1.00  0.00     0.115 C 
HETATM    3  C   UNL     1     -41.353  55.761 -55.195  1.00  0.00     0.141 C 
HETATM    4  N   UNL     1     -42.029  56.483 -54.113  1.00  0.00    -0.346 N 
HETATM    5  C   UNL     1     -42.295  57.836 -54.311  1.00  0.00     0.256 C 
HETATM    6  O   UNL     1     -42.066  58.416 -55.370  1.00  0.00    -0.267 OA
HETATM    7  C   UNL     1     -42.865  55.613 -53.269  1.00  0.00     0.141 C 
HETATM    8  C   UNL     1     -42.066  54.417 -52.720  1.00  0.00     0.115 C 
ENDROOT
BRANCH   5   9
HETATM    9  C   UNL     1     -42.820  58.637 -53.186  1.00  0.00     0.064 A 
HETATM   10  C   UNL     1     -41.981  59.097 -52.191  1.00  0.00     0.077 A 
HETATM   11  C   UNL     1     -42.466  59.831 -51.105  1.00  0.00     0.065 A 
HETATM   12  N   UNL     1     -40.601  58.958 -52.022  1.00  0.00    -0.330 N 
HETATM   13  N   UNL     1     -41.389  60.147 -50.279  1.00  0.00    -0.331 N 
HETATM   14  C   UNL     1     -43.799  60.125 -50.950  1.00  0.00     0.074 A 
HETATM   15  C   UNL     1     -40.229  59.591 -50.835  1.00  0.00     0.176 A 
HETATM   16  H   UNL     1     -41.422  60.650 -49.405  1.00  0.00     0.168 HD
HETATM   17  S   UNL     1     -38.713  59.666 -50.193  1.00  0.00    -0.041 SA
HETATM   18  C   UNL     1     -44.657  59.633 -51.932  1.00  0.00     0.119 A 
HETATM   19  F   UNL     1     -45.971  59.871 -51.826  1.00  0.00    -0.206 F 
HETATM   20  C   UNL     1     -44.191  58.890 -53.031  1.00  0.00     0.061 A 
HETATM   21  H   UNL     1     -39.997  58.410 -52.624  1.00  0.00     0.168 HD
ENDBRANCH   5   9
BRANCH   1  22
HETATM   22  C   UNL     1     -40.794  52.451 -53.498  1.00  0.00     0.010 A 
HETATM   23  C   UNL     1     -40.169  52.198 -52.266  1.00  0.00     0.026 A 
HETATM   24  C   UNL     1     -39.563  50.965 -51.995  1.00  0.00     0.038 A 
HETATM   25  C   UNL     1     -39.584  49.961 -52.949  1.00  0.00     0.065 A 
HETATM   26  C   UNL     1     -40.209  50.166 -54.171  1.00  0.00     0.038 A 
HETATM   27  C   UNL     1     -40.810  51.403 -54.434  1.00  0.00     0.026 A 
BRANCH  25  28
HETATM   28  O   UNL     1     -38.980  48.778 -52.645  1.00  0.00    -0.361 OA
HETATM   29  H   UNL     1     -38.618  48.397 -53.462  1.00  0.00     0.217 HD
ENDBRANCH  25  28
ENDBRANCH   1  22
TORSDOF 3
ENDMDL
MODEL 5
REMARK VINA RESULT:      -8.1      4.843      5.949
REMARK  3 active torsions:
REMARK  status: ('A' for Active; 'I' for Inactive)
REMARK    1  A    between atoms: C_2  and  N_3 
REMARK       I    between atoms: N_6  and  C_7 
REMARK    2  A    between atoms: C_7  and  C_8 
REMARK    3  A    between atoms: C_24  and  O_25 
ROOT
HETATM    1  N   UNL     1     -41.701  54.421 -51.780  1.00  0.00    -0.280 NA
HETATM    2  C   UNL     1     -43.179  54.284 -51.874  1.00  0.00     0.115 C 
HETATM    3  C   UNL     1     -43.893  55.369 -51.046  1.00  0.00     0.141 C 
HETATM    4  N   UNL     1     -43.404  56.716 -51.358  1.00  0.00    -0.346 N 
HETATM    5  C   UNL     1     -44.274  57.782 -51.137  1.00  0.00     0.256 C 
HETATM    6  O   UNL     1     -45.381  57.648 -50.621  1.00  0.00    -0.267 OA
HETATM    7  C   UNL     1     -41.940  56.839 -51.265  1.00  0.00     0.141 C 
HETATM    8  C   UNL     1     -41.227  55.780 -52.124  1.00  0.00     0.115 C 
ENDROOT
BRANCH   5   9
HETATM    9  C   UNL     1     -43.885  59.132 -51.595  1.00  0.00     0.064 A 
HETATM   10  C   UNL     1     -44.045  60.232 -50.776  1.00  0.00     0.077 A 
HETATM   11  C   UNL     1     -43.709  61.520 -51.205  1.00  0.00     0.065 A 
HETATM   12  N   UNL     1     -44.536  60.337 -49.472  1.00  0.00    -0.330 N 
HETATM   13  N   UNL     1     -43.984  62.408 -50.167  1.00  0.00    -0.331 N 
HETATM   14  C   UNL     1     -43.218  61.774 -52.462  1.00  0.00     0.074 A 
HETATM   15  C   UNL     1     -44.516  61.681 -49.093  1.00  0.00     0.176 A 
HETATM   16  H   UNL     1     -43.870  63.410 -50.180  1.00  0.00     0.168 HD
HETATM   17  S   UNL     1     -45.029  62.306 -47.657  1.00  0.00    -0.041 SA
HETATM   18  C   UNL     1     -43.086  60.672 -53.307  1.00  0.00     0.119 A 
HETATM   19  F   UNL     1     -42.630  60.858 -54.552  1.00  0.00    -0.206 F 
HETATM   20  C   UNL     1     -43.422  59.369 -52.897  1.00  0.00     0.061 A 
HETATM   21  H   UNL     1     -44.921  59.569 -48.935  1.00  0.00     0.168 HD
ENDBRANCH   5   9
BRANCH   1  22
HETATM   22  C   UNL     1     -41.014  53.332 -52.353  1.00  0.00     0.010 A 
HETATM   23  C   UNL     1     -40.119  52.517 -51.641  1.00  0.00     0.026 A 
HETATM   24  C   UNL     1     -39.458  51.448 -52.257  1.00  0.00     0.038 A 
HETATM   25  C   UNL     1     -39.690  51.171 -53.595  1.00  0.00     0.065 A 
HETATM   26  C   UNL     1     -40.581  51.942 -54.327  1.00  0.00     0.038 A 
HETATM   27  C   UNL     1     -41.237  53.010 -53.703  1.00  0.00     0.026 A 
BRANCH  25  28
HETATM   28  O   UNL     1     -39.022  50.124 -54.155  1.00  0.00    -0.361 OA
HETATM   29  H   UNL     1     -39.281  49.310 -53.694  1.00  0.00     0.217 HD
ENDBRANCH  25  28
ENDBRANCH   1  22
TORSDOF 3
ENDMDL
MODEL 6
REMARK VINA RESULT:      -8.0      3.418      4.232
REMARK  3 active torsions:
REMARK  status: ('A' for Active; 'I' for Inactive)
REMARK    1  A    between atoms: C_2  and  N_3 
REMARK       I    between atoms: N_6  and  C_7 
REMARK    2  A    between atoms: C_7  and  C_8 
REMARK    3  A    between atoms: C_24  and  O_25 
ROOT
HETATM    1  N   UNL     1     -41.647  54.224 -51.960  1.00  0.00    -0.280 NA
HETATM    2  C   UNL     1     -43.113  54.022 -51.802  1.00  0.00     0.115 C 
HETATM    3  C   UNL     1     -43.743  55.147 -50.959  1.00  0.00     0.141 C 
HETATM    4  N   UNL     1     -43.381  56.480 -51.452  1.00  0.00    -0.346 N 
HETATM    5  C   UNL     1     -44.260  57.526 -51.180  1.00  0.00     0.256 C 
HETATM    6  O   UNL     1     -45.263  57.394 -50.482  1.00  0.00    -0.267 OA
HETATM    7  C   UNL     1     -41.929  56.666 -51.607  1.00  0.00     0.141 C 
HETATM    8  C   UNL     1     -41.306  55.565 -52.483  1.00  0.00     0.115 C 
ENDROOT
BRANCH   5   9
HETATM    9  C   UNL     1     -44.020  58.845 -51.800  1.00  0.00     0.064 A 
HETATM   10  C   UNL     1     -44.326  59.071 -53.127  1.00  0.00     0.077 A 
HETATM   11  C   UNL     1     -44.078  60.304 -53.737  1.00  0.00     0.065 A 
HETATM   12  N   UNL     1     -44.882  58.228 -54.093  1.00  0.00    -0.330 N 
HETATM   13  N   UNL     1     -44.487  60.220 -55.066  1.00  0.00    -0.331 N 
HETATM   14  C   UNL     1     -43.504  61.356 -53.066  1.00  0.00     0.074 A 
HETATM   15  C   UNL     1     -44.972  58.926 -55.299  1.00  0.00     0.176 A 
HETATM   16  H   UNL     1     -44.416  60.941 -55.769  1.00  0.00     0.168 HD
HETATM   17  S   UNL     1     -45.531  58.343 -56.734  1.00  0.00    -0.041 SA
HETATM   18  C   UNL     1     -43.160  61.125 -51.735  1.00  0.00     0.119 A 
HETATM   19  F   UNL     1     -42.579  62.106 -51.033  1.00  0.00    -0.206 F 
HETATM   20  C   UNL     1     -43.397  59.891 -51.103  1.00  0.00     0.061 A 
HETATM   21  H   UNL     1     -45.099  57.248 -53.951  1.00  0.00     0.168 HD
ENDBRANCH   5   9
BRANCH   1  22
HETATM   22  C   UNL     1     -41.003  53.117 -52.547  1.00  0.00     0.010 A 
HETATM   23  C   UNL     1     -41.163  52.748 -53.891  1.00  0.00     0.026 A 
HETATM   24  C   UNL     1     -40.503  51.636 -54.426  1.00  0.00     0.038 A 
HETATM   25  C   UNL     1     -39.661  50.880 -53.625  1.00  0.00     0.065 A 
HETATM   26  C   UNL     1     -39.463  51.225 -52.295  1.00  0.00     0.038 A 
HETATM   27  C   UNL     1     -40.129  52.337 -51.769  1.00  0.00     0.026 A 
BRANCH  25  28
HETATM   28  O   UNL     1     -39.042  49.805 -54.185  1.00  0.00    -0.361 OA
HETATM   29  H   UNL     1     -38.882  49.995 -55.124  1.00  0.00     0.217 HD
ENDBRANCH  25  28
ENDBRANCH   1  22
TORSDOF 3
ENDMDL
MODEL 7
REMARK VINA RESULT:      -8.0      1.381      1.836
REMARK  3 active torsions:
REMARK  status: ('A' for Active; 'I' for Inactive)
REMARK    1  A    between atoms: C_2  and  N_3 
REMARK       I    between atoms: N_6  and  C_7 
REMARK    2  A    between atoms: C_7  and  C_8 
REMARK    3  A    between atoms: C_24  and  O_25 
ROOT
HETATM    1  N   UNL     1     -41.940  55.195 -53.873  1.00  0.00    -0.280 NA
HETATM    2  C   UNL     1     -43.415  55.001 -53.885  1.00  0.00     0.115 C 
HETATM    3  C   UNL     1     -44.151  56.332 -54.133  1.00  0.00     0.141 C 
HETATM    4  N   UNL     1     -43.639  57.038 -55.312  1.00  0.00    -0.346 N 
HETATM    5  C   UNL     1     -44.507  57.909 -55.966  1.00  0.00     0.256 C 
HETATM    6  O   UNL     1     -45.634  58.169 -55.552  1.00  0.00    -0.267 OA
HETATM    7  C   UNL     1     -42.178  57.222 -55.289  1.00  0.00     0.141 C 
HETATM    8  C   UNL     1     -41.442  55.886 -55.082  1.00  0.00     0.115 C 
ENDROOT
BRANCH   5   9
HETATM    9  C   UNL     1     -44.089  58.509 -57.250  1.00  0.00     0.064 A 
HETATM   10  C   UNL     1     -44.215  57.811 -58.434  1.00  0.00     0.077 A 
HETATM   11  C   UNL     1     -43.798  58.352 -59.653  1.00  0.00     0.065 A 
HETATM   12  N   UNL     1     -44.718  56.532 -58.691  1.00  0.00    -0.330 N 
HETATM   13  N   UNL     1     -44.051  57.416 -60.653  1.00  0.00    -0.331 N 
HETATM   14  C   UNL     1     -43.225  59.597 -59.749  1.00  0.00     0.074 A 
HETATM   15  C   UNL     1     -44.607  56.275 -60.060  1.00  0.00     0.176 A 
HETATM   16  H   UNL     1     -43.839  57.505 -61.636  1.00  0.00     0.168 HD
HETATM   17  S   UNL     1     -45.035  54.887 -60.837  1.00  0.00    -0.041 SA
HETATM   18  C   UNL     1     -43.062  60.295 -58.553  1.00  0.00     0.119 A 
HETATM   19  F   UNL     1     -42.493  61.507 -58.580  1.00  0.00    -0.206 F 
HETATM   20  C   UNL     1     -43.472  59.767 -57.315  1.00  0.00     0.061 A 
HETATM   21  H   UNL     1     -45.028  55.878 -57.982  1.00  0.00     0.168 HD
ENDBRANCH   5   9
BRANCH   1  22
HETATM   22  C   UNL     1     -41.241  54.048 -53.449  1.00  0.00     0.010 A 
HETATM   23  C   UNL     1     -40.760  53.063 -54.325  1.00  0.00     0.026 A 
HETATM   24  C   UNL     1     -40.073  51.938 -53.853  1.00  0.00     0.038 A 
HETATM   25  C   UNL     1     -39.848  51.787 -52.493  1.00  0.00     0.065 A 
HETATM   26  C   UNL     1     -40.292  52.748 -51.597  1.00  0.00     0.038 A 
HETATM   27  C   UNL     1     -40.979  53.869 -52.079  1.00  0.00     0.026 A 
BRANCH  25  28
HETATM   28  O   UNL     1     -39.180  50.676 -52.077  1.00  0.00    -0.361 OA
HETATM   29  H   UNL     1     -38.477  50.480 -52.718  1.00  0.00     0.217 HD
ENDBRANCH  25  28
ENDBRANCH   1  22
TORSDOF 3
ENDMDL
MODEL 8
REMARK VINA RESULT:      -8.0      2.764      3.118
REMARK  3 active torsions:
REMARK  status: ('A' for Active; 'I' for Inactive)
REMARK    1  A    between atoms: C_2  and  N_3 
REMARK       I    between atoms: N_6  and  C_7 
REMARK    2  A    between atoms: C_7  and  C_8 
REMARK    3  A    between atoms: C_24  and  O_25 
ROOT
HETATM    1  N   UNL     1     -40.680  54.290 -53.657  1.00  0.00    -0.280 NA
HETATM    2  C   UNL     1     -41.210  54.996 -52.459  1.00  0.00     0.115 C 
HETATM    3  C   UNL     1     -41.349  56.508 -52.720  1.00  0.00     0.141 C 
HETATM    4  N   UNL     1     -42.092  56.794 -53.951  1.00  0.00    -0.346 N 
HETATM    5  C   UNL     1     -42.756  58.016 -54.031  1.00  0.00     0.256 C 
HETATM    6  O   UNL     1     -42.674  58.882 -53.163  1.00  0.00    -0.267 OA
HETATM    7  C   UNL     1     -41.560  56.088 -55.127  1.00  0.00     0.141 C 
HETATM    8  C   UNL     1     -41.460  54.571 -54.882  1.00  0.00     0.115 C 
ENDROOT
BRANCH   5   9
HETATM    9  C   UNL     1     -43.652  58.272 -55.178  1.00  0.00     0.064 A 
HETATM   10  C   UNL     1     -43.268  59.110 -56.205  1.00  0.00     0.077 A 
HETATM   11  C   UNL     1     -44.115  59.385 -57.282  1.00  0.00     0.065 A 
HETATM   12  N   UNL     1     -42.085  59.826 -56.406  1.00  0.00    -0.330 N 
HETATM   13  N   UNL     1     -43.452  60.258 -58.143  1.00  0.00    -0.331 N 
HETATM   14  C   UNL     1     -45.379  58.857 -57.380  1.00  0.00     0.074 A 
HETATM   15  C   UNL     1     -42.196  60.550 -57.595  1.00  0.00     0.176 A 
HETATM   16  H   UNL     1     -43.812  60.657 -58.997  1.00  0.00     0.168 HD
HETATM   17  S   UNL     1     -41.070  61.568 -58.236  1.00  0.00    -0.041 SA
HETATM   18  C   UNL     1     -45.787  58.036 -56.329  1.00  0.00     0.119 A 
HETATM   19  F   UNL     1     -47.016  57.506 -56.359  1.00  0.00    -0.206 F 
HETATM   20  C   UNL     1     -44.953  57.750 -55.234  1.00  0.00     0.061 A 
HETATM   21  H   UNL     1     -41.316  59.872 -55.746  1.00  0.00     0.168 HD
ENDBRANCH   5   9
BRANCH   1  22
HETATM   22  C   UNL     1     -40.348  52.946 -53.396  1.00  0.00     0.010 A 
HETATM   23  C   UNL     1     -39.937  52.477 -52.138  1.00  0.00     0.026 A 
HETATM   24  C   UNL     1     -39.613  51.131 -51.931  1.00  0.00     0.038 A 
HETATM   25  C   UNL     1     -39.707  50.229 -52.979  1.00  0.00     0.065 A 
HETATM   26  C   UNL     1     -40.127  50.650 -54.233  1.00  0.00     0.038 A 
HETATM   27  C   UNL     1     -40.447  51.999 -54.430  1.00  0.00     0.026 A 
BRANCH  25  28
HETATM   28  O   UNL     1     -39.379  48.930 -52.735  1.00  0.00    -0.361 OA
HETATM   29  H   UNL     1     -39.198  48.492 -53.583  1.00  0.00     0.217 HD
ENDBRANCH  25  28
ENDBRANCH   1  22
TORSDOF 3
ENDMDL
MODEL 9
REMARK VINA RESULT:      -7.9     15.934     18.345
REMARK  3 active torsions:
REMARK  status: ('A' for Active; 'I' for Inactive)
REMARK    1  A    between atoms: C_2  and  N_3 
REMARK       I    between atoms: N_6  and  C_7 
REMARK    2  A    between atoms: C_7  and  C_8 
REMARK    3  A    between atoms: C_24  and  O_25 
ROOT
HETATM    1  N   UNL     1     -37.421  39.541 -59.379  1.00  0.00    -0.280 NA
HETATM    2  C   UNL     1     -37.067  40.975 -59.550  1.00  0.00     0.115 C 
HETATM    3  C   UNL     1     -36.671  41.616 -58.206  1.00  0.00     0.141 C 
HETATM    4  N   UNL     1     -35.650  40.837 -57.498  1.00  0.00    -0.346 N 
HETATM    5  C   UNL     1     -34.824  41.520 -56.608  1.00  0.00     0.256 C 
HETATM    6  O   UNL     1     -34.971  42.708 -56.334  1.00  0.00    -0.267 OA
HETATM    7  C   UNL     1     -36.011  39.419 -57.337  1.00  0.00     0.141 C 
HETATM    8  C   UNL     1     -36.367  38.768 -58.686  1.00  0.00     0.115 C 
ENDROOT
BRANCH   5   9
HETATM    9  C   UNL     1     -33.678  40.809 -56.004  1.00  0.00     0.064 A 
HETATM   10  C   UNL     1     -33.562  40.686 -54.634  1.00  0.00     0.077 A 
HETATM   11  C   UNL     1     -32.469  40.042 -54.046  1.00  0.00     0.065 A 
HETATM   12  N   UNL     1     -34.394  41.128 -53.603  1.00  0.00    -0.330 N 
HETATM   13  N   UNL     1     -32.635  40.082 -52.663  1.00  0.00    -0.331 N 
HETATM   14  C   UNL     1     -31.442  39.509 -54.786  1.00  0.00     0.074 A 
HETATM   15  C   UNL     1     -33.821  40.772 -52.380  1.00  0.00     0.176 A 
HETATM   16  H   UNL     1     -32.001  39.721 -51.966  1.00  0.00     0.168 HD
HETATM   17  S   UNL     1     -34.415  41.106 -50.881  1.00  0.00    -0.041 SA
HETATM   18  C   UNL     1     -31.535  39.660 -56.169  1.00  0.00     0.119 A 
HETATM   19  F   UNL     1     -30.555  39.177 -56.943  1.00  0.00    -0.206 F 
HETATM   20  C   UNL     1     -32.623  40.307 -56.781  1.00  0.00     0.061 A 
HETATM   21  H   UNL     1     -35.228  41.690 -53.733  1.00  0.00     0.168 HD
ENDBRANCH   5   9
BRANCH   1  22
HETATM   22  C   UNL     1     -37.981  38.974 -60.540  1.00  0.00     0.010 A 
HETATM   23  C   UNL     1     -39.236  38.346 -60.570  1.00  0.00     0.026 A 
HETATM   24  C   UNL     1     -39.748  37.793 -61.750  1.00  0.00     0.038 A 
HETATM   25  C   UNL     1     -39.015  37.871 -62.924  1.00  0.00     0.065 A 
HETATM   26  C   UNL     1     -37.779  38.501 -62.939  1.00  0.00     0.038 A 
HETATM   27  C   UNL     1     -37.275  39.048 -61.753  1.00  0.00     0.026 A 
BRANCH  25  28
HETATM   28  O   UNL     1     -39.549  37.318 -64.048  1.00  0.00    -0.361 OA
HETATM   29  H   UNL     1     -38.920  37.436 -64.779  1.00  0.00     0.217 HD
ENDBRANCH  25  28
ENDBRANCH   1  22
TORSDOF 3
ENDMDL
MODEL 10
REMARK VINA RESULT:      -7.7      2.758      3.351
REMARK  3 active torsions:
REMARK  status: ('A' for Active; 'I' for Inactive)
REMARK    1  A    between atoms: C_2  and  N_3 
REMARK       I    between atoms: N_6  and  C_7 
REMARK    2  A    between atoms: C_7  and  C_8 
REMARK    3  A    between atoms: C_24  and  O_25 
ROOT
HETATM    1  N   UNL     1     -41.462  54.464 -52.993  1.00  0.00    -0.280 NA
HETATM    2  C   UNL     1     -42.893  54.267 -53.351  1.00  0.00     0.115 C 
HETATM    3  C   UNL     1     -43.611  55.616 -53.542  1.00  0.00     0.141 C 
HETATM    4  N   UNL     1     -42.890  56.503 -54.461  1.00  0.00    -0.346 N 
HETATM    5  C   UNL     1     -43.635  57.463 -55.143  1.00  0.00     0.256 C 
HETATM    6  O   UNL     1     -44.833  57.647 -54.945  1.00  0.00    -0.267 OA
HETATM    7  C   UNL     1     -41.476  56.688 -54.098  1.00  0.00     0.141 C 
HETATM    8  C   UNL     1     -40.748  55.341 -53.947  1.00  0.00     0.115 C 
ENDROOT
BRANCH   5   9
HETATM    9  C   UNL     1     -42.980  58.261 -56.200  1.00  0.00     0.064 A 
HETATM   10  C   UNL     1     -42.916  59.637 -56.113  1.00  0.00     0.077 A 
HETATM   11  C   UNL     1     -42.326  60.409 -57.118  1.00  0.00     0.065 A 
HETATM   12  N   UNL     1     -43.380  60.513 -55.127  1.00  0.00    -0.330 N 
HETATM   13  N   UNL     1     -42.419  61.749 -56.747  1.00  0.00    -0.331 N 
HETATM   14  C   UNL     1     -41.790  59.854 -58.254  1.00  0.00     0.074 A 
HETATM   15  C   UNL     1     -43.089  61.822 -55.518  1.00  0.00     0.176 A 
HETATM   16  H   UNL     1     -42.104  62.548 -57.277  1.00  0.00     0.168 HD
HETATM   17  S   UNL     1     -43.470  63.200 -54.700  1.00  0.00    -0.041 SA
HETATM   18  C   UNL     1     -41.881  58.468 -58.366  1.00  0.00     0.119 A 
HETATM   19  F   UNL     1     -41.393  57.870 -59.460  1.00  0.00    -0.206 F 
HETATM   20  C   UNL     1     -42.474  57.673 -57.369  1.00  0.00     0.061 A 
HETATM   21  H   UNL     1     -43.914  60.236 -54.312  1.00  0.00     0.168 HD
ENDBRANCH   5   9
BRANCH   1  22
HETATM   22  C   UNL     1     -40.824  53.268 -52.611  1.00  0.00     0.010 A 
HETATM   23  C   UNL     1     -40.282  52.350 -53.525  1.00  0.00     0.026 A 
HETATM   24  C   UNL     1     -39.660  51.172 -53.095  1.00  0.00     0.038 A 
HETATM   25  C   UNL     1     -39.561  50.899 -51.739  1.00  0.00     0.065 A 
HETATM   26  C   UNL     1     -40.068  51.790 -50.805  1.00  0.00     0.038 A 
HETATM   27  C   UNL     1     -40.690  52.965 -51.245  1.00  0.00     0.026 A 
BRANCH  25  28
HETATM   28  O   UNL     1     -38.952  49.740 -51.365  1.00  0.00    -0.361 OA
HETATM   29  H   UNL     1     -39.026  49.102 -52.093  1.00  0.00     0.217 HD
ENDBRANCH  25  28
ENDBRANCH   1  22
TORSDOF 3
ENDMDL
