MODEL 1
REMARK VINA RESULT:      -9.5      0.000      0.000
REMARK  3 active torsions:
REMARK  status: ('A' for Active; 'I' for Inactive)
REMARK    1  A    between atoms: O_2  and  C_3 
REMARK    2  A    between atoms: C_5  and  C_26 
REMARK    3  A    between atoms: C_11  and  C_15 
ROOT
HETATM    1  C   UNL     1     -40.727  54.675 -53.451  1.00  0.00     0.096 A 
HETATM    2  C   UNL     1     -40.358  53.326 -53.530  1.00  0.00     0.051 A 
HETATM    3  C   UNL     1     -40.300  52.526 -52.373  1.00  0.00    -0.019 A 
HETATM    4  C   UNL     1     -40.621  53.093 -51.135  1.00  0.00     0.031 A 
HETATM    5  C   UNL     1     -40.983  54.440 -51.069  1.00  0.00     0.062 A 
HETATM    6  C   UNL     1     -41.315  55.083 -49.800  1.00  0.00     0.259 A 
HETATM    7  O   UNL     1     -41.338  54.537 -48.716  1.00  0.00    -0.267 OA
HETATM    8  N   UNL     1     -41.633  56.457 -49.861  1.00  0.00    -0.312 N 
HETATM    9  C   UNL     1     -41.646  57.144 -50.986  1.00  0.00     0.091 A 
HETATM   10  N   UNL     1     -41.367  56.570 -52.146  1.00  0.00    -0.342 N 
HETATM   11  H   UNL     1     -41.374  57.093 -53.022  1.00  0.00     0.167 HD
HETATM   12  C   UNL     1     -41.035  55.244 -52.205  1.00  0.00     0.083 A 
HETATM   13  H   UNL     1     -41.847  56.919 -48.978  1.00  0.00     0.170 HD
ENDROOT
BRANCH   9  14
HETATM   14  C   UNL     1     -41.959  58.608 -50.992  1.00  0.00     0.082 C 
HETATM   15  C   UNL     1     -40.955  59.427 -51.798  1.00  0.00     0.188 C 
HETATM   16  O   UNL     1     -40.945  59.047 -53.180  1.00  0.00    -0.350 OA
HETATM   17  C   UNL     1     -42.181  59.016 -53.773  1.00  0.00     0.075 A 
HETATM   18  C   UNL     1     -42.194  59.024 -55.169  1.00  0.00     0.040 A 
HETATM   19  C   UNL     1     -43.370  58.886 -53.045  1.00  0.00    -0.021 A 
HETATM   20  C   UNL     1     -43.406  58.934 -55.852  1.00  0.00     0.045 A 
HETATM   21  C   UNL     1     -44.590  58.831 -55.132  1.00  0.00     0.117 A 
HETATM   22  F   UNL     1     -45.754  58.741 -55.785  1.00  0.00    -0.206 F 
HETATM   23  C   UNL     1     -44.583  58.810 -53.740  1.00  0.00     0.052 A 
HETATM   24  C   UNL     1     -43.363  58.862 -51.544  1.00  0.00     0.056 C 
ENDBRANCH   9  14
BRANCH   1  25
HETATM   25  O   UNL     1     -40.817  55.544 -54.513  1.00  0.00    -0.354 OA
HETATM   26  C   UNL     1     -41.825  55.273 -55.487  1.00  0.00     0.210 C 
ENDBRANCH   1  25
BRANCH   3  27
HETATM   27  C   UNL     1     -39.892  51.136 -52.472  1.00  0.00     0.010 A 
HETATM   28  C   UNL     1     -39.720  50.301 -53.601  1.00  0.00     0.152 A 
HETATM   29  N   UNL     1     -39.340  49.066 -53.275  1.00  0.00    -0.187 NA
HETATM   30  N   UNL     1     -39.261  49.097 -51.936  1.00  0.00    -0.289 N 
HETATM   31  H   UNL     1     -38.983  48.250 -51.449  1.00  0.00     0.188 HD
HETATM   32  C   UNL     1     -39.585  50.316 -51.406  1.00  0.00     0.123 A 
ENDBRANCH   3  27
TORSDOF 3
ENDMDL
MODEL 2
REMARK VINA RESULT:      -9.1      0.874      2.589
REMARK  3 active torsions:
REMARK  status: ('A' for Active; 'I' for Inactive)
REMARK    1  A    between atoms: O_2  and  C_3 
REMARK    2  A    between atoms: C_5  and  C_26 
REMARK    3  A    between atoms: C_11  and  C_15 
ROOT
HETATM    1  C   UNL     1     -40.896  54.053 -50.259  1.00  0.00     0.096 A 
HETATM    2  C   UNL     1     -40.488  52.763 -50.621  1.00  0.00     0.051 A 
HETATM    3  C   UNL     1     -40.259  52.432 -51.969  1.00  0.00    -0.019 A 
HETATM    4  C   UNL     1     -40.439  53.411 -52.953  1.00  0.00     0.031 A 
HETATM    5  C   UNL     1     -40.851  54.692 -52.579  1.00  0.00     0.062 A 
HETATM    6  C   UNL     1     -41.065  55.747 -53.568  1.00  0.00     0.259 A 
HETATM    7  O   UNL     1     -40.892  55.639 -54.765  1.00  0.00    -0.267 OA
HETATM    8  N   UNL     1     -41.512  56.989 -53.067  1.00  0.00    -0.312 N 
HETATM    9  C   UNL     1     -41.724  57.215 -51.787  1.00  0.00     0.091 A 
HETATM   10  N   UNL     1     -41.514  56.276 -50.878  1.00  0.00    -0.342 N 
HETATM   11  H   UNL     1     -41.676  56.441 -49.884  1.00  0.00     0.167 HD
HETATM   12  C   UNL     1     -41.089  55.030 -51.250  1.00  0.00     0.083 A 
HETATM   13  H   UNL     1     -41.683  57.724 -53.752  1.00  0.00     0.170 HD
ENDROOT
BRANCH   9  14
HETATM   14  C   UNL     1     -42.230  58.543 -51.312  1.00  0.00     0.082 C 
HETATM   15  C   UNL     1     -41.325  59.703 -51.715  1.00  0.00     0.188 C 
HETATM   16  O   UNL     1     -41.230  59.833 -53.140  1.00  0.00    -0.350 OA
HETATM   17  C   UNL     1     -42.436  59.867 -53.792  1.00  0.00     0.075 A 
HETATM   18  C   UNL     1     -42.415  60.360 -55.098  1.00  0.00     0.040 A 
HETATM   19  C   UNL     1     -43.615  59.353 -53.238  1.00  0.00    -0.021 A 
HETATM   20  C   UNL     1     -43.586  60.374 -55.854  1.00  0.00     0.045 A 
HETATM   21  C   UNL     1     -44.763  59.889 -55.297  1.00  0.00     0.117 A 
HETATM   22  F   UNL     1     -45.889  59.898 -56.021  1.00  0.00    -0.206 F 
HETATM   23  C   UNL     1     -44.789  59.383 -54.000  1.00  0.00     0.052 A 
HETATM   24  C   UNL     1     -43.641  58.807 -51.839  1.00  0.00     0.056 C 
ENDBRANCH   9  14
BRANCH   1  25
HETATM   25  O   UNL     1     -41.147  54.484 -48.977  1.00  0.00    -0.354 OA
HETATM   26  C   UNL     1     -40.310  53.963 -47.944  1.00  0.00     0.210 C 
ENDBRANCH   1  25
BRANCH   3  27
HETATM   27  C   UNL     1     -39.859  51.083 -52.327  1.00  0.00     0.010 A 
HETATM   28  C   UNL     1     -39.712  50.468 -53.593  1.00  0.00     0.152 A 
HETATM   29  N   UNL     1     -39.332  49.193 -53.505  1.00  0.00    -0.187 NA
HETATM   30  N   UNL     1     -39.229  48.979 -52.185  1.00  0.00    -0.289 N 
HETATM   31  H   UNL     1     -38.947  48.057 -51.866  1.00  0.00     0.188 HD
HETATM   32  C   UNL     1     -39.537  50.082 -51.435  1.00  0.00     0.123 A 
ENDBRANCH   3  27
TORSDOF 3
ENDMDL
MODEL 3
REMARK VINA RESULT:      -8.9      2.166      3.612
REMARK  3 active torsions:
REMARK  status: ('A' for Active; 'I' for Inactive)
REMARK    1  A    between atoms: O_2  and  C_3 
REMARK    2  A    between atoms: C_5  and  C_26 
REMARK    3  A    between atoms: C_11  and  C_15 
ROOT
HETATM    1  C   UNL     1     -40.997  54.810 -52.430  1.00  0.00     0.096 A 
HETATM    2  C   UNL     1     -40.392  53.553 -52.305  1.00  0.00     0.051 A 
HETATM    3  C   UNL     1     -40.713  52.508 -53.192  1.00  0.00    -0.019 A 
HETATM    4  C   UNL     1     -41.646  52.738 -54.209  1.00  0.00     0.031 A 
HETATM    5  C   UNL     1     -42.245  53.994 -54.320  1.00  0.00     0.062 A 
HETATM    6  C   UNL     1     -43.234  54.282 -55.356  1.00  0.00     0.259 A 
HETATM    7  O   UNL     1     -43.607  53.507 -56.212  1.00  0.00    -0.267 OA
HETATM    8  N   UNL     1     -43.791  55.580 -55.343  1.00  0.00    -0.312 N 
HETATM    9  C   UNL     1     -43.452  56.500 -54.463  1.00  0.00     0.091 A 
HETATM   10  N   UNL     1     -42.543  56.260 -53.532  1.00  0.00    -0.342 N 
HETATM   11  H   UNL     1     -42.273  56.966 -52.846  1.00  0.00     0.167 HD
HETATM   12  C   UNL     1     -41.943  55.033 -53.444  1.00  0.00     0.083 A 
HETATM   13  H   UNL     1     -44.496  55.783 -56.050  1.00  0.00     0.170 HD
ENDROOT
BRANCH   9  14
HETATM   14  C   UNL     1     -44.098  57.852 -54.473  1.00  0.00     0.082 C 
HETATM   15  C   UNL     1     -43.100  58.988 -54.276  1.00  0.00     0.188 C 
HETATM   16  O   UNL     1     -42.130  59.036 -55.331  1.00  0.00    -0.350 OA
HETATM   17  C   UNL     1     -42.662  59.028 -56.595  1.00  0.00     0.075 A 
HETATM   18  C   UNL     1     -41.812  59.444 -57.622  1.00  0.00     0.040 A 
HETATM   19  C   UNL     1     -43.945  58.544 -56.878  1.00  0.00    -0.021 A 
HETATM   20  C   UNL     1     -42.253  59.411 -58.944  1.00  0.00     0.045 A 
HETATM   21  C   UNL     1     -43.535  58.955 -59.224  1.00  0.00     0.117 A 
HETATM   22  F   UNL     1     -43.960  58.919 -60.493  1.00  0.00    -0.206 F 
HETATM   23  C   UNL     1     -44.383  58.527 -58.208  1.00  0.00     0.052 A 
HETATM   24  C   UNL     1     -44.859  58.081 -55.780  1.00  0.00     0.056 C 
ENDBRANCH   9  14
BRANCH   1  25
HETATM   25  O   UNL     1     -40.758  55.897 -51.623  1.00  0.00    -0.354 OA
HETATM   26  C   UNL     1     -41.050  55.747 -50.233  1.00  0.00     0.210 C 
ENDBRANCH   1  25
BRANCH   3  27
HETATM   27  C   UNL     1     -40.093  51.204 -53.032  1.00  0.00     0.010 A 
HETATM   28  C   UNL     1     -39.859  50.171 -53.970  1.00  0.00     0.152 A 
HETATM   29  N   UNL     1     -39.265  49.108 -53.427  1.00  0.00    -0.187 NA
HETATM   30  N   UNL     1     -39.110  49.450 -52.140  1.00  0.00    -0.289 N 
HETATM   31  H   UNL     1     -38.669  48.782 -51.513  1.00  0.00     0.188 HD
HETATM   32  C   UNL     1     -39.592  50.698 -51.852  1.00  0.00     0.123 A 
ENDBRANCH   3  27
TORSDOF 3
ENDMDL
MODEL 4
REMARK VINA RESULT:      -8.7     15.330     17.380
REMARK  3 active torsions:
REMARK  status: ('A' for Active; 'I' for Inactive)
REMARK    1  A    between atoms: O_2  and  C_3 
REMARK    2  A    between atoms: C_5  and  C_26 
REMARK    3  A    between atoms: C_11  and  C_15 
ROOT
HETATM    1  C   UNL     1     -32.941  40.511 -52.970  1.00  0.00     0.096 A 
HETATM    2  C   UNL     1     -32.573  39.979 -51.728  1.00  0.00     0.051 A 
HETATM    3  C   UNL     1     -33.524  39.818 -50.703  1.00  0.00    -0.019 A 
HETATM    4  C   UNL     1     -34.851  40.194 -50.938  1.00  0.00     0.031 A 
HETATM    5  C   UNL     1     -35.204  40.728 -52.179  1.00  0.00     0.062 A 
HETATM    6  C   UNL     1     -36.573  41.148 -52.471  1.00  0.00     0.259 A 
HETATM    7  O   UNL     1     -37.517  41.059 -51.713  1.00  0.00    -0.267 OA
HETATM    8  N   UNL     1     -36.796  41.701 -53.751  1.00  0.00    -0.312 N 
HETATM    9  C   UNL     1     -35.845  41.836 -54.653  1.00  0.00     0.091 A 
HETATM   10  N   UNL     1     -34.604  41.442 -54.410  1.00  0.00    -0.342 N 
HETATM   11  H   UNL     1     -33.861  41.543 -55.101  1.00  0.00     0.167 HD
HETATM   12  C   UNL     1     -34.271  40.899 -53.198  1.00  0.00     0.083 A 
HETATM   13  H   UNL     1     -37.743  42.015 -53.956  1.00  0.00     0.170 HD
ENDROOT
BRANCH   9  14
HETATM   14  C   UNL     1     -36.127  42.460 -55.984  1.00  0.00     0.082 C 
HETATM   15  C   UNL     1     -34.984  42.282 -56.979  1.00  0.00     0.188 C 
HETATM   16  O   UNL     1     -34.737  40.899 -57.265  1.00  0.00    -0.350 OA
HETATM   17  C   UNL     1     -35.850  40.183 -57.624  1.00  0.00     0.075 A 
HETATM   18  C   UNL     1     -35.617  38.963 -58.262  1.00  0.00     0.040 A 
HETATM   19  C   UNL     1     -37.151  40.583 -57.293  1.00  0.00    -0.021 A 
HETATM   20  C   UNL     1     -36.691  38.144 -58.607  1.00  0.00     0.045 A 
HETATM   21  C   UNL     1     -37.984  38.551 -58.304  1.00  0.00     0.117 A 
HETATM   22  F   UNL     1     -39.017  37.765 -58.631  1.00  0.00    -0.206 F 
HETATM   23  C   UNL     1     -38.224  39.759 -57.656  1.00  0.00     0.052 A 
HETATM   24  C   UNL     1     -37.408  41.886 -56.593  1.00  0.00     0.056 C 
ENDBRANCH   9  14
BRANCH   1  25
HETATM   25  O   UNL     1     -32.098  40.709 -54.038  1.00  0.00    -0.354 OA
HETATM   26  C   UNL     1     -31.610  39.542 -54.702  1.00  0.00     0.210 C 
ENDBRANCH   1  25
BRANCH   3  27
HETATM   27  C   UNL     1     -33.119  39.288 -49.413  1.00  0.00     0.010 A 
HETATM   28  C   UNL     1     -33.753  38.360 -48.555  1.00  0.00     0.152 A 
HETATM   29  N   UNL     1     -33.060  38.132 -47.440  1.00  0.00    -0.187 NA
HETATM   30  N   UNL     1     -31.974  38.907 -47.573  1.00  0.00    -0.289 N 
HETATM   31  H   UNL     1     -31.283  38.902 -46.828  1.00  0.00     0.188 HD
HETATM   32  C   UNL     1     -31.963  39.623 -48.739  1.00  0.00     0.123 A 
ENDBRANCH   3  27
TORSDOF 3
ENDMDL
MODEL 5
REMARK VINA RESULT:      -8.5      2.150      3.029
REMARK  3 active torsions:
REMARK  status: ('A' for Active; 'I' for Inactive)
REMARK    1  A    between atoms: O_2  and  C_3 
REMARK    2  A    between atoms: C_5  and  C_26 
REMARK    3  A    between atoms: C_11  and  C_15 
ROOT
HETATM    1  C   UNL     1     -41.260  54.422 -54.683  1.00  0.00     0.096 A 
HETATM    2  C   UNL     1     -40.855  53.124 -54.348  1.00  0.00     0.051 A 
HETATM    3  C   UNL     1     -40.502  52.798 -53.025  1.00  0.00    -0.019 A 
HETATM    4  C   UNL     1     -40.563  53.788 -52.038  1.00  0.00     0.031 A 
HETATM    5  C   UNL     1     -40.963  55.080 -52.386  1.00  0.00     0.062 A 
HETATM    6  C   UNL     1     -41.032  56.153 -51.397  1.00  0.00     0.259 A 
HETATM    7  O   UNL     1     -40.785  56.040 -50.213  1.00  0.00    -0.267 OA
HETATM    8  N   UNL     1     -41.420  57.422 -51.879  1.00  0.00    -0.312 N 
HETATM    9  C   UNL     1     -41.717  57.652 -53.142  1.00  0.00     0.091 A 
HETATM   10  N   UNL     1     -41.679  56.686 -54.045  1.00  0.00    -0.342 N 
HETATM   11  H   UNL     1     -41.907  56.854 -55.025  1.00  0.00     0.167 HD
HETATM   12  C   UNL     1     -41.307  55.417 -53.692  1.00  0.00     0.083 A 
HETATM   13  H   UNL     1     -41.451  58.181 -51.200  1.00  0.00     0.170 HD
ENDROOT
BRANCH   9  14
HETATM   14  C   UNL     1     -42.092  59.026 -53.608  1.00  0.00     0.082 C 
HETATM   15  C   UNL     1     -43.490  59.087 -54.213  1.00  0.00     0.188 C 
HETATM   16  O   UNL     1     -44.500  58.733 -53.259  1.00  0.00    -0.350 OA
HETATM   17  C   UNL     1     -44.423  59.409 -52.069  1.00  0.00     0.075 A 
HETATM   18  C   UNL     1     -45.569  59.384 -51.271  1.00  0.00     0.040 A 
HETATM   19  C   UNL     1     -43.245  60.015 -51.613  1.00  0.00    -0.021 A 
HETATM   20  C   UNL     1     -45.556  59.996 -50.019  1.00  0.00     0.045 A 
HETATM   21  C   UNL     1     -44.397  60.620 -49.576  1.00  0.00     0.117 A 
HETATM   22  F   UNL     1     -44.381  61.205 -48.372  1.00  0.00    -0.206 F 
HETATM   23  C   UNL     1     -43.247  60.638 -50.359  1.00  0.00     0.052 A 
HETATM   24  C   UNL     1     -42.004  60.032 -52.459  1.00  0.00     0.056 C 
ENDBRANCH   9  14
BRANCH   1  25
HETATM   25  O   UNL     1     -41.626  54.848 -55.937  1.00  0.00    -0.354 OA
HETATM   26  C   UNL     1     -42.992  54.663 -56.310  1.00  0.00     0.210 C 
ENDBRANCH   1  25
BRANCH   3  27
HETATM   27  C   UNL     1     -40.061  51.452 -52.702  1.00  0.00     0.010 A 
HETATM   28  C   UNL     1     -39.908  50.308 -53.520  1.00  0.00     0.152 A 
HETATM   29  N   UNL     1     -39.484  49.243 -52.842  1.00  0.00    -0.187 NA
HETATM   30  N   UNL     1     -39.358  49.692 -51.584  1.00  0.00    -0.289 N 
HETATM   31  H   UNL     1     -39.041  49.044 -50.870  1.00  0.00     0.188 HD
HETATM   32  C   UNL     1     -39.694  51.011 -51.448  1.00  0.00     0.123 A 
ENDBRANCH   3  27
TORSDOF 3
ENDMDL
MODEL 6
REMARK VINA RESULT:      -8.5     15.267     17.115
REMARK  3 active torsions:
REMARK  status: ('A' for Active; 'I' for Inactive)
REMARK    1  A    between atoms: O_2  and  C_3 
REMARK    2  A    between atoms: C_5  and  C_26 
REMARK    3  A    between atoms: C_11  and  C_15 
ROOT
HETATM    1  C   UNL     1     -34.364  40.177 -52.072  1.00  0.00     0.096 A 
HETATM    2  C   UNL     1     -34.499  39.590 -50.807  1.00  0.00     0.051 A 
HETATM    3  C   UNL     1     -35.767  39.448 -50.211  1.00  0.00    -0.019 A 
HETATM    4  C   UNL     1     -36.899  39.898 -50.899  1.00  0.00     0.031 A 
HETATM    5  C   UNL     1     -36.749  40.487 -52.156  1.00  0.00     0.062 A 
HETATM    6  C   UNL     1     -37.898  40.985 -52.910  1.00  0.00     0.259 A 
HETATM    7  O   UNL     1     -39.057  40.921 -52.556  1.00  0.00    -0.267 OA
HETATM    8  N   UNL     1     -37.613  41.587 -54.155  1.00  0.00    -0.312 N 
HETATM    9  C   UNL     1     -36.392  41.701 -54.637  1.00  0.00     0.091 A 
HETATM   10  N   UNL     1     -35.344  41.236 -53.975  1.00  0.00    -0.342 N 
HETATM   11  H   UNL     1     -34.395  41.319 -54.340  1.00  0.00     0.167 HD
HETATM   12  C   UNL     1     -35.501  40.640 -52.753  1.00  0.00     0.083 A 
HETATM   13  H   UNL     1     -38.406  41.955 -54.679  1.00  0.00     0.170 HD
ENDROOT
BRANCH   9  14
HETATM   14  C   UNL     1     -36.141  42.378 -55.949  1.00  0.00     0.082 C 
HETATM   15  C   UNL     1     -34.862  41.900 -56.630  1.00  0.00     0.188 C 
HETATM   16  O   UNL     1     -34.915  40.502 -56.942  1.00  0.00    -0.350 OA
HETATM   17  C   UNL     1     -36.040  40.111 -57.622  1.00  0.00     0.075 A 
HETATM   18  C   UNL     1     -35.971  38.874 -58.266  1.00  0.00     0.040 A 
HETATM   19  C   UNL     1     -37.232  40.846 -57.606  1.00  0.00    -0.021 A 
HETATM   20  C   UNL     1     -37.090  38.374 -58.931  1.00  0.00     0.045 A 
HETATM   21  C   UNL     1     -38.266  39.114 -58.938  1.00  0.00     0.117 A 
HETATM   22  F   UNL     1     -39.343  38.634 -59.573  1.00  0.00    -0.206 F 
HETATM   23  C   UNL     1     -38.347  40.341 -58.287  1.00  0.00     0.052 A 
HETATM   24  C   UNL     1     -37.318  42.170 -56.903  1.00  0.00     0.056 C 
ENDBRANCH   9  14
BRANCH   1  25
HETATM   25  O   UNL     1     -33.180  40.364 -52.745  1.00  0.00    -0.354 OA
HETATM   26  C   UNL     1     -31.999  40.500 -51.952  1.00  0.00     0.210 C 
ENDBRANCH   1  25
BRANCH   3  27
HETATM   27  C   UNL     1     -35.885  38.858 -48.890  1.00  0.00     0.010 A 
HETATM   28  C   UNL     1     -36.978  38.812 -47.992  1.00  0.00     0.152 A 
HETATM   29  N   UNL     1     -36.685  38.179 -46.856  1.00  0.00    -0.187 NA
HETATM   30  N   UNL     1     -35.405  37.811 -47.014  1.00  0.00    -0.289 N 
HETATM   31  H   UNL     1     -34.953  37.302 -46.261  1.00  0.00     0.188 HD
HETATM   32  C   UNL     1     -34.879  38.196 -48.217  1.00  0.00     0.123 A 
ENDBRANCH   3  27
TORSDOF 3
ENDMDL
MODEL 7
REMARK VINA RESULT:      -8.3      2.994      5.320
REMARK  3 active torsions:
REMARK  status: ('A' for Active; 'I' for Inactive)
REMARK    1  A    between atoms: O_2  and  C_3 
REMARK    2  A    between atoms: C_5  and  C_26 
REMARK    3  A    between atoms: C_11  and  C_15 
ROOT
HETATM    1  C   UNL     1     -41.632  58.092 -52.549  1.00  0.00     0.096 A 
HETATM    2  C   UNL     1     -41.387  57.202 -51.495  1.00  0.00     0.051 A 
HETATM    3  C   UNL     1     -41.284  55.818 -51.729  1.00  0.00    -0.019 A 
HETATM    4  C   UNL     1     -41.426  55.335 -53.035  1.00  0.00     0.031 A 
HETATM    5  C   UNL     1     -41.675  56.231 -54.076  1.00  0.00     0.062 A 
HETATM    6  C   UNL     1     -41.844  55.777 -55.454  1.00  0.00     0.259 A 
HETATM    7  O   UNL     1     -41.764  54.627 -55.834  1.00  0.00    -0.267 OA
HETATM    8  N   UNL     1     -42.123  56.777 -56.411  1.00  0.00    -0.312 N 
HETATM    9  C   UNL     1     -42.223  58.056 -56.108  1.00  0.00     0.091 A 
HETATM   10  N   UNL     1     -42.053  58.484 -54.867  1.00  0.00    -0.342 N 
HETATM   11  H   UNL     1     -42.129  59.472 -54.622  1.00  0.00     0.167 HD
HETATM   12  C   UNL     1     -41.787  57.602 -53.856  1.00  0.00     0.083 A 
HETATM   13  H   UNL     1     -42.262  56.467 -57.372  1.00  0.00     0.170 HD
ENDROOT
BRANCH   9  14
HETATM   14  C   UNL     1     -42.553  59.073 -57.156  1.00  0.00     0.082 C 
HETATM   15  C   UNL     1     -41.734  58.901 -58.431  1.00  0.00     0.188 C 
HETATM   16  O   UNL     1     -41.982  57.634 -59.056  1.00  0.00    -0.350 OA
HETATM   17  C   UNL     1     -43.308  57.343 -59.251  1.00  0.00     0.075 A 
HETATM   18  C   UNL     1     -43.586  56.329 -60.169  1.00  0.00     0.040 A 
HETATM   19  C   UNL     1     -44.334  57.944 -58.512  1.00  0.00    -0.021 A 
HETATM   20  C   UNL     1     -44.905  55.929 -60.382  1.00  0.00     0.045 A 
HETATM   21  C   UNL     1     -45.928  56.543 -59.670  1.00  0.00     0.117 A 
HETATM   22  F   UNL     1     -47.194  56.158 -59.870  1.00  0.00    -0.206 F 
HETATM   23  C   UNL     1     -45.656  57.544 -58.743  1.00  0.00     0.052 A 
HETATM   24  C   UNL     1     -44.040  59.025 -57.512  1.00  0.00     0.056 C 
ENDBRANCH   9  14
BRANCH   1  25
HETATM   25  O   UNL     1     -41.749  59.457 -52.434  1.00  0.00    -0.354 OA
HETATM   26  C   UNL     1     -42.568  59.949 -51.373  1.00  0.00     0.210 C 
ENDBRANCH   1  25
BRANCH   3  27
HETATM   27  C   UNL     1     -41.054  54.909 -50.621  1.00  0.00     0.010 A 
HETATM   28  C   UNL     1     -41.359  55.034 -49.245  1.00  0.00     0.152 A 
HETATM   29  N   UNL     1     -40.975  53.974 -48.534  1.00  0.00    -0.187 NA
HETATM   30  N   UNL     1     -40.424  53.159 -49.445  1.00  0.00    -0.289 N 
HETATM   31  H   UNL     1     -40.051  52.268 -49.132  1.00  0.00     0.188 HD
HETATM   32  C   UNL     1     -40.445  53.676 -50.712  1.00  0.00     0.123 A 
ENDBRANCH   3  27
TORSDOF 3
ENDMDL
MODEL 8
REMARK VINA RESULT:      -8.2      4.135      7.006
REMARK  3 active torsions:
REMARK  status: ('A' for Active; 'I' for Inactive)
REMARK    1  A    between atoms: O_2  and  C_3 
REMARK    2  A    between atoms: C_5  and  C_26 
REMARK    3  A    between atoms: C_11  and  C_15 
ROOT
HETATM    1  C   UNL     1     -42.572  55.874 -56.507  1.00  0.00     0.096 A 
HETATM    2  C   UNL     1     -43.175  55.518 -57.720  1.00  0.00     0.051 A 
HETATM    3  C   UNL     1     -43.976  56.437 -58.423  1.00  0.00    -0.019 A 
HETATM    4  C   UNL     1     -44.164  57.721 -57.898  1.00  0.00     0.031 A 
HETATM    5  C   UNL     1     -43.561  58.061 -56.685  1.00  0.00     0.062 A 
HETATM    6  C   UNL     1     -43.735  59.383 -56.088  1.00  0.00     0.259 A 
HETATM    7  O   UNL     1     -44.371  60.298 -56.570  1.00  0.00    -0.267 OA
HETATM    8  N   UNL     1     -43.101  59.594 -54.844  1.00  0.00    -0.312 N 
HETATM    9  C   UNL     1     -42.381  58.672 -54.237  1.00  0.00     0.091 A 
HETATM   10  N   UNL     1     -42.198  57.477 -54.776  1.00  0.00    -0.342 N 
HETATM   11  H   UNL     1     -41.642  56.756 -54.314  1.00  0.00     0.167 HD
HETATM   12  C   UNL     1     -42.773  57.158 -55.976  1.00  0.00     0.083 A 
HETATM   13  H   UNL     1     -43.233  60.506 -54.410  1.00  0.00     0.170 HD
ENDROOT
BRANCH   9  14
HETATM   14  C   UNL     1     -41.756  58.936 -52.902  1.00  0.00     0.082 C 
HETATM   15  C   UNL     1     -42.779  59.285 -51.825  1.00  0.00     0.188 C 
HETATM   16  O   UNL     1     -43.698  58.209 -51.595  1.00  0.00    -0.350 OA
HETATM   17  C   UNL     1     -43.108  56.991 -51.373  1.00  0.00     0.075 A 
HETATM   18  C   UNL     1     -43.914  56.015 -50.785  1.00  0.00     0.040 A 
HETATM   19  C   UNL     1     -41.805  56.690 -51.790  1.00  0.00    -0.021 A 
HETATM   20  C   UNL     1     -43.411  54.731 -50.578  1.00  0.00     0.045 A 
HETATM   21  C   UNL     1     -42.110  54.437 -50.967  1.00  0.00     0.117 A 
HETATM   22  F   UNL     1     -41.626  53.205 -50.772  1.00  0.00    -0.206 F 
HETATM   23  C   UNL     1     -41.305  55.401 -51.566  1.00  0.00     0.052 A 
HETATM   24  C   UNL     1     -40.937  57.730 -52.437  1.00  0.00     0.056 C 
ENDBRANCH   9  14
BRANCH   1  25
HETATM   25  O   UNL     1     -41.773  55.059 -55.741  1.00  0.00    -0.354 OA
HETATM   26  C   UNL     1     -42.427  54.043 -54.978  1.00  0.00     0.210 C 
ENDBRANCH   1  25
BRANCH   3  27
HETATM   27  C   UNL     1     -44.613  56.043 -59.667  1.00  0.00     0.010 A 
HETATM   28  C   UNL     1     -44.305  55.000 -60.572  1.00  0.00     0.152 A 
HETATM   29  N   UNL     1     -45.129  54.967 -61.619  1.00  0.00    -0.187 NA
HETATM   30  N   UNL     1     -45.975  55.984 -61.395  1.00  0.00    -0.289 N 
HETATM   31  H   UNL     1     -46.709  56.160 -62.074  1.00  0.00     0.188 HD
HETATM   32  C   UNL     1     -45.705  56.662 -60.237  1.00  0.00     0.123 A 
ENDBRANCH   3  27
TORSDOF 3
ENDMDL
MODEL 9
REMARK VINA RESULT:      -8.0      4.311      7.348
REMARK  3 active torsions:
REMARK  status: ('A' for Active; 'I' for Inactive)
REMARK    1  A    between atoms: O_2  and  C_3 
REMARK    2  A    between atoms: C_5  and  C_26 
REMARK    3  A    between atoms: C_11  and  C_15 
ROOT
HETATM    1  C   UNL     1     -41.879  58.950 -56.019  1.00  0.00     0.096 A 
HETATM    2  C   UNL     1     -41.768  59.294 -54.665  1.00  0.00     0.051 A 
HETATM    3  C   UNL     1     -42.082  58.363 -53.657  1.00  0.00    -0.019 A 
HETATM    4  C   UNL     1     -42.505  57.080 -54.020  1.00  0.00     0.031 A 
HETATM    5  C   UNL     1     -42.616  56.751 -55.373  1.00  0.00     0.062 A 
HETATM    6  C   UNL     1     -43.065  55.430 -55.805  1.00  0.00     0.259 A 
HETATM    7  O   UNL     1     -43.352  54.506 -55.072  1.00  0.00    -0.267 OA
HETATM    8  N   UNL     1     -43.167  55.231 -57.199  1.00  0.00    -0.312 N 
HETATM    9  C   UNL     1     -42.872  56.162 -58.083  1.00  0.00     0.091 A 
HETATM   10  N   UNL     1     -42.445  57.358 -57.707  1.00  0.00    -0.342 N 
HETATM   11  H   UNL     1     -42.215  58.086 -58.383  1.00  0.00     0.167 HD
HETATM   12  C   UNL     1     -42.317  57.665 -56.379  1.00  0.00     0.083 A 
HETATM   13  H   UNL     1     -43.498  54.318 -57.510  1.00  0.00     0.170 HD
ENDROOT
BRANCH   9  14
HETATM   14  C   UNL     1     -43.028  55.910 -59.551  1.00  0.00     0.082 C 
HETATM   15  C   UNL     1     -44.244  55.050 -59.880  1.00  0.00     0.188 C 
HETATM   16  O   UNL     1     -45.468  55.681 -59.483  1.00  0.00    -0.350 OA
HETATM   17  C   UNL     1     -45.614  56.972 -59.924  1.00  0.00     0.075 A 
HETATM   18  C   UNL     1     -46.910  57.490 -59.891  1.00  0.00     0.040 A 
HETATM   19  C   UNL     1     -44.529  57.775 -60.298  1.00  0.00    -0.021 A 
HETATM   20  C   UNL     1     -47.137  58.814 -60.266  1.00  0.00     0.045 A 
HETATM   21  C   UNL     1     -46.066  59.605 -60.662  1.00  0.00     0.117 A 
HETATM   22  F   UNL     1     -46.281  60.877 -61.019  1.00  0.00    -0.206 F 
HETATM   23  C   UNL     1     -44.770  59.099 -60.685  1.00  0.00     0.052 A 
HETATM   24  C   UNL     1     -43.131  57.228 -60.321  1.00  0.00     0.056 C 
ENDBRANCH   9  14
BRANCH   1  25
HETATM   25  O   UNL     1     -41.599  59.776 -57.080  1.00  0.00    -0.354 OA
HETATM   26  C   UNL     1     -42.273  61.035 -57.116  1.00  0.00     0.210 C 
ENDBRANCH   1  25
BRANCH   3  27
HETATM   27  C   UNL     1     -41.984  58.746 -52.260  1.00  0.00     0.010 A 
HETATM   28  C   UNL     1     -42.158  60.002 -51.631  1.00  0.00     0.152 A 
HETATM   29  N   UNL     1     -41.971  59.948 -50.313  1.00  0.00    -0.187 NA
HETATM   30  N   UNL     1     -41.680  58.659 -50.082  1.00  0.00    -0.289 N 
HETATM   31  H   UNL     1     -41.494  58.370 -49.126  1.00  0.00     0.188 HD
HETATM   32  C   UNL     1     -41.673  57.897 -51.219  1.00  0.00     0.123 A 
ENDBRANCH   3  27
TORSDOF 3
ENDMDL
MODEL 10
REMARK VINA RESULT:      -8.0      3.075      5.000
REMARK  3 active torsions:
REMARK  status: ('A' for Active; 'I' for Inactive)
REMARK    1  A    between atoms: O_2  and  C_3 
REMARK    2  A    between atoms: C_5  and  C_26 
REMARK    3  A    between atoms: C_11  and  C_15 
ROOT
HETATM    1  C   UNL     1     -41.996  56.671 -53.456  1.00  0.00     0.096 A 
HETATM    2  C   UNL     1     -41.321  55.507 -53.066  1.00  0.00     0.051 A 
HETATM    3  C   UNL     1     -41.233  54.401 -53.933  1.00  0.00    -0.019 A 
HETATM    4  C   UNL     1     -41.825  54.476 -55.198  1.00  0.00     0.031 A 
HETATM    5  C   UNL     1     -42.499  55.640 -55.573  1.00  0.00     0.062 A 
HETATM    6  C   UNL     1     -43.146  55.765 -56.877  1.00  0.00     0.259 A 
HETATM    7  O   UNL     1     -43.146  54.920 -57.750  1.00  0.00    -0.267 OA
HETATM    8  N   UNL     1     -43.822  56.980 -57.124  1.00  0.00    -0.312 N 
HETATM    9  C   UNL     1     -43.876  57.964 -56.251  1.00  0.00     0.091 A 
HETATM   10  N   UNL     1     -43.278  57.873 -55.073  1.00  0.00    -0.342 N 
HETATM   11  H   UNL     1     -43.315  58.630 -54.389  1.00  0.00     0.167 HD
HETATM   12  C   UNL     1     -42.601  56.737 -54.722  1.00  0.00     0.083 A 
HETATM   13  H   UNL     1     -44.292  57.068 -58.024  1.00  0.00     0.170 HD
ENDROOT
BRANCH   9  14
HETATM   14  C   UNL     1     -44.635  59.220 -56.550  1.00  0.00     0.082 C 
HETATM   15  C   UNL     1     -44.100  60.433 -55.795  1.00  0.00     0.188 C 
HETATM   16  O   UNL     1     -42.743  60.728 -56.154  1.00  0.00    -0.350 OA
HETATM   17  C   UNL     1     -42.516  60.817 -57.504  1.00  0.00     0.075 A 
HETATM   18  C   UNL     1     -41.336  61.457 -57.888  1.00  0.00     0.040 A 
HETATM   19  C   UNL     1     -43.354  60.225 -58.457  1.00  0.00    -0.021 A 
HETATM   20  C   UNL     1     -40.999  61.539 -59.238  1.00  0.00     0.045 A 
HETATM   21  C   UNL     1     -41.842  60.975 -60.187  1.00  0.00     0.117 A 
HETATM   22  F   UNL     1     -41.519  61.050 -61.484  1.00  0.00    -0.206 F 
HETATM   23  C   UNL     1     -43.013  60.324 -59.811  1.00  0.00     0.052 A 
HETATM   24  C   UNL     1     -44.617  59.522 -58.050  1.00  0.00     0.056 C 
ENDBRANCH   9  14
BRANCH   1  25
HETATM   25  O   UNL     1     -42.142  57.805 -52.694  1.00  0.00    -0.354 OA
HETATM   26  C   UNL     1     -42.680  57.638 -51.381  1.00  0.00     0.210 C 
ENDBRANCH   1  25
BRANCH   3  27
HETATM   27  C   UNL     1     -40.550  53.194 -53.502  1.00  0.00     0.010 A 
HETATM   28  C   UNL     1     -40.090  52.078 -54.240  1.00  0.00     0.152 A 
HETATM   29  N   UNL     1     -39.513  51.155 -53.472  1.00  0.00    -0.187 NA
HETATM   30  N   UNL     1     -39.595  51.668 -52.235  1.00  0.00    -0.289 N 
HETATM   31  H   UNL     1     -39.213  51.131 -51.463  1.00  0.00     0.188 HD
HETATM   32  C   UNL     1     -40.211  52.890 -52.200  1.00  0.00     0.123 A 
ENDBRANCH   3  27
TORSDOF 3
ENDMDL
