MODEL 1
REMARK VINA RESULT:      -8.6      0.000      0.000
REMARK  6 active torsions:
REMARK  status: ('A' for Active; 'I' for Inactive)
REMARK    1  A    between atoms: C_8  and  C_9 
REMARK    2  A    between atoms: C_9  and  C_10 
REMARK    3  A    between atoms: C_10  and  N_11 
REMARK    4  A    between atoms: C_10  and  C_19 
REMARK       I    between atoms: N_11  and  C_12 
REMARK    5  A    between atoms: C_12  and  C_13 
REMARK       I    between atoms: C_19  and  N_20 
REMARK    6  A    between atoms: N_20  and  C_21 
ROOT
HETATM    1  C   UNL     1     -42.125  55.255 -53.453  1.00  0.00     0.181 C 
ENDROOT
BRANCH   1   2
HETATM    2  C   UNL     1     -40.836  54.514 -53.867  1.00  0.00     0.075 C 
BRANCH   2   3
HETATM    3  C   UNL     1     -40.428  53.453 -52.886  1.00  0.00    -0.028 A 
HETATM    4  C   UNL     1     -40.131  52.077 -53.158  1.00  0.00    -0.002 A 
HETATM    5  C   UNL     1     -40.111  51.279 -54.320  1.00  0.00     0.014 A 
HETATM    6  C   UNL     1     -39.805  51.474 -51.942  1.00  0.00     0.042 A 
HETATM    7  C   UNL     1     -39.792  49.919 -54.225  1.00  0.00     0.001 A 
HETATM    8  C   UNL     1     -39.479  49.349 -52.995  1.00  0.00     0.002 A 
HETATM    9  C   UNL     1     -39.474  50.118 -51.829  1.00  0.00     0.030 A 
HETATM   10  N   UNL     1     -39.881  52.446 -50.973  1.00  0.00    -0.365 N 
HETATM   11  H   UNL     1     -39.684  52.292 -49.994  1.00  0.00     0.165 HD
HETATM   12  C   UNL     1     -40.255  53.639 -51.527  1.00  0.00     0.096 A 
ENDBRANCH   2   3
ENDBRANCH   1   2
BRANCH   1  13
HETATM   13  N   UNL     1     -41.880  56.545 -52.796  1.00  0.00    -0.343 N 
HETATM   14  C   UNL     1     -42.348  56.894 -51.551  1.00  0.00     0.259 C 
HETATM   15  O   UNL     1     -42.984  56.084 -50.875  1.00  0.00    -0.267 OA
HETATM   16  H   UNL     1     -41.287  57.211 -53.278  1.00  0.00     0.163 HD
BRANCH  14  17
HETATM   17  C   UNL     1     -42.033  58.240 -51.097  1.00  0.00     0.072 A 
HETATM   18  S   UNL     1     -43.134  59.546 -51.262  1.00  0.00    -0.097 SA
HETATM   19  C   UNL     1     -42.053  60.647 -50.529  1.00  0.00     0.050 A 
HETATM   20  C   UNL     1     -40.872  60.043 -50.162  1.00  0.00     0.009 A 
HETATM   21  C   UNL     1     -40.861  58.655 -50.491  1.00  0.00     0.025 A 
ENDBRANCH  14  17
ENDBRANCH   1  13
BRANCH   1  22
HETATM   22  C   UNL     1     -43.118  55.436 -54.623  1.00  0.00     0.245 C 
HETATM   23  N   UNL     1     -42.660  56.260 -55.635  1.00  0.00    -0.324 N 
HETATM   24  H   UNL     1     -41.806  56.787 -55.437  1.00  0.00     0.169 HD
HETATM   25  O   UNL     1     -44.218  54.889 -54.602  1.00  0.00    -0.271 OA
BRANCH  23  26
HETATM   26  C   UNL     1     -43.258  56.483 -56.890  1.00  0.00     0.052 A 
HETATM   27  C   UNL     1     -44.129  57.526 -57.192  1.00  0.00     0.145 A 
HETATM   28  N   UNL     1     -44.728  57.691 -58.400  1.00  0.00    -0.271 NA
HETATM   29  C   UNL     1     -44.444  56.779 -59.352  1.00  0.00     0.116 A 
HETATM   30  C   UNL     1     -43.588  55.708 -59.155  1.00  0.00     0.021 A 
HETATM   31  C   UNL     1     -42.989  55.563 -57.905  1.00  0.00     0.032 A 
ENDBRANCH  23  26
ENDBRANCH   1  22
TORSDOF 6
ENDMDL
MODEL 2
REMARK VINA RESULT:      -8.0      2.375      5.790
REMARK  6 active torsions:
REMARK  status: ('A' for Active; 'I' for Inactive)
REMARK    1  A    between atoms: C_8  and  C_9 
REMARK    2  A    between atoms: C_9  and  C_10 
REMARK    3  A    between atoms: C_10  and  N_11 
REMARK    4  A    between atoms: C_10  and  C_19 
REMARK       I    between atoms: N_11  and  C_12 
REMARK    5  A    between atoms: C_12  and  C_13 
REMARK       I    between atoms: C_19  and  N_20 
REMARK    6  A    between atoms: N_20  and  C_21 
ROOT
HETATM    1  C   UNL     1     -41.509  56.454 -54.382  1.00  0.00     0.181 C 
ENDROOT
BRANCH   1   2
HETATM    2  C   UNL     1     -42.297  55.394 -53.583  1.00  0.00     0.075 C 
BRANCH   2   3
HETATM    3  C   UNL     1     -41.415  54.503 -52.759  1.00  0.00    -0.028 A 
HETATM    4  C   UNL     1     -40.867  53.230 -53.127  1.00  0.00    -0.002 A 
HETATM    5  C   UNL     1     -40.939  52.417 -54.277  1.00  0.00     0.014 A 
HETATM    6  C   UNL     1     -40.116  52.771 -52.044  1.00  0.00     0.042 A 
HETATM    7  C   UNL     1     -40.283  51.180 -54.294  1.00  0.00     0.001 A 
HETATM    8  C   UNL     1     -39.549  50.750 -53.193  1.00  0.00     0.002 A 
HETATM    9  C   UNL     1     -39.446  51.542 -52.047  1.00  0.00     0.030 A 
HETATM   10  N   UNL     1     -40.186  53.732 -51.064  1.00  0.00    -0.365 N 
HETATM   11  H   UNL     1     -39.724  53.669 -50.167  1.00  0.00     0.165 HD
HETATM   12  C   UNL     1     -40.964  54.777 -51.480  1.00  0.00     0.096 A 
ENDBRANCH   2   3
ENDBRANCH   1   2
BRANCH   1  13
HETATM   13  N   UNL     1     -41.808  56.453 -55.819  1.00  0.00    -0.343 N 
HETATM   14  C   UNL     1     -43.028  56.778 -56.367  1.00  0.00     0.259 C 
HETATM   15  O   UNL     1     -43.955  57.150 -55.648  1.00  0.00    -0.267 OA
HETATM   16  H   UNL     1     -41.049  56.239 -56.455  1.00  0.00     0.163 HD
BRANCH  14  17
HETATM   17  C   UNL     1     -43.132  56.672 -57.815  1.00  0.00     0.072 A 
HETATM   18  S   UNL     1     -42.838  58.003 -58.857  1.00  0.00    -0.097 SA
HETATM   19  C   UNL     1     -43.147  57.072 -60.255  1.00  0.00     0.050 A 
HETATM   20  C   UNL     1     -43.468  55.770 -59.947  1.00  0.00     0.009 A 
HETATM   21  C   UNL     1     -43.460  55.540 -58.540  1.00  0.00     0.025 A 
ENDBRANCH  14  17
ENDBRANCH   1  13
BRANCH   1  22
HETATM   22  C   UNL     1     -41.666  57.880 -53.808  1.00  0.00     0.245 C 
HETATM   23  N   UNL     1     -42.648  57.999 -52.841  1.00  0.00    -0.324 N 
HETATM   24  H   UNL     1     -43.267  57.195 -52.725  1.00  0.00     0.169 HD
HETATM   25  O   UNL     1     -40.967  58.803 -54.222  1.00  0.00    -0.271 OA
BRANCH  23  26
HETATM   26  C   UNL     1     -42.911  59.117 -52.026  1.00  0.00     0.052 A 
HETATM   27  C   UNL     1     -43.979  59.994 -52.186  1.00  0.00     0.145 A 
HETATM   28  N   UNL     1     -44.184  61.093 -51.412  1.00  0.00    -0.271 NA
HETATM   29  C   UNL     1     -43.286  61.324 -50.432  1.00  0.00     0.116 A 
HETATM   30  C   UNL     1     -42.193  60.511 -50.188  1.00  0.00     0.021 A 
HETATM   31  C   UNL     1     -42.007  59.392 -50.998  1.00  0.00     0.032 A 
ENDBRANCH  23  26
ENDBRANCH   1  22
TORSDOF 6
ENDMDL
MODEL 3
REMARK VINA RESULT:      -7.9      2.423      5.857
REMARK  6 active torsions:
REMARK  status: ('A' for Active; 'I' for Inactive)
REMARK    1  A    between atoms: C_8  and  C_9 
REMARK    2  A    between atoms: C_9  and  C_10 
REMARK    3  A    between atoms: C_10  and  N_11 
REMARK    4  A    between atoms: C_10  and  C_19 
REMARK       I    between atoms: N_11  and  C_12 
REMARK    5  A    between atoms: C_12  and  C_13 
REMARK       I    between atoms: C_19  and  N_20 
REMARK    6  A    between atoms: N_20  and  C_21 
ROOT
HETATM    1  C   UNL     1     -42.438  54.790 -54.440  1.00  0.00     0.181 C 
ENDROOT
BRANCH   1   2
HETATM    2  C   UNL     1     -43.422  55.237 -53.338  1.00  0.00     0.075 C 
BRANCH   2   3
HETATM    3  C   UNL     1     -42.748  55.948 -52.201  1.00  0.00    -0.028 A 
HETATM    4  C   UNL     1     -41.820  57.038 -52.277  1.00  0.00    -0.002 A 
HETATM    5  C   UNL     1     -41.249  57.780 -53.331  1.00  0.00     0.014 A 
HETATM    6  C   UNL     1     -41.455  57.366 -50.970  1.00  0.00     0.042 A 
HETATM    7  C   UNL     1     -40.328  58.796 -53.047  1.00  0.00     0.001 A 
HETATM    8  C   UNL     1     -39.981  59.091 -51.732  1.00  0.00     0.002 A 
HETATM    9  C   UNL     1     -40.544  58.385 -50.667  1.00  0.00     0.030 A 
HETATM   10  N   UNL     1     -42.146  56.524 -50.132  1.00  0.00    -0.365 N 
HETATM   11  H   UNL     1     -42.083  56.544 -49.124  1.00  0.00     0.165 HD
HETATM   12  C   UNL     1     -42.925  55.666 -50.859  1.00  0.00     0.096 A 
ENDBRANCH   2   3
ENDBRANCH   1   2
BRANCH   1  13
HETATM   13  N   UNL     1     -41.842  53.470 -54.200  1.00  0.00    -0.343 N 
HETATM   14  C   UNL     1     -40.703  53.245 -53.462  1.00  0.00     0.259 C 
HETATM   15  O   UNL     1     -40.131  54.179 -52.900  1.00  0.00    -0.267 OA
HETATM   16  H   UNL     1     -42.329  52.662 -54.570  1.00  0.00     0.163 HD
BRANCH  14  17
HETATM   17  C   UNL     1     -40.249  51.864 -53.382  1.00  0.00     0.072 A 
HETATM   18  S   UNL     1     -39.610  51.191 -51.939  1.00  0.00    -0.097 SA
HETATM   19  C   UNL     1     -39.362  49.668 -52.671  1.00  0.00     0.050 A 
HETATM   20  C   UNL     1     -39.757  49.661 -53.990  1.00  0.00     0.009 A 
HETATM   21  C   UNL     1     -40.267  50.928 -54.399  1.00  0.00     0.025 A 
ENDBRANCH  14  17
ENDBRANCH   1  13
BRANCH   1  22
HETATM   22  C   UNL     1     -43.055  54.844 -55.856  1.00  0.00     0.245 C 
HETATM   23  N   UNL     1     -42.963  56.081 -56.469  1.00  0.00    -0.324 N 
HETATM   24  H   UNL     1     -42.656  56.856 -55.878  1.00  0.00     0.169 HD
HETATM   25  O   UNL     1     -43.590  53.851 -56.345  1.00  0.00    -0.271 OA
BRANCH  23  26
HETATM   26  C   UNL     1     -43.280  56.396 -57.804  1.00  0.00     0.052 A 
HETATM   27  C   UNL     1     -42.670  55.844 -58.927  1.00  0.00     0.145 A 
HETATM   28  N   UNL     1     -42.965  56.202 -60.205  1.00  0.00    -0.271 NA
HETATM   29  C   UNL     1     -43.911  57.147 -60.371  1.00  0.00     0.116 A 
HETATM   30  C   UNL     1     -44.580  57.755 -59.322  1.00  0.00     0.021 A 
HETATM   31  C   UNL     1     -44.256  57.370 -58.022  1.00  0.00     0.032 A 
ENDBRANCH  23  26
ENDBRANCH   1  22
TORSDOF 6
ENDMDL
MODEL 4
REMARK VINA RESULT:      -7.9      2.322      7.706
REMARK  6 active torsions:
REMARK  status: ('A' for Active; 'I' for Inactive)
REMARK    1  A    between atoms: C_8  and  C_9 
REMARK    2  A    between atoms: C_9  and  C_10 
REMARK    3  A    between atoms: C_10  and  N_11 
REMARK    4  A    between atoms: C_10  and  C_19 
REMARK       I    between atoms: N_11  and  C_12 
REMARK    5  A    between atoms: C_12  and  C_13 
REMARK       I    between atoms: C_19  and  N_20 
REMARK    6  A    between atoms: N_20  and  C_21 
ROOT
HETATM    1  C   UNL     1     -41.428  55.737 -54.555  1.00  0.00     0.181 C 
ENDROOT
BRANCH   1   2
HETATM    2  C   UNL     1     -40.816  56.947 -53.817  1.00  0.00     0.075 C 
BRANCH   2   3
HETATM    3  C   UNL     1     -41.717  57.503 -52.753  1.00  0.00    -0.028 A 
HETATM    4  C   UNL     1     -42.236  58.836 -52.654  1.00  0.00    -0.002 A 
HETATM    5  C   UNL     1     -42.115  60.006 -53.432  1.00  0.00     0.014 A 
HETATM    6  C   UNL     1     -43.019  58.893 -51.500  1.00  0.00     0.042 A 
HETATM    7  C   UNL     1     -42.754  61.182 -53.022  1.00  0.00     0.001 A 
HETATM    8  C   UNL     1     -43.521  61.205 -51.861  1.00  0.00     0.002 A 
HETATM    9  C   UNL     1     -43.674  60.057 -51.080  1.00  0.00     0.030 A 
HETATM   10  N   UNL     1     -42.994  57.643 -50.930  1.00  0.00    -0.365 N 
HETATM   11  H   UNL     1     -43.486  57.391 -50.084  1.00  0.00     0.165 HD
HETATM   12  C   UNL     1     -42.214  56.799 -51.672  1.00  0.00     0.096 A 
ENDBRANCH   2   3
ENDBRANCH   1   2
BRANCH   1  13
HETATM   13  N   UNL     1     -41.752  56.004 -55.961  1.00  0.00    -0.343 N 
HETATM   14  C   UNL     1     -42.958  56.494 -56.410  1.00  0.00     0.259 C 
HETATM   15  O   UNL     1     -43.846  56.791 -55.611  1.00  0.00    -0.267 OA
HETATM   16  H   UNL     1     -41.021  55.858 -56.647  1.00  0.00     0.163 HD
BRANCH  14  17
HETATM   17  C   UNL     1     -43.094  56.646 -57.851  1.00  0.00     0.072 A 
HETATM   18  S   UNL     1     -42.717  58.112 -58.659  1.00  0.00    -0.097 SA
HETATM   19  C   UNL     1     -43.121  57.461 -60.186  1.00  0.00     0.050 A 
HETATM   20  C   UNL     1     -43.536  56.152 -60.094  1.00  0.00     0.009 A 
HETATM   21  C   UNL     1     -43.522  55.683 -58.748  1.00  0.00     0.025 A 
ENDBRANCH  14  17
ENDBRANCH   1  13
BRANCH   1  22
HETATM   22  C   UNL     1     -40.561  54.463 -54.443  1.00  0.00     0.245 C 
HETATM   23  N   UNL     1     -40.969  53.583 -53.456  1.00  0.00    -0.324 N 
HETATM   24  H   UNL     1     -41.678  53.929 -52.807  1.00  0.00     0.169 HD
HETATM   25  O   UNL     1     -39.589  54.299 -55.178  1.00  0.00    -0.271 OA
BRANCH  23  26
HETATM   26  C   UNL     1     -40.489  52.280 -53.224  1.00  0.00     0.052 A 
HETATM   27  C   UNL     1     -39.862  51.849 -52.058  1.00  0.00     0.145 A 
HETATM   28  N   UNL     1     -39.367  50.596 -51.879  1.00  0.00    -0.271 NA
HETATM   29  C   UNL     1     -39.506  49.733 -52.906  1.00  0.00     0.116 A 
HETATM   30  C   UNL     1     -40.117  50.060 -54.104  1.00  0.00     0.021 A 
HETATM   31  C   UNL     1     -40.614  51.353 -54.261  1.00  0.00     0.032 A 
ENDBRANCH  23  26
ENDBRANCH   1  22
TORSDOF 6
ENDMDL
MODEL 5
REMARK VINA RESULT:      -7.7      1.715      2.179
REMARK  6 active torsions:
REMARK  status: ('A' for Active; 'I' for Inactive)
REMARK    1  A    between atoms: C_8  and  C_9 
REMARK    2  A    between atoms: C_9  and  C_10 
REMARK    3  A    between atoms: C_10  and  N_11 
REMARK    4  A    between atoms: C_10  and  C_19 
REMARK       I    between atoms: N_11  and  C_12 
REMARK    5  A    between atoms: C_12  and  C_13 
REMARK       I    between atoms: C_19  and  N_20 
REMARK    6  A    between atoms: N_20  and  C_21 
ROOT
HETATM    1  C   UNL     1     -43.181  56.811 -53.306  1.00  0.00     0.181 C 
ENDROOT
BRANCH   1   2
HETATM    2  C   UNL     1     -41.678  56.501 -53.465  1.00  0.00     0.075 C 
BRANCH   2   3
HETATM    3  C   UNL     1     -41.208  55.395 -52.566  1.00  0.00    -0.028 A 
HETATM    4  C   UNL     1     -40.710  54.106 -52.950  1.00  0.00    -0.002 A 
HETATM    5  C   UNL     1     -40.496  53.455 -54.182  1.00  0.00     0.014 A 
HETATM    6  C   UNL     1     -40.400  53.414 -51.778  1.00  0.00     0.042 A 
HETATM    7  C   UNL     1     -40.006  52.143 -54.198  1.00  0.00     0.001 A 
HETATM    8  C   UNL     1     -39.715  51.480 -53.010  1.00  0.00     0.002 A 
HETATM    9  C   UNL     1     -39.901  52.106 -51.776  1.00  0.00     0.030 A 
HETATM   10  N   UNL     1     -40.678  54.253 -50.726  1.00  0.00    -0.365 N 
HETATM   11  H   UNL     1     -40.538  54.014 -49.753  1.00  0.00     0.165 HD
HETATM   12  C   UNL     1     -41.165  55.445 -51.185  1.00  0.00     0.096 A 
ENDBRANCH   2   3
ENDBRANCH   1   2
BRANCH   1  13
HETATM   13  N   UNL     1     -43.456  58.016 -52.512  1.00  0.00    -0.343 N 
HETATM   14  C   UNL     1     -44.268  58.056 -51.403  1.00  0.00     0.259 C 
HETATM   15  O   UNL     1     -44.789  57.027 -50.973  1.00  0.00    -0.267 OA
HETATM   16  H   UNL     1     -42.978  58.869 -52.776  1.00  0.00     0.163 HD
BRANCH  14  17
HETATM   17  C   UNL     1     -44.446  59.361 -50.782  1.00  0.00     0.072 A 
HETATM   18  S   UNL     1     -43.178  60.513 -50.686  1.00  0.00    -0.097 SA
HETATM   19  C   UNL     1     -44.171  61.651 -49.889  1.00  0.00     0.050 A 
HETATM   20  C   UNL     1     -45.448  61.174 -49.695  1.00  0.00     0.009 A 
HETATM   21  C   UNL     1     -45.605  59.853 -50.209  1.00  0.00     0.025 A 
ENDBRANCH  14  17
ENDBRANCH   1  13
BRANCH   1  22
HETATM   22  C   UNL     1     -43.928  56.885 -54.657  1.00  0.00     0.245 C 
HETATM   23  N   UNL     1     -43.098  56.981 -55.760  1.00  0.00    -0.324 N 
HETATM   24  H   UNL     1     -42.110  57.158 -55.568  1.00  0.00     0.169 HD
HETATM   25  O   UNL     1     -45.157  56.877 -54.696  1.00  0.00    -0.271 OA
BRANCH  23  26
HETATM   26  C   UNL     1     -43.470  56.900 -57.115  1.00  0.00     0.052 A 
HETATM   27  C   UNL     1     -44.185  57.869 -57.812  1.00  0.00     0.145 A 
HETATM   28  N   UNL     1     -44.571  57.744 -59.110  1.00  0.00    -0.271 NA
HETATM   29  C   UNL     1     -44.223  56.605 -59.742  1.00  0.00     0.116 A 
HETATM   30  C   UNL     1     -43.508  55.583 -59.141  1.00  0.00     0.021 A 
HETATM   31  C   UNL     1     -43.128  55.737 -57.809  1.00  0.00     0.032 A 
ENDBRANCH  23  26
ENDBRANCH   1  22
TORSDOF 6
ENDMDL
MODEL 6
REMARK VINA RESULT:      -7.6      1.554      2.205
REMARK  6 active torsions:
REMARK  status: ('A' for Active; 'I' for Inactive)
REMARK    1  A    between atoms: C_8  and  C_9 
REMARK    2  A    between atoms: C_9  and  C_10 
REMARK    3  A    between atoms: C_10  and  N_11 
REMARK    4  A    between atoms: C_10  and  C_19 
REMARK       I    between atoms: N_11  and  C_12 
REMARK    5  A    between atoms: C_12  and  C_13 
REMARK       I    between atoms: C_19  and  N_20 
REMARK    6  A    between atoms: N_20  and  C_21 
ROOT
HETATM    1  C   UNL     1     -42.327  56.453 -54.017  1.00  0.00     0.181 C 
ENDROOT
BRANCH   1   2
HETATM    2  C   UNL     1     -40.870  56.059 -54.336  1.00  0.00     0.075 C 
BRANCH   2   3
HETATM    3  C   UNL     1     -40.565  54.625 -54.017  1.00  0.00    -0.028 A 
HETATM    4  C   UNL     1     -40.536  54.003 -52.725  1.00  0.00    -0.002 A 
HETATM    5  C   UNL     1     -40.759  54.449 -51.406  1.00  0.00     0.014 A 
HETATM    6  C   UNL     1     -40.201  52.661 -52.917  1.00  0.00     0.042 A 
HETATM    7  C   UNL     1     -40.619  53.555 -50.337  1.00  0.00     0.001 A 
HETATM    8  C   UNL     1     -40.276  52.226 -50.564  1.00  0.00     0.002 A 
HETATM    9  C   UNL     1     -40.066  51.751 -51.861  1.00  0.00     0.030 A 
HETATM   10  N   UNL     1     -40.051  52.470 -54.269  1.00  0.00    -0.365 N 
HETATM   11  H   UNL     1     -39.817  51.585 -54.698  1.00  0.00     0.165 HD
HETATM   12  C   UNL     1     -40.265  53.642 -54.941  1.00  0.00     0.096 A 
ENDBRANCH   2   3
ENDBRANCH   1   2
BRANCH   1  13
HETATM   13  N   UNL     1     -42.444  57.629 -53.145  1.00  0.00    -0.343 N 
HETATM   14  C   UNL     1     -43.233  57.697 -52.020  1.00  0.00     0.259 C 
HETATM   15  O   UNL     1     -43.870  56.713 -51.645  1.00  0.00    -0.267 OA
HETATM   16  H   UNL     1     -41.869  58.434 -53.365  1.00  0.00     0.163 HD
BRANCH  14  17
HETATM   17  C   UNL     1     -43.244  58.972 -51.317  1.00  0.00     0.072 A 
HETATM   18  S   UNL     1     -44.702  59.759 -50.869  1.00  0.00    -0.097 SA
HETATM   19  C   UNL     1     -43.863  61.063 -50.150  1.00  0.00     0.050 A 
HETATM   20  C   UNL     1     -42.498  60.911 -50.244  1.00  0.00     0.009 A 
HETATM   21  C   UNL     1     -42.142  59.706 -50.918  1.00  0.00     0.025 A 
ENDBRANCH  14  17
ENDBRANCH   1  13
BRANCH   1  22
HETATM   22  C   UNL     1     -43.191  56.644 -55.283  1.00  0.00     0.245 C 
HETATM   23  N   UNL     1     -42.468  56.707 -56.461  1.00  0.00    -0.324 N 
HETATM   24  H   UNL     1     -41.454  56.788 -56.364  1.00  0.00     0.169 HD
HETATM   25  O   UNL     1     -44.413  56.747 -55.199  1.00  0.00    -0.271 OA
BRANCH  23  26
HETATM   26  C   UNL     1     -42.975  56.711 -57.774  1.00  0.00     0.052 A 
HETATM   27  C   UNL     1     -43.307  57.847 -58.505  1.00  0.00     0.145 A 
HETATM   28  N   UNL     1     -43.838  57.820 -59.756  1.00  0.00    -0.271 NA
HETATM   29  C   UNL     1     -44.044  56.605 -60.304  1.00  0.00     0.116 A 
HETATM   30  C   UNL     1     -43.745  55.415 -59.663  1.00  0.00     0.021 A 
HETATM   31  C   UNL     1     -43.202  55.473 -58.380  1.00  0.00     0.032 A 
ENDBRANCH  23  26
ENDBRANCH   1  22
TORSDOF 6
ENDMDL
MODEL 7
REMARK VINA RESULT:      -7.6      2.498      6.745
REMARK  6 active torsions:
REMARK  status: ('A' for Active; 'I' for Inactive)
REMARK    1  A    between atoms: C_8  and  C_9 
REMARK    2  A    between atoms: C_9  and  C_10 
REMARK    3  A    between atoms: C_10  and  N_11 
REMARK    4  A    between atoms: C_10  and  C_19 
REMARK       I    between atoms: N_11  and  C_12 
REMARK    5  A    between atoms: C_12  and  C_13 
REMARK       I    between atoms: C_19  and  N_20 
REMARK    6  A    between atoms: N_20  and  C_21 
ROOT
HETATM    1  C   UNL     1     -41.492  55.637 -52.995  1.00  0.00     0.181 C 
ENDROOT
BRANCH   1   2
HETATM    2  C   UNL     1     -41.874  56.284 -51.647  1.00  0.00     0.075 C 
BRANCH   2   3
HETATM    3  C   UNL     1     -42.196  57.745 -51.766  1.00  0.00    -0.028 A 
HETATM    4  C   UNL     1     -43.455  58.387 -51.522  1.00  0.00    -0.002 A 
HETATM    5  C   UNL     1     -44.731  57.943 -51.120  1.00  0.00     0.014 A 
HETATM    6  C   UNL     1     -43.280  59.750 -51.765  1.00  0.00     0.042 A 
HETATM    7  C   UNL     1     -45.780  58.862 -50.999  1.00  0.00     0.001 A 
HETATM    8  C   UNL     1     -45.573  60.213 -51.257  1.00  0.00     0.002 A 
HETATM    9  C   UNL     1     -44.315  60.685 -51.639  1.00  0.00     0.030 A 
HETATM   10  N   UNL     1     -41.966  59.934 -52.124  1.00  0.00    -0.365 N 
HETATM   11  H   UNL     1     -41.556  60.830 -52.347  1.00  0.00     0.165 HD
HETATM   12  C   UNL     1     -41.305  58.737 -52.129  1.00  0.00     0.096 A 
ENDBRANCH   2   3
ENDBRANCH   1   2
BRANCH   1  13
HETATM   13  N   UNL     1     -41.083  54.231 -52.882  1.00  0.00    -0.343 N 
HETATM   14  C   UNL     1     -40.380  53.539 -53.840  1.00  0.00     0.259 C 
HETATM   15  O   UNL     1     -40.000  54.106 -54.865  1.00  0.00    -0.267 OA
HETATM   16  H   UNL     1     -41.297  53.750 -52.016  1.00  0.00     0.163 HD
BRANCH  14  17
HETATM   17  C   UNL     1     -40.111  52.137 -53.555  1.00  0.00     0.072 A 
HETATM   18  S   UNL     1     -39.565  51.602 -52.019  1.00  0.00    -0.097 SA
HETATM   19  C   UNL     1     -39.519  49.970 -52.521  1.00  0.00     0.050 A 
HETATM   20  C   UNL     1     -39.911  49.824 -53.832  1.00  0.00     0.009 A 
HETATM   21  C   UNL     1     -40.251  51.074 -54.428  1.00  0.00     0.025 A 
ENDBRANCH  14  17
ENDBRANCH   1  13
BRANCH   1  22
HETATM   22  C   UNL     1     -42.596  55.783 -54.066  1.00  0.00     0.245 C 
HETATM   23  N   UNL     1     -42.195  56.453 -55.208  1.00  0.00    -0.324 N 
HETATM   24  H   UNL     1     -41.286  56.918 -55.163  1.00  0.00     0.169 HD
HETATM   25  O   UNL     1     -43.726  55.343 -53.867  1.00  0.00    -0.271 OA
BRANCH  23  26
HETATM   26  C   UNL     1     -42.914  56.597 -56.410  1.00  0.00     0.052 A 
HETATM   27  C   UNL     1     -42.992  55.642 -57.419  1.00  0.00     0.145 A 
HETATM   28  N   UNL     1     -43.657  55.825 -58.590  1.00  0.00    -0.271 NA
HETATM   29  C   UNL     1     -44.275  57.012 -58.761  1.00  0.00     0.116 A 
HETATM   30  C   UNL     1     -44.261  58.025 -57.819  1.00  0.00     0.021 A 
HETATM   31  C   UNL     1     -43.569  57.810 -56.627  1.00  0.00     0.032 A 
ENDBRANCH  23  26
ENDBRANCH   1  22
TORSDOF 6
ENDMDL
MODEL 8
REMARK VINA RESULT:      -7.5      1.886      6.829
REMARK  6 active torsions:
REMARK  status: ('A' for Active; 'I' for Inactive)
REMARK    1  A    between atoms: C_8  and  C_9 
REMARK    2  A    between atoms: C_9  and  C_10 
REMARK    3  A    between atoms: C_10  and  N_11 
REMARK    4  A    between atoms: C_10  and  C_19 
REMARK       I    between atoms: N_11  and  C_12 
REMARK    5  A    between atoms: C_12  and  C_13 
REMARK       I    between atoms: C_19  and  N_20 
REMARK    6  A    between atoms: N_20  and  C_21 
ROOT
HETATM    1  C   UNL     1     -42.305  56.440 -54.852  1.00  0.00     0.181 C 
ENDROOT
BRANCH   1   2
HETATM    2  C   UNL     1     -43.502  56.636 -55.805  1.00  0.00     0.075 C 
BRANCH   2   3
HETATM    3  C   UNL     1     -43.108  56.634 -57.253  1.00  0.00    -0.028 A 
HETATM    4  C   UNL     1     -42.699  57.753 -58.051  1.00  0.00    -0.002 A 
HETATM    5  C   UNL     1     -42.529  59.132 -57.809  1.00  0.00     0.014 A 
HETATM    6  C   UNL     1     -42.437  57.275 -59.335  1.00  0.00     0.042 A 
HETATM    7  C   UNL     1     -42.129  59.976 -58.852  1.00  0.00     0.001 A 
HETATM    8  C   UNL     1     -41.883  59.466 -60.123  1.00  0.00     0.002 A 
HETATM    9  C   UNL     1     -42.027  58.102 -60.388  1.00  0.00     0.030 A 
HETATM   10  N   UNL     1     -42.658  55.918 -59.317  1.00  0.00    -0.365 N 
HETATM   11  H   UNL     1     -42.534  55.309 -60.113  1.00  0.00     0.165 HD
HETATM   12  C   UNL     1     -43.062  55.521 -58.072  1.00  0.00     0.096 A 
ENDBRANCH   2   3
ENDBRANCH   1   2
BRANCH   1  13
HETATM   13  N   UNL     1     -42.302  57.361 -53.708  1.00  0.00    -0.343 N 
HETATM   14  C   UNL     1     -41.176  57.931 -53.161  1.00  0.00     0.259 C 
HETATM   15  O   UNL     1     -40.069  57.724 -53.659  1.00  0.00    -0.267 OA
HETATM   16  H   UNL     1     -43.200  57.629 -53.321  1.00  0.00     0.163 HD
BRANCH  14  17
HETATM   17  C   UNL     1     -41.384  58.782 -51.999  1.00  0.00     0.072 A 
HETATM   18  S   UNL     1     -42.601  59.991 -51.953  1.00  0.00    -0.097 SA
HETATM   19  C   UNL     1     -42.182  60.458 -50.365  1.00  0.00     0.050 A 
HETATM   20  C   UNL     1     -41.136  59.714 -49.868  1.00  0.00     0.009 A 
HETATM   21  C   UNL     1     -40.676  58.749 -50.811  1.00  0.00     0.025 A 
ENDBRANCH  14  17
ENDBRANCH   1  13
BRANCH   1  22
HETATM   22  C   UNL     1     -42.159  54.983 -54.360  1.00  0.00     0.245 C 
HETATM   23  N   UNL     1     -40.872  54.635 -53.988  1.00  0.00    -0.324 N 
HETATM   24  H   UNL     1     -40.137  55.303 -54.226  1.00  0.00     0.169 HD
HETATM   25  O   UNL     1     -43.129  54.228 -54.338  1.00  0.00    -0.271 OA
BRANCH  23  26
HETATM   26  C   UNL     1     -40.460  53.448 -53.352  1.00  0.00     0.052 A 
HETATM   27  C   UNL     1     -40.280  53.291 -51.981  1.00  0.00     0.145 A 
HETATM   28  N   UNL     1     -39.837  52.146 -51.397  1.00  0.00    -0.271 NA
HETATM   29  C   UNL     1     -39.565  51.111 -52.217  1.00  0.00     0.116 A 
HETATM   30  C   UNL     1     -39.715  51.162 -53.592  1.00  0.00     0.021 A 
HETATM   31  C   UNL     1     -40.169  52.350 -54.163  1.00  0.00     0.032 A 
ENDBRANCH  23  26
ENDBRANCH   1  22
TORSDOF 6
ENDMDL
MODEL 9
REMARK VINA RESULT:      -7.4      1.816      6.682
REMARK  6 active torsions:
REMARK  status: ('A' for Active; 'I' for Inactive)
REMARK    1  A    between atoms: C_8  and  C_9 
REMARK    2  A    between atoms: C_9  and  C_10 
REMARK    3  A    between atoms: C_10  and  N_11 
REMARK    4  A    between atoms: C_10  and  C_19 
REMARK       I    between atoms: N_11  and  C_12 
REMARK    5  A    between atoms: C_12  and  C_13 
REMARK       I    between atoms: C_19  and  N_20 
REMARK    6  A    between atoms: N_20  and  C_21 
ROOT
HETATM    1  C   UNL     1     -42.408  55.203 -54.242  1.00  0.00     0.181 C 
ENDROOT
BRANCH   1   2
HETATM    2  C   UNL     1     -43.085  54.841 -55.580  1.00  0.00     0.075 C 
BRANCH   2   3
HETATM    3  C   UNL     1     -42.845  55.861 -56.655  1.00  0.00    -0.028 A 
HETATM    4  C   UNL     1     -43.295  55.823 -58.016  1.00  0.00    -0.002 A 
HETATM    5  C   UNL     1     -44.053  54.914 -58.782  1.00  0.00     0.014 A 
HETATM    6  C   UNL     1     -42.829  56.979 -58.642  1.00  0.00     0.042 A 
HETATM    7  C   UNL     1     -44.296  55.179 -60.135  1.00  0.00     0.001 A 
HETATM    8  C   UNL     1     -43.809  56.339 -60.729  1.00  0.00     0.002 A 
HETATM    9  C   UNL     1     -43.070  57.266 -59.991  1.00  0.00     0.030 A 
HETATM   10  N   UNL     1     -42.139  57.702 -57.697  1.00  0.00    -0.365 N 
HETATM   11  H   UNL     1     -41.699  58.595 -57.871  1.00  0.00     0.165 HD
HETATM   12  C   UNL     1     -42.140  57.041 -56.501  1.00  0.00     0.096 A 
ENDBRANCH   2   3
ENDBRANCH   1   2
BRANCH   1  13
HETATM   13  N   UNL     1     -43.177  56.153 -53.428  1.00  0.00    -0.343 N 
HETATM   14  C   UNL     1     -42.654  57.272 -52.824  1.00  0.00     0.259 C 
HETATM   15  O   UNL     1     -41.470  57.572 -52.986  1.00  0.00    -0.267 OA
HETATM   16  H   UNL     1     -44.174  55.994 -53.340  1.00  0.00     0.163 HD
BRANCH  14  17
HETATM   17  C   UNL     1     -43.576  58.062 -52.020  1.00  0.00     0.072 A 
HETATM   18  S   UNL     1     -43.176  59.624 -51.434  1.00  0.00    -0.097 SA
HETATM   19  C   UNL     1     -44.693  59.806 -50.670  1.00  0.00     0.050 A 
HETATM   20  C   UNL     1     -45.497  58.704 -50.852  1.00  0.00     0.009 A 
HETATM   21  C   UNL     1     -44.852  57.698 -51.629  1.00  0.00     0.025 A 
ENDBRANCH  14  17
ENDBRANCH   1  13
BRANCH   1  22
HETATM   22  C   UNL     1     -42.038  53.961 -53.400  1.00  0.00     0.245 C 
HETATM   23  N   UNL     1     -41.162  53.091 -54.024  1.00  0.00    -0.324 N 
HETATM   24  H   UNL     1     -40.984  53.264 -55.015  1.00  0.00     0.169 HD
HETATM   25  O   UNL     1     -42.523  53.794 -52.282  1.00  0.00    -0.271 OA
BRANCH  23  26
HETATM   26  C   UNL     1     -40.521  51.974 -53.457  1.00  0.00     0.052 A 
HETATM   27  C   UNL     1     -39.964  51.928 -52.182  1.00  0.00     0.145 A 
HETATM   28  N   UNL     1     -39.309  50.849 -51.676  1.00  0.00    -0.271 NA
HETATM   29  C   UNL     1     -39.208  49.768 -52.475  1.00  0.00     0.116 A 
HETATM   30  C   UNL     1     -39.730  49.710 -53.756  1.00  0.00     0.021 A 
HETATM   31  C   UNL     1     -40.395  50.831 -54.249  1.00  0.00     0.032 A 
ENDBRANCH  23  26
ENDBRANCH   1  22
TORSDOF 6
ENDMDL
MODEL 10
REMARK VINA RESULT:      -7.4      2.688      7.710
REMARK  6 active torsions:
REMARK  status: ('A' for Active; 'I' for Inactive)
REMARK    1  A    between atoms: C_8  and  C_9 
REMARK    2  A    between atoms: C_9  and  C_10 
REMARK    3  A    between atoms: C_10  and  N_11 
REMARK    4  A    between atoms: C_10  and  C_19 
REMARK       I    between atoms: N_11  and  C_12 
REMARK    5  A    between atoms: C_12  and  C_13 
REMARK       I    between atoms: C_19  and  N_20 
REMARK    6  A    between atoms: N_20  and  C_21 
ROOT
HETATM    1  C   UNL     1     -42.979  56.534 -55.439  1.00  0.00     0.181 C 
ENDROOT
BRANCH   1   2
HETATM    2  C   UNL     1     -41.768  57.489 -55.467  1.00  0.00     0.075 C 
BRANCH   2   3
HETATM    3  C   UNL     1     -41.868  58.594 -54.455  1.00  0.00    -0.028 A 
HETATM    4  C   UNL     1     -41.545  58.535 -53.060  1.00  0.00    -0.002 A 
HETATM    5  C   UNL     1     -41.062  57.530 -52.196  1.00  0.00     0.014 A 
HETATM    6  C   UNL     1     -41.800  59.797 -52.520  1.00  0.00     0.042 A 
HETATM    7  C   UNL     1     -40.875  57.812 -50.838  1.00  0.00     0.001 A 
HETATM    8  C   UNL     1     -41.147  59.079 -50.332  1.00  0.00     0.002 A 
HETATM    9  C   UNL     1     -41.610  60.100 -51.167  1.00  0.00     0.030 A 
HETATM   10  N   UNL     1     -42.242  60.596 -53.548  1.00  0.00    -0.365 N 
HETATM   11  H   UNL     1     -42.493  61.570 -53.446  1.00  0.00     0.165 HD
HETATM   12  C   UNL     1     -42.288  59.885 -54.715  1.00  0.00     0.096 A 
ENDBRANCH   2   3
ENDBRANCH   1   2
BRANCH   1  13
HETATM   13  N   UNL     1     -43.521  56.228 -56.770  1.00  0.00    -0.343 N 
HETATM   14  C   UNL     1     -44.227  57.113 -57.552  1.00  0.00     0.259 C 
HETATM   15  O   UNL     1     -44.404  58.272 -57.177  1.00  0.00    -0.267 OA
HETATM   16  H   UNL     1     -43.324  55.313 -57.157  1.00  0.00     0.163 HD
BRANCH  14  17
HETATM   17  C   UNL     1     -44.719  56.599 -58.822  1.00  0.00     0.072 A 
HETATM   18  S   UNL     1     -43.836  55.461 -59.755  1.00  0.00    -0.097 SA
HETATM   19  C   UNL     1     -45.038  55.410 -60.966  1.00  0.00     0.050 A 
HETATM   20  C   UNL     1     -46.098  56.240 -60.676  1.00  0.00     0.009 A 
HETATM   21  C   UNL     1     -45.912  56.926 -59.441  1.00  0.00     0.025 A 
ENDBRANCH  14  17
ENDBRANCH   1  13
BRANCH   1  22
HETATM   22  C   UNL     1     -42.697  55.224 -54.669  1.00  0.00     0.245 C 
HETATM   23  N   UNL     1     -41.359  54.876 -54.611  1.00  0.00    -0.324 N 
HETATM   24  H   UNL     1     -40.727  55.412 -55.208  1.00  0.00     0.169 HD
HETATM   25  O   UNL     1     -43.618  54.571 -54.183  1.00  0.00    -0.271 OA
BRANCH  23  26
HETATM   26  C   UNL     1     -40.779  53.843 -53.850  1.00  0.00     0.052 A 
HETATM   27  C   UNL     1     -40.350  52.618 -54.353  1.00  0.00     0.145 A 
HETATM   28  N   UNL     1     -39.835  51.620 -53.587  1.00  0.00    -0.271 NA
HETATM   29  C   UNL     1     -39.740  51.855 -52.263  1.00  0.00     0.116 A 
HETATM   30  C   UNL     1     -40.134  53.039 -51.665  1.00  0.00     0.021 A 
HETATM   31  C   UNL     1     -40.660  54.045 -52.474  1.00  0.00     0.032 A 
ENDBRANCH  23  26
ENDBRANCH   1  22
TORSDOF 6
ENDMDL
