MODEL 1
REMARK VINA RESULT:      -8.8      0.000      0.000
REMARK  9 active torsions:
REMARK  status: ('A' for Active; 'I' for Inactive)
REMARK    1  A    between atoms: C_6  and  C_7 
REMARK    2  A    between atoms: C_7  and  C_8 
REMARK       I    between atoms: C_8  and  N_9 
REMARK    3  A    between atoms: N_9  and  C_10 
REMARK    4  A    between atoms: C_10  and  C_11 
REMARK    5  A    between atoms: C_11  and  N_12 
REMARK    6  A    between atoms: C_20  and  C_21 
REMARK    7  A    between atoms: C_24  and  C_25 
REMARK    8  A    between atoms: C_32  and  C_33 
REMARK    9  A    between atoms: C_33  and  O_34 
ROOT
HETATM    1  C   UNL     1     -42.252  59.786 -55.479  1.00  0.00     0.071 C 
HETATM    2  C   UNL     1     -41.552  58.788 -54.590  1.00  0.00     0.048 C 
HETATM    3  N   UNL     1     -40.698  59.364 -53.635  1.00  0.00    -0.229 NA
HETATM    4  C   UNL     1     -40.547  58.723 -52.517  1.00  0.00     0.170 C 
HETATM    5  N   UNL     1     -41.168  57.272 -52.284  1.00  0.00    -0.319 N 
HETATM    6  C   UNL     1     -41.968  57.515 -51.283  1.00  0.00     0.011 C 
HETATM    7  C   UNL     1     -41.087  56.627 -53.609  1.00  0.00     0.166 C 
HETATM    8  S   UNL     1     -40.111  59.435 -50.994  1.00  0.00    -0.086 SA
HETATM    9  C   UNL     1     -41.195  58.187 -50.145  1.00  0.00     0.135 C 
HETATM   10  C   UNL     1     -41.834  57.464 -54.581  1.00  0.00     0.069 C 
ENDROOT
BRANCH   6  11
HETATM   11  C   UNL     1     -43.411  57.863 -51.547  1.00  0.00     0.156 C 
BRANCH  11  12
HETATM   12  C   UNL     1     -43.915  59.270 -51.384  1.00  0.00     0.223 C 
HETATM   13  N   UNL     1     -44.627  59.464 -50.229  1.00  0.00    -0.359 N 
HETATM   14  H   UNL     1     -44.572  58.736 -49.509  1.00  0.00     0.162 HD
HETATM   15  O   UNL     1     -43.806  60.111 -52.274  1.00  0.00    -0.273 OA
BRANCH  13  16
HETATM   16  C   UNL     1     -45.670  60.456 -49.960  1.00  0.00     0.150 C 
BRANCH  16  17
HETATM   17  C   UNL     1     -45.304  61.831 -49.373  1.00  0.00     0.254 C 
BRANCH  17  18
HETATM   18  N   UNL     1     -45.558  61.974 -47.882  1.00  0.00    -0.070 N 
HETATM   19  H   UNL     1     -46.550  61.687 -47.753  1.00  0.00     0.279 HD
HETATM   20  C   UNL     1     -44.696  61.103 -47.000  1.00  0.00     0.235 C 
HETATM   21  C   UNL     1     -45.109  61.267 -45.543  1.00  0.00     0.028 C 
HETATM   22  C   UNL     1     -45.062  62.723 -45.100  1.00  0.00     0.003 C 
HETATM   23  C   UNL     1     -45.892  63.598 -46.029  1.00  0.00     0.028 C 
HETATM   24  C   UNL     1     -45.472  63.432 -47.479  1.00  0.00     0.235 C 
ENDBRANCH  17  18
ENDBRANCH  16  17
ENDBRANCH  13  16
ENDBRANCH  11  12
ENDBRANCH   6  11
BRANCH   7  25
HETATM   25  C   UNL     1     -41.021  55.113 -53.708  1.00  0.00    -0.030 A 
HETATM   26  C   UNL     1     -41.385  54.242 -52.672  1.00  0.00     0.010 A 
HETATM   27  C   UNL     1     -40.956  52.903 -52.685  1.00  0.00     0.008 A 
HETATM   28  C   UNL     1     -40.160  52.396 -53.723  1.00  0.00    -0.055 A 
HETATM   29  C   UNL     1     -39.880  53.233 -54.803  1.00  0.00     0.008 A 
HETATM   30  C   UNL     1     -40.287  54.568 -54.785  1.00  0.00     0.010 A 
BRANCH  28  31
HETATM   31  C   UNL     1     -39.582  50.990 -53.641  1.00  0.00     0.010 C 
HETATM   32  C   UNL     1     -39.537  50.495 -52.196  1.00  0.00     0.015 C 
HETATM   33  C   UNL     1     -40.336  49.985 -54.525  1.00  0.00     0.015 C 
ENDBRANCH  28  31
ENDBRANCH   7  25
BRANCH  10  34
HETATM   34  C   UNL     1     -43.050  56.887 -55.169  1.00  0.00     0.293 C 
HETATM   35  O   UNL     1     -44.011  56.621 -54.458  1.00  0.00    -0.259 OA
BRANCH  34  36
HETATM   36  O   UNL     1     -42.875  56.593 -56.467  1.00  0.00    -0.323 OA
HETATM   37  C   UNL     1     -43.107  55.216 -56.792  1.00  0.00     0.213 C 
ENDBRANCH  34  36
ENDBRANCH  10  34
TORSDOF 9
ENDMDL
MODEL 2
REMARK VINA RESULT:      -8.5      1.404      2.259
REMARK  9 active torsions:
REMARK  status: ('A' for Active; 'I' for Inactive)
REMARK    1  A    between atoms: C_6  and  C_7 
REMARK    2  A    between atoms: C_7  and  C_8 
REMARK       I    between atoms: C_8  and  N_9 
REMARK    3  A    between atoms: N_9  and  C_10 
REMARK    4  A    between atoms: C_10  and  C_11 
REMARK    5  A    between atoms: C_11  and  N_12 
REMARK    6  A    between atoms: C_20  and  C_21 
REMARK    7  A    between atoms: C_24  and  C_25 
REMARK    8  A    between atoms: C_32  and  C_33 
REMARK    9  A    between atoms: C_33  and  O_34 
ROOT
HETATM    1  C   UNL     1     -42.269  59.840 -55.453  1.00  0.00     0.071 C 
HETATM    2  C   UNL     1     -41.566  58.835 -54.576  1.00  0.00     0.048 C 
HETATM    3  N   UNL     1     -40.690  59.402 -53.635  1.00  0.00    -0.229 NA
HETATM    4  C   UNL     1     -40.529  58.759 -52.518  1.00  0.00     0.170 C 
HETATM    5  N   UNL     1     -41.162  57.316 -52.275  1.00  0.00    -0.319 N 
HETATM    6  C   UNL     1     -41.943  57.567 -51.262  1.00  0.00     0.011 C 
HETATM    7  C   UNL     1     -41.109  56.669 -53.601  1.00  0.00     0.166 C 
HETATM    8  S   UNL     1     -40.061  59.467 -51.003  1.00  0.00    -0.086 SA
HETATM    9  C   UNL     1     -41.145  58.231 -50.136  1.00  0.00     0.135 C 
HETATM   10  C   UNL     1     -41.862  57.514 -54.561  1.00  0.00     0.069 C 
ENDROOT
BRANCH   6  11
HETATM   11  C   UNL     1     -43.386  57.931 -51.503  1.00  0.00     0.156 C 
BRANCH  11  12
HETATM   12  C   UNL     1     -43.873  59.342 -51.327  1.00  0.00     0.223 C 
HETATM   13  N   UNL     1     -44.772  59.486 -50.303  1.00  0.00    -0.359 N 
HETATM   14  H   UNL     1     -44.864  58.709 -49.639  1.00  0.00     0.162 HD
HETATM   15  O   UNL     1     -43.587  60.236 -52.121  1.00  0.00    -0.273 OA
BRANCH  13  16
HETATM   16  C   UNL     1     -45.819  60.497 -50.147  1.00  0.00     0.150 C 
BRANCH  16  17
HETATM   17  C   UNL     1     -45.619  61.683 -49.187  1.00  0.00     0.254 C 
BRANCH  17  18
HETATM   18  N   UNL     1     -44.951  62.898 -49.807  1.00  0.00    -0.070 N 
HETATM   19  H   UNL     1     -45.295  63.705 -49.248  1.00  0.00     0.279 HD
HETATM   20  C   UNL     1     -43.442  62.894 -49.753  1.00  0.00     0.235 C 
HETATM   21  C   UNL     1     -42.898  64.200 -50.318  1.00  0.00     0.028 C 
HETATM   22  C   UNL     1     -43.400  64.460 -51.731  1.00  0.00     0.003 C 
HETATM   23  C   UNL     1     -44.921  64.409 -51.783  1.00  0.00     0.028 C 
HETATM   24  C   UNL     1     -45.456  63.102 -51.221  1.00  0.00     0.235 C 
ENDBRANCH  17  18
ENDBRANCH  16  17
ENDBRANCH  13  16
ENDBRANCH  11  12
ENDBRANCH   6  11
BRANCH   7  25
HETATM   25  C   UNL     1     -41.060  55.155 -53.700  1.00  0.00    -0.030 A 
HETATM   26  C   UNL     1     -41.345  54.288 -52.635  1.00  0.00     0.010 A 
HETATM   27  C   UNL     1     -40.927  52.946 -52.678  1.00  0.00     0.008 A 
HETATM   28  C   UNL     1     -40.220  52.432 -53.776  1.00  0.00    -0.055 A 
HETATM   29  C   UNL     1     -40.024  53.264 -54.877  1.00  0.00     0.008 A 
HETATM   30  C   UNL     1     -40.420  54.602 -54.831  1.00  0.00     0.010 A 
BRANCH  28  31
HETATM   31  C   UNL     1     -39.647  51.022 -53.737  1.00  0.00     0.010 C 
HETATM   32  C   UNL     1     -39.479  50.535 -52.298  1.00  0.00     0.015 C 
HETATM   33  C   UNL     1     -40.482  50.018 -54.546  1.00  0.00     0.015 C 
ENDBRANCH  28  31
ENDBRANCH   7  25
BRANCH  10  34
HETATM   34  C   UNL     1     -43.093  56.950 -55.129  1.00  0.00     0.293 C 
HETATM   35  O   UNL     1     -43.112  56.556 -56.289  1.00  0.00    -0.259 OA
BRANCH  34  36
HETATM   36  O   UNL     1     -44.127  57.076 -54.281  1.00  0.00    -0.323 OA
HETATM   37  C   UNL     1     -45.237  57.809 -54.816  1.00  0.00     0.213 C 
ENDBRANCH  34  36
ENDBRANCH  10  34
TORSDOF 9
ENDMDL
MODEL 3
REMARK VINA RESULT:      -8.4      1.268      1.647
REMARK  9 active torsions:
REMARK  status: ('A' for Active; 'I' for Inactive)
REMARK    1  A    between atoms: C_6  and  C_7 
REMARK    2  A    between atoms: C_7  and  C_8 
REMARK       I    between atoms: C_8  and  N_9 
REMARK    3  A    between atoms: N_9  and  C_10 
REMARK    4  A    between atoms: C_10  and  C_11 
REMARK    5  A    between atoms: C_11  and  N_12 
REMARK    6  A    between atoms: C_20  and  C_21 
REMARK    7  A    between atoms: C_24  and  C_25 
REMARK    8  A    between atoms: C_32  and  C_33 
REMARK    9  A    between atoms: C_33  and  O_34 
ROOT
HETATM    1  C   UNL     1     -42.441  59.849 -55.566  1.00  0.00     0.071 C 
HETATM    2  C   UNL     1     -41.730  58.856 -54.681  1.00  0.00     0.048 C 
HETATM    3  N   UNL     1     -40.896  59.438 -53.712  1.00  0.00    -0.229 NA
HETATM    4  C   UNL     1     -40.743  58.788 -52.599  1.00  0.00     0.170 C 
HETATM    5  N   UNL     1     -41.338  57.323 -52.388  1.00  0.00    -0.319 N 
HETATM    6  C   UNL     1     -42.153  57.538 -51.393  1.00  0.00     0.011 C 
HETATM    7  C   UNL     1     -41.232  56.694 -53.720  1.00  0.00     0.166 C 
HETATM    8  S   UNL     1     -40.337  59.491 -51.065  1.00  0.00    -0.086 SA
HETATM    9  C   UNL     1     -41.404  58.213 -50.240  1.00  0.00     0.135 C 
HETATM   10  C   UNL     1     -41.985  57.527 -54.689  1.00  0.00     0.069 C 
ENDROOT
BRANCH   6  11
HETATM   11  C   UNL     1     -43.600  57.861 -51.667  1.00  0.00     0.156 C 
BRANCH  11  12
HETATM   12  C   UNL     1     -44.166  59.218 -51.360  1.00  0.00     0.223 C 
HETATM   13  N   UNL     1     -43.807  60.179 -52.269  1.00  0.00    -0.359 N 
HETATM   14  H   UNL     1     -43.390  59.865 -53.152  1.00  0.00     0.162 HD
HETATM   15  O   UNL     1     -44.775  59.451 -50.318  1.00  0.00    -0.273 OA
BRANCH  13  16
HETATM   16  C   UNL     1     -43.700  61.626 -52.068  1.00  0.00     0.150 C 
BRANCH  16  17
HETATM   17  C   UNL     1     -44.966  62.499 -52.015  1.00  0.00     0.254 C 
BRANCH  17  18
HETATM   18  N   UNL     1     -45.306  63.044 -50.639  1.00  0.00    -0.070 N 
HETATM   19  H   UNL     1     -45.456  64.063 -50.786  1.00  0.00     0.279 HD
HETATM   20  C   UNL     1     -46.553  62.467 -50.013  1.00  0.00     0.235 C 
HETATM   21  C   UNL     1     -46.836  63.158 -48.686  1.00  0.00     0.028 C 
HETATM   22  C   UNL     1     -45.650  63.070 -47.736  1.00  0.00     0.003 C 
HETATM   23  C   UNL     1     -44.387  63.605 -48.397  1.00  0.00     0.028 C 
HETATM   24  C   UNL     1     -44.109  62.909 -49.719  1.00  0.00     0.235 C 
ENDBRANCH  17  18
ENDBRANCH  16  17
ENDBRANCH  13  16
ENDBRANCH  11  12
ENDBRANCH   6  11
BRANCH   7  25
HETATM   25  C   UNL     1     -41.133  55.183 -53.834  1.00  0.00    -0.030 A 
HETATM   26  C   UNL     1     -41.553  54.291 -52.837  1.00  0.00     0.010 A 
HETATM   27  C   UNL     1     -41.102  52.959 -52.839  1.00  0.00     0.008 A 
HETATM   28  C   UNL     1     -40.229  52.480 -53.828  1.00  0.00    -0.055 A 
HETATM   29  C   UNL     1     -39.891  53.337 -54.874  1.00  0.00     0.008 A 
HETATM   30  C   UNL     1     -40.320  54.665 -54.866  1.00  0.00     0.010 A 
BRANCH  28  31
HETATM   31  C   UNL     1     -39.636  51.081 -53.725  1.00  0.00     0.010 C 
HETATM   32  C   UNL     1     -39.489  50.649 -52.267  1.00  0.00     0.015 C 
HETATM   33  C   UNL     1     -40.439  50.036 -54.514  1.00  0.00     0.015 C 
ENDBRANCH  28  31
ENDBRANCH   7  25
BRANCH  10  34
HETATM   34  C   UNL     1     -43.184  56.932 -55.295  1.00  0.00     0.293 C 
HETATM   35  O   UNL     1     -44.235  56.890 -54.668  1.00  0.00    -0.259 OA
BRANCH  34  36
HETATM   36  O   UNL     1     -42.904  56.364 -56.480  1.00  0.00    -0.323 OA
HETATM   37  C   UNL     1     -43.527  57.007 -57.599  1.00  0.00     0.213 C 
ENDBRANCH  34  36
ENDBRANCH  10  34
TORSDOF 9
ENDMDL
MODEL 4
REMARK VINA RESULT:      -8.1      3.501      7.683
REMARK  9 active torsions:
REMARK  status: ('A' for Active; 'I' for Inactive)
REMARK    1  A    between atoms: C_6  and  C_7 
REMARK    2  A    between atoms: C_7  and  C_8 
REMARK       I    between atoms: C_8  and  N_9 
REMARK    3  A    between atoms: N_9  and  C_10 
REMARK    4  A    between atoms: C_10  and  C_11 
REMARK    5  A    between atoms: C_11  and  N_12 
REMARK    6  A    between atoms: C_20  and  C_21 
REMARK    7  A    between atoms: C_24  and  C_25 
REMARK    8  A    between atoms: C_32  and  C_33 
REMARK    9  A    between atoms: C_33  and  O_34 
ROOT
HETATM    1  C   UNL     1     -43.323  60.257 -51.675  1.00  0.00     0.071 C 
HETATM    2  C   UNL     1     -43.343  58.964 -52.450  1.00  0.00     0.048 C 
HETATM    3  N   UNL     1     -44.555  58.704 -53.110  1.00  0.00    -0.229 NA
HETATM    4  C   UNL     1     -44.492  58.018 -54.210  1.00  0.00     0.170 C 
HETATM    5  N   UNL     1     -43.131  57.359 -54.718  1.00  0.00    -0.319 N 
HETATM    6  C   UNL     1     -42.981  57.973 -55.859  1.00  0.00     0.011 C 
HETATM    7  C   UNL     1     -42.431  56.973 -53.477  1.00  0.00     0.166 C 
HETATM    8  S   UNL     1     -45.643  58.082 -55.509  1.00  0.00    -0.086 SA
HETATM    9  C   UNL     1     -44.247  57.819 -56.707  1.00  0.00     0.135 C 
HETATM   10  C   UNL     1     -42.250  58.190 -52.647  1.00  0.00     0.069 C 
ENDROOT
BRANCH   6  11
HETATM   11  C   UNL     1     -42.154  59.231 -55.927  1.00  0.00     0.156 C 
BRANCH  11  12
HETATM   12  C   UNL     1     -42.091  60.054 -57.183  1.00  0.00     0.223 C 
HETATM   13  N   UNL     1     -43.323  60.355 -57.702  1.00  0.00    -0.359 N 
HETATM   14  H   UNL     1     -44.142  60.194 -57.105  1.00  0.00     0.162 HD
HETATM   15  O   UNL     1     -41.028  60.303 -57.748  1.00  0.00    -0.273 OA
BRANCH  13  16
HETATM   16  C   UNL     1     -43.678  60.648 -59.092  1.00  0.00     0.150 C 
BRANCH  16  17
HETATM   17  C   UNL     1     -43.419  59.607 -60.196  1.00  0.00     0.254 C 
BRANCH  17  18
HETATM   18  N   UNL     1     -43.749  58.176 -59.812  1.00  0.00    -0.070 N 
HETATM   19  H   UNL     1     -43.820  58.189 -58.774  1.00  0.00     0.279 HD
HETATM   20  C   UNL     1     -45.049  57.648 -60.368  1.00  0.00     0.235 C 
HETATM   21  C   UNL     1     -45.311  56.245 -59.837  1.00  0.00     0.028 C 
HETATM   22  C   UNL     1     -44.157  55.299 -60.138  1.00  0.00     0.003 C 
HETATM   23  C   UNL     1     -42.843  55.867 -59.619  1.00  0.00     0.028 C 
HETATM   24  C   UNL     1     -42.587  57.266 -60.155  1.00  0.00     0.235 C 
ENDBRANCH  17  18
ENDBRANCH  16  17
ENDBRANCH  13  16
ENDBRANCH  11  12
ENDBRANCH   6  11
BRANCH   7  25
HETATM   25  C   UNL     1     -41.425  55.836 -53.501  1.00  0.00    -0.030 A 
HETATM   26  C   UNL     1     -40.832  55.336 -54.669  1.00  0.00     0.010 A 
HETATM   27  C   UNL     1     -40.217  54.072 -54.670  1.00  0.00     0.008 A 
HETATM   28  C   UNL     1     -40.172  53.276 -53.515  1.00  0.00    -0.055 A 
HETATM   29  C   UNL     1     -40.672  53.813 -52.329  1.00  0.00     0.008 A 
HETATM   30  C   UNL     1     -41.301  55.058 -52.328  1.00  0.00     0.010 A 
BRANCH  28  31
HETATM   31  C   UNL     1     -39.636  51.852 -53.576  1.00  0.00     0.010 C 
HETATM   32  C   UNL     1     -39.401  51.289 -52.175  1.00  0.00     0.015 C 
HETATM   33  C   UNL     1     -40.542  50.910 -54.384  1.00  0.00     0.015 C 
ENDBRANCH  28  31
ENDBRANCH   7  25
BRANCH  10  34
HETATM   34  C   UNL     1     -40.874  58.655 -52.430  1.00  0.00     0.293 C 
HETATM   35  O   UNL     1     -40.236  59.145 -53.355  1.00  0.00    -0.259 OA
BRANCH  34  36
HETATM   36  O   UNL     1     -40.436  58.336 -51.201  1.00  0.00    -0.323 OA
HETATM   37  C   UNL     1     -39.885  59.441 -50.472  1.00  0.00     0.213 C 
ENDBRANCH  34  36
ENDBRANCH  10  34
TORSDOF 9
ENDMDL
MODEL 5
REMARK VINA RESULT:      -7.8      2.869      3.825
REMARK  9 active torsions:
REMARK  status: ('A' for Active; 'I' for Inactive)
REMARK    1  A    between atoms: C_6  and  C_7 
REMARK    2  A    between atoms: C_7  and  C_8 
REMARK       I    between atoms: C_8  and  N_9 
REMARK    3  A    between atoms: N_9  and  C_10 
REMARK    4  A    between atoms: C_10  and  C_11 
REMARK    5  A    between atoms: C_11  and  N_12 
REMARK    6  A    between atoms: C_20  and  C_21 
REMARK    7  A    between atoms: C_24  and  C_25 
REMARK    8  A    between atoms: C_32  and  C_33 
REMARK    9  A    between atoms: C_33  and  O_34 
ROOT
HETATM    1  C   UNL     1     -43.081  58.614 -56.100  1.00  0.00     0.071 C 
HETATM    2  C   UNL     1     -42.138  57.997 -55.097  1.00  0.00     0.048 C 
HETATM    3  N   UNL     1     -41.547  58.918 -54.217  1.00  0.00    -0.229 NA
HETATM    4  C   UNL     1     -41.245  58.489 -53.030  1.00  0.00     0.170 C 
HETATM    5  N   UNL     1     -41.387  56.952 -52.627  1.00  0.00    -0.319 N 
HETATM    6  C   UNL     1     -42.261  57.040 -51.663  1.00  0.00     0.011 C 
HETATM    7  C   UNL     1     -41.055  56.221 -53.865  1.00  0.00     0.166 C 
HETATM    8  S   UNL     1     -41.116  59.469 -51.603  1.00  0.00    -0.086 SA
HETATM    9  C   UNL     1     -41.784  58.046 -50.612  1.00  0.00     0.135 C 
HETATM   10  C   UNL     1     -41.988  56.662 -54.930  1.00  0.00     0.069 C 
ENDROOT
BRANCH   6  11
HETATM   11  C   UNL     1     -43.728  56.879 -51.968  1.00  0.00     0.156 C 
BRANCH  11  12
HETATM   12  C   UNL     1     -44.709  57.981 -51.679  1.00  0.00     0.223 C 
HETATM   13  N   UNL     1     -44.690  58.987 -52.609  1.00  0.00    -0.359 N 
HETATM   14  H   UNL     1     -44.197  58.809 -53.491  1.00  0.00     0.162 HD
HETATM   15  O   UNL     1     -45.355  58.023 -50.634  1.00  0.00    -0.273 OA
BRANCH  13  16
HETATM   16  C   UNL     1     -45.064  60.393 -52.437  1.00  0.00     0.150 C 
BRANCH  16  17
HETATM   17  C   UNL     1     -46.509  60.774 -52.072  1.00  0.00     0.254 C 
BRANCH  17  18
HETATM   18  N   UNL     1     -47.329  61.334 -53.221  1.00  0.00    -0.070 N 
HETATM   19  H   UNL     1     -47.691  60.497 -53.722  1.00  0.00     0.279 HD
HETATM   20  C   UNL     1     -48.506  62.186 -52.812  1.00  0.00     0.235 C 
HETATM   21  C   UNL     1     -49.298  62.606 -54.043  1.00  0.00     0.028 C 
HETATM   22  C   UNL     1     -48.423  63.324 -55.062  1.00  0.00     0.003 C 
HETATM   23  C   UNL     1     -47.212  62.477 -55.427  1.00  0.00     0.028 C 
HETATM   24  C   UNL     1     -46.425  62.064 -54.194  1.00  0.00     0.235 C 
ENDBRANCH  17  18
ENDBRANCH  16  17
ENDBRANCH  13  16
ENDBRANCH  11  12
ENDBRANCH   6  11
BRANCH   7  25
HETATM   25  C   UNL     1     -40.510  54.806 -53.782  1.00  0.00    -0.030 A 
HETATM   26  C   UNL     1     -40.093  54.057 -54.891  1.00  0.00     0.010 A 
HETATM   27  C   UNL     1     -39.960  52.661 -54.798  1.00  0.00     0.008 A 
HETATM   28  C   UNL     1     -40.233  51.975 -53.605  1.00  0.00    -0.055 A 
HETATM   29  C   UNL     1     -40.549  52.727 -52.475  1.00  0.00     0.008 A 
HETATM   30  C   UNL     1     -40.703  54.111 -52.567  1.00  0.00     0.010 A 
BRANCH  28  31
HETATM   31  C   UNL     1     -40.227  50.453 -53.568  1.00  0.00     0.010 C 
HETATM   32  C   UNL     1     -39.518  49.873 -54.792  1.00  0.00     0.015 C 
HETATM   33  C   UNL     1     -39.611  49.891 -52.279  1.00  0.00     0.015 C 
ENDBRANCH  28  31
ENDBRANCH   7  25
BRANCH  10  34
HETATM   34  C   UNL     1     -42.937  55.667 -55.447  1.00  0.00     0.293 C 
HETATM   35  O   UNL     1     -43.874  55.291 -54.753  1.00  0.00    -0.259 OA
BRANCH  34  36
HETATM   36  O   UNL     1     -42.539  55.181 -56.634  1.00  0.00    -0.323 OA
HETATM   37  C   UNL     1     -43.367  55.579 -57.735  1.00  0.00     0.213 C 
ENDBRANCH  34  36
ENDBRANCH  10  34
TORSDOF 9
ENDMDL
MODEL 6
REMARK VINA RESULT:      -7.7      2.424      3.965
REMARK  9 active torsions:
REMARK  status: ('A' for Active; 'I' for Inactive)
REMARK    1  A    between atoms: C_6  and  C_7 
REMARK    2  A    between atoms: C_7  and  C_8 
REMARK       I    between atoms: C_8  and  N_9 
REMARK    3  A    between atoms: N_9  and  C_10 
REMARK    4  A    between atoms: C_10  and  C_11 
REMARK    5  A    between atoms: C_11  and  N_12 
REMARK    6  A    between atoms: C_20  and  C_21 
REMARK    7  A    between atoms: C_24  and  C_25 
REMARK    8  A    between atoms: C_32  and  C_33 
REMARK    9  A    between atoms: C_33  and  O_34 
ROOT
HETATM    1  C   UNL     1     -43.907  58.832 -50.793  1.00  0.00     0.071 C 
HETATM    2  C   UNL     1     -43.690  57.764 -51.835  1.00  0.00     0.048 C 
HETATM    3  N   UNL     1     -44.702  57.689 -52.806  1.00  0.00    -0.229 NA
HETATM    4  C   UNL     1     -44.354  57.287 -53.991  1.00  0.00     0.170 C 
HETATM    5  N   UNL     1     -42.885  56.749 -54.302  1.00  0.00    -0.319 N 
HETATM    6  C   UNL     1     -42.499  57.617 -55.196  1.00  0.00     0.011 C 
HETATM    7  C   UNL     1     -42.479  56.065 -53.059  1.00  0.00     0.166 C 
HETATM    8  S   UNL     1     -45.171  57.679 -55.472  1.00  0.00    -0.086 SA
HETATM    9  C   UNL     1     -43.524  57.691 -56.331  1.00  0.00     0.135 C 
HETATM   10  C   UNL     1     -42.549  57.044 -51.945  1.00  0.00     0.069 C 
ENDROOT
BRANCH   6  11
HETATM   11  C   UNL     1     -41.734  58.842 -54.765  1.00  0.00     0.156 C 
BRANCH  11  12
HETATM   12  C   UNL     1     -42.299  60.221 -54.958  1.00  0.00     0.223 C 
HETATM   13  N   UNL     1     -42.900  60.728 -53.835  1.00  0.00    -0.359 N 
HETATM   14  H   UNL     1     -42.728  60.244 -52.946  1.00  0.00     0.162 HD
HETATM   15  O   UNL     1     -42.331  60.766 -56.059  1.00  0.00    -0.273 OA
BRANCH  13  16
HETATM   16  C   UNL     1     -43.966  61.728 -53.746  1.00  0.00     0.150 C 
BRANCH  16  17
HETATM   17  C   UNL     1     -45.197  61.474 -52.858  1.00  0.00     0.254 C 
BRANCH  17  18
HETATM   18  N   UNL     1     -45.225  62.273 -51.567  1.00  0.00    -0.070 N 
HETATM   19  H   UNL     1     -45.579  63.212 -51.842  1.00  0.00     0.279 HD
HETATM   20  C   UNL     1     -46.132  61.721 -50.493  1.00  0.00     0.235 C 
HETATM   21  C   UNL     1     -46.145  62.657 -49.291  1.00  0.00     0.028 C 
HETATM   22  C   UNL     1     -44.743  62.910 -48.754  1.00  0.00     0.003 C 
HETATM   23  C   UNL     1     -43.824  63.416 -49.858  1.00  0.00     0.028 C 
HETATM   24  C   UNL     1     -43.814  62.476 -51.053  1.00  0.00     0.235 C 
ENDBRANCH  17  18
ENDBRANCH  16  17
ENDBRANCH  13  16
ENDBRANCH  11  12
ENDBRANCH   6  11
BRANCH   7  25
HETATM   25  C   UNL     1     -41.448  54.952 -53.113  1.00  0.00    -0.030 A 
HETATM   26  C   UNL     1     -40.805  54.533 -54.286  1.00  0.00     0.010 A 
HETATM   27  C   UNL     1     -40.161  53.284 -54.338  1.00  0.00     0.008 A 
HETATM   28  C   UNL     1     -40.137  52.424 -53.229  1.00  0.00    -0.055 A 
HETATM   29  C   UNL     1     -40.688  52.881 -52.033  1.00  0.00     0.008 A 
HETATM   30  C   UNL     1     -41.345  54.111 -51.983  1.00  0.00     0.010 A 
BRANCH  28  31
HETATM   31  C   UNL     1     -39.568  51.017 -53.353  1.00  0.00     0.010 C 
HETATM   32  C   UNL     1     -39.483  50.333 -51.989  1.00  0.00     0.015 C 
HETATM   33  C   UNL     1     -40.355  50.142 -54.341  1.00  0.00     0.015 C 
ENDBRANCH  28  31
ENDBRANCH   7  25
BRANCH  10  34
HETATM   34  C   UNL     1     -41.283  57.422 -51.304  1.00  0.00     0.293 C 
HETATM   35  O   UNL     1     -40.985  56.961 -50.210  1.00  0.00    -0.259 OA
BRANCH  34  36
HETATM   36  O   UNL     1     -40.652  58.385 -51.996  1.00  0.00    -0.323 OA
HETATM   37  C   UNL     1     -39.731  59.158 -51.215  1.00  0.00     0.213 C 
ENDBRANCH  34  36
ENDBRANCH  10  34
TORSDOF 9
ENDMDL
MODEL 7
REMARK VINA RESULT:      -7.5      2.112      9.042
REMARK  9 active torsions:
REMARK  status: ('A' for Active; 'I' for Inactive)
REMARK    1  A    between atoms: C_6  and  C_7 
REMARK    2  A    between atoms: C_7  and  C_8 
REMARK       I    between atoms: C_8  and  N_9 
REMARK    3  A    between atoms: N_9  and  C_10 
REMARK    4  A    between atoms: C_10  and  C_11 
REMARK    5  A    between atoms: C_11  and  N_12 
REMARK    6  A    between atoms: C_20  and  C_21 
REMARK    7  A    between atoms: C_24  and  C_25 
REMARK    8  A    between atoms: C_32  and  C_33 
REMARK    9  A    between atoms: C_33  and  O_34 
ROOT
HETATM    1  C   UNL     1     -39.897  58.628 -53.120  1.00  0.00     0.071 C 
HETATM    2  C   UNL     1     -41.165  59.445 -53.132  1.00  0.00     0.048 C 
HETATM    3  N   UNL     1     -41.607  59.807 -54.415  1.00  0.00    -0.229 NA
HETATM    4  C   UNL     1     -42.887  59.947 -54.580  1.00  0.00     0.170 C 
HETATM    5  N   UNL     1     -43.909  59.871 -53.357  1.00  0.00    -0.319 N 
HETATM    6  C   UNL     1     -44.633  58.848 -53.717  1.00  0.00     0.011 C 
HETATM    7  C   UNL     1     -43.165  60.459 -52.226  1.00  0.00     0.166 C 
HETATM    8  S   UNL     1     -43.740  59.761 -56.081  1.00  0.00    -0.086 SA
HETATM    9  C   UNL     1     -45.177  59.063 -55.133  1.00  0.00     0.135 C 
HETATM   10  C   UNL     1     -41.919  59.676 -52.032  1.00  0.00     0.069 C 
ENDROOT
BRANCH   6  11
HETATM   11  C   UNL     1     -44.271  57.467 -53.231  1.00  0.00     0.156 C 
BRANCH  11  12
HETATM   12  C   UNL     1     -43.550  56.493 -54.119  1.00  0.00     0.223 C 
HETATM   13  N   UNL     1     -42.438  55.943 -53.537  1.00  0.00    -0.359 N 
HETATM   14  H   UNL     1     -42.322  56.066 -52.525  1.00  0.00     0.162 HD
HETATM   15  O   UNL     1     -43.864  56.325 -55.295  1.00  0.00    -0.273 OA
BRANCH  13  16
HETATM   16  C   UNL     1     -41.241  55.407 -54.189  1.00  0.00     0.150 C 
BRANCH  16  17
HETATM   17  C   UNL     1     -41.200  53.941 -54.656  1.00  0.00     0.254 C 
BRANCH  17  18
HETATM   18  N   UNL     1     -40.327  53.029 -53.812  1.00  0.00    -0.070 N 
HETATM   19  H   UNL     1     -39.353  53.335 -54.011  1.00  0.00     0.279 HD
HETATM   20  C   UNL     1     -40.558  53.122 -52.322  1.00  0.00     0.235 C 
HETATM   21  C   UNL     1     -39.563  52.235 -51.586  1.00  0.00     0.028 C 
HETATM   22  C   UNL     1     -39.625  50.791 -52.066  1.00  0.00     0.003 C 
HETATM   23  C   UNL     1     -39.444  50.716 -53.576  1.00  0.00     0.028 C 
HETATM   24  C   UNL     1     -40.443  51.601 -54.304  1.00  0.00     0.235 C 
ENDBRANCH  17  18
ENDBRANCH  16  17
ENDBRANCH  13  16
ENDBRANCH  11  12
ENDBRANCH   6  11
BRANCH   7  25
HETATM   25  C   UNL     1     -43.923  61.098 -51.076  1.00  0.00    -0.030 A 
HETATM   26  C   UNL     1     -43.492  62.243 -50.392  1.00  0.00     0.010 A 
HETATM   27  C   UNL     1     -44.024  62.559 -49.129  1.00  0.00     0.008 A 
HETATM   28  C   UNL     1     -44.994  61.750 -48.517  1.00  0.00    -0.055 A 
HETATM   29  C   UNL     1     -45.495  60.668 -49.239  1.00  0.00     0.008 A 
HETATM   30  C   UNL     1     -44.957  60.340 -50.484  1.00  0.00     0.010 A 
BRANCH  28  31
HETATM   31  C   UNL     1     -45.443  62.027 -47.089  1.00  0.00     0.010 C 
HETATM   32  C   UNL     1     -44.833  61.021 -46.113  1.00  0.00     0.015 C 
HETATM   33  C   UNL     1     -45.136  63.463 -46.636  1.00  0.00     0.015 C 
ENDBRANCH  28  31
ENDBRANCH   7  25
BRANCH  10  34
HETATM   34  C   UNL     1     -41.795  58.910 -50.785  1.00  0.00     0.293 C 
HETATM   35  O   UNL     1     -41.220  59.396 -49.819  1.00  0.00    -0.259 OA
BRANCH  34  36
HETATM   36  O   UNL     1     -42.243  57.653 -50.935  1.00  0.00    -0.323 OA
HETATM   37  C   UNL     1     -41.416  56.659 -50.316  1.00  0.00     0.213 C 
ENDBRANCH  34  36
ENDBRANCH  10  34
TORSDOF 9
ENDMDL
MODEL 8
REMARK VINA RESULT:      -7.4      3.974      7.887
REMARK  9 active torsions:
REMARK  status: ('A' for Active; 'I' for Inactive)
REMARK    1  A    between atoms: C_6  and  C_7 
REMARK    2  A    between atoms: C_7  and  C_8 
REMARK       I    between atoms: C_8  and  N_9 
REMARK    3  A    between atoms: N_9  and  C_10 
REMARK    4  A    between atoms: C_10  and  C_11 
REMARK    5  A    between atoms: C_11  and  N_12 
REMARK    6  A    between atoms: C_20  and  C_21 
REMARK    7  A    between atoms: C_24  and  C_25 
REMARK    8  A    between atoms: C_32  and  C_33 
REMARK    9  A    between atoms: C_33  and  O_34 
ROOT
HETATM    1  C   UNL     1     -44.099  59.772 -52.457  1.00  0.00     0.071 C 
HETATM    2  C   UNL     1     -44.208  58.539 -53.319  1.00  0.00     0.048 C 
HETATM    3  N   UNL     1     -45.246  58.584 -54.264  1.00  0.00    -0.229 NA
HETATM    4  C   UNL     1     -45.063  57.931 -55.371  1.00  0.00     0.170 C 
HETATM    5  N   UNL     1     -43.796  56.988 -55.597  1.00  0.00    -0.319 N 
HETATM    6  C   UNL     1     -43.239  57.581 -56.616  1.00  0.00     0.011 C 
HETATM    7  C   UNL     1     -43.526  56.419 -54.262  1.00  0.00     0.166 C 
HETATM    8  S   UNL     1     -45.814  58.293 -56.895  1.00  0.00    -0.086 SA
HETATM    9  C   UNL     1     -44.257  57.745 -57.748  1.00  0.00     0.135 C 
HETATM   10  C   UNL     1     -43.295  57.539 -53.316  1.00  0.00     0.069 C 
ENDROOT
BRANCH   6  11
HETATM   11  C   UNL     1     -42.167  58.616 -56.385  1.00  0.00     0.156 C 
BRANCH  11  12
HETATM   12  C   UNL     1     -42.478  60.085 -56.443  1.00  0.00     0.223 C 
HETATM   13  N   UNL     1     -42.471  60.595 -57.715  1.00  0.00    -0.359 N 
HETATM   14  H   UNL     1     -42.472  59.928 -58.494  1.00  0.00     0.162 HD
HETATM   15  O   UNL     1     -42.590  60.770 -55.428  1.00  0.00    -0.273 OA
BRANCH  13  16
HETATM   16  C   UNL     1     -42.208  61.971 -58.141  1.00  0.00     0.150 C 
BRANCH  16  17
HETATM   17  C   UNL     1     -40.763  62.459 -58.349  1.00  0.00     0.254 C 
BRANCH  17  18
HETATM   18  N   UNL     1     -40.468  63.001 -59.736  1.00  0.00    -0.070 N 
HETATM   19  H   UNL     1     -41.059  63.853 -59.820  1.00  0.00     0.279 HD
HETATM   20  C   UNL     1     -39.031  63.397 -59.977  1.00  0.00     0.235 C 
HETATM   21  C   UNL     1     -38.885  64.010 -61.363  1.00  0.00     0.028 C 
HETATM   22  C   UNL     1     -39.390  63.075 -62.453  1.00  0.00     0.003 C 
HETATM   23  C   UNL     1     -40.823  62.641 -62.172  1.00  0.00     0.028 C 
HETATM   24  C   UNL     1     -40.960  62.028 -60.789  1.00  0.00     0.235 C 
ENDBRANCH  17  18
ENDBRANCH  16  17
ENDBRANCH  13  16
ENDBRANCH  11  12
ENDBRANCH   6  11
BRANCH   7  25
HETATM   25  C   UNL     1     -42.818  55.081 -54.142  1.00  0.00    -0.030 A 
HETATM   26  C   UNL     1     -42.795  54.305 -52.975  1.00  0.00     0.010 A 
HETATM   27  C   UNL     1     -41.836  53.290 -52.814  1.00  0.00     0.008 A 
HETATM   28  C   UNL     1     -40.879  53.019 -53.804  1.00  0.00    -0.055 A 
HETATM   29  C   UNL     1     -40.963  53.722 -55.005  1.00  0.00     0.008 A 
HETATM   30  C   UNL     1     -41.900  54.743 -55.163  1.00  0.00     0.010 A 
BRANCH  28  31
HETATM   31  C   UNL     1     -39.758  52.021 -53.546  1.00  0.00     0.010 C 
HETATM   32  C   UNL     1     -39.576  51.771 -52.049  1.00  0.00     0.015 C 
HETATM   33  C   UNL     1     -39.963  50.692 -54.288  1.00  0.00     0.015 C 
ENDBRANCH  28  31
ENDBRANCH   7  25
BRANCH  10  34
HETATM   34  C   UNL     1     -41.948  57.668 -52.745  1.00  0.00     0.293 C 
HETATM   35  O   UNL     1     -41.001  57.962 -53.462  1.00  0.00    -0.259 OA
BRANCH  34  36
HETATM   36  O   UNL     1     -41.925  57.292 -51.456  1.00  0.00    -0.323 OA
HETATM   37  C   UNL     1     -40.889  57.914 -50.684  1.00  0.00     0.213 C 
ENDBRANCH  34  36
ENDBRANCH  10  34
TORSDOF 9
ENDMDL
MODEL 9
REMARK VINA RESULT:      -7.3      3.560      6.828
REMARK  9 active torsions:
REMARK  status: ('A' for Active; 'I' for Inactive)
REMARK    1  A    between atoms: C_6  and  C_7 
REMARK    2  A    between atoms: C_7  and  C_8 
REMARK       I    between atoms: C_8  and  N_9 
REMARK    3  A    between atoms: N_9  and  C_10 
REMARK    4  A    between atoms: C_10  and  C_11 
REMARK    5  A    between atoms: C_11  and  N_12 
REMARK    6  A    between atoms: C_20  and  C_21 
REMARK    7  A    between atoms: C_24  and  C_25 
REMARK    8  A    between atoms: C_32  and  C_33 
REMARK    9  A    between atoms: C_33  and  O_34 
ROOT
HETATM    1  C   UNL     1     -43.325  60.312 -51.870  1.00  0.00     0.071 C 
HETATM    2  C   UNL     1     -43.340  59.016 -52.641  1.00  0.00     0.048 C 
HETATM    3  N   UNL     1     -44.536  58.770 -53.336  1.00  0.00    -0.229 NA
HETATM    4  C   UNL     1     -44.450  58.079 -54.431  1.00  0.00     0.170 C 
HETATM    5  N   UNL     1     -43.083  57.399 -54.896  1.00  0.00    -0.319 N 
HETATM    6  C   UNL     1     -42.891  58.006 -56.034  1.00  0.00     0.011 C 
HETATM    7  C   UNL     1     -42.426  57.008 -53.633  1.00  0.00     0.166 C 
HETATM    8  S   UNL     1     -45.560  58.154 -55.764  1.00  0.00    -0.086 SA
HETATM    9  C   UNL     1     -44.133  57.867 -56.919  1.00  0.00     0.135 C 
HETATM   10  C   UNL     1     -42.252  58.226 -52.803  1.00  0.00     0.069 C 
ENDROOT
BRANCH   6  11
HETATM   11  C   UNL     1     -42.045  59.253 -56.082  1.00  0.00     0.156 C 
BRANCH  11  12
HETATM   12  C   UNL     1     -41.942  60.076 -57.335  1.00  0.00     0.223 C 
HETATM   13  N   UNL     1     -42.671  61.235 -57.289  1.00  0.00    -0.359 N 
HETATM   14  H   UNL     1     -43.028  61.536 -56.374  1.00  0.00     0.162 HD
HETATM   15  O   UNL     1     -41.367  59.666 -58.341  1.00  0.00    -0.273 OA
BRANCH  13  16
HETATM   16  C   UNL     1     -43.240  61.998 -58.403  1.00  0.00     0.150 C 
BRANCH  16  17
HETATM   17  C   UNL     1     -44.250  61.340 -59.359  1.00  0.00     0.254 C 
BRANCH  17  18
HETATM   18  N   UNL     1     -45.509  60.815 -58.692  1.00  0.00    -0.070 N 
HETATM   19  H   UNL     1     -45.184  60.029 -58.093  1.00  0.00     0.279 HD
HETATM   20  C   UNL     1     -46.231  61.811 -57.816  1.00  0.00     0.235 C 
HETATM   21  C   UNL     1     -47.416  61.140 -57.133  1.00  0.00     0.028 C 
HETATM   22  C   UNL     1     -48.363  60.499 -58.139  1.00  0.00     0.003 C 
HETATM   23  C   UNL     1     -47.613  59.537 -59.051  1.00  0.00     0.028 C 
HETATM   24  C   UNL     1     -46.434  60.215 -59.731  1.00  0.00     0.235 C 
ENDBRANCH  17  18
ENDBRANCH  16  17
ENDBRANCH  13  16
ENDBRANCH  11  12
ENDBRANCH   6  11
BRANCH   7  25
HETATM   25  C   UNL     1     -41.436  55.858 -53.624  1.00  0.00    -0.030 A 
HETATM   26  C   UNL     1     -40.833  55.330 -54.774  1.00  0.00     0.010 A 
HETATM   27  C   UNL     1     -40.235  54.058 -54.745  1.00  0.00     0.008 A 
HETATM   28  C   UNL     1     -40.218  53.281 -53.576  1.00  0.00    -0.055 A 
HETATM   29  C   UNL     1     -40.728  53.844 -52.407  1.00  0.00     0.008 A 
HETATM   30  C   UNL     1     -41.340  55.098 -52.436  1.00  0.00     0.010 A 
BRANCH  28  31
HETATM   31  C   UNL     1     -39.701  51.849 -53.606  1.00  0.00     0.010 C 
HETATM   32  C   UNL     1     -39.476  51.313 -52.193  1.00  0.00     0.015 C 
HETATM   33  C   UNL     1     -40.618  50.902 -54.395  1.00  0.00     0.015 C 
ENDBRANCH  28  31
ENDBRANCH   7  25
BRANCH  10  34
HETATM   34  C   UNL     1     -40.877  58.673 -52.547  1.00  0.00     0.293 C 
HETATM   35  O   UNL     1     -40.213  59.171 -53.448  1.00  0.00    -0.259 OA
BRANCH  34  36
HETATM   36  O   UNL     1     -40.471  58.330 -51.313  1.00  0.00    -0.323 OA
HETATM   37  C   UNL     1     -39.922  59.415 -50.555  1.00  0.00     0.213 C 
ENDBRANCH  34  36
ENDBRANCH  10  34
TORSDOF 9
ENDMDL
MODEL 10
REMARK VINA RESULT:      -7.3      3.372      7.107
REMARK  9 active torsions:
REMARK  status: ('A' for Active; 'I' for Inactive)
REMARK    1  A    between atoms: C_6  and  C_7 
REMARK    2  A    between atoms: C_7  and  C_8 
REMARK       I    between atoms: C_8  and  N_9 
REMARK    3  A    between atoms: N_9  and  C_10 
REMARK    4  A    between atoms: C_10  and  C_11 
REMARK    5  A    between atoms: C_11  and  N_12 
REMARK    6  A    between atoms: C_20  and  C_21 
REMARK    7  A    between atoms: C_24  and  C_25 
REMARK    8  A    between atoms: C_32  and  C_33 
REMARK    9  A    between atoms: C_33  and  O_34 
ROOT
HETATM    1  C   UNL     1     -44.007  59.317 -51.080  1.00  0.00     0.071 C 
HETATM    2  C   UNL     1     -43.799  58.219 -52.092  1.00  0.00     0.048 C 
HETATM    3  N   UNL     1     -44.833  58.100 -53.036  1.00  0.00    -0.229 NA
HETATM    4  C   UNL     1     -44.507  57.665 -54.215  1.00  0.00     0.170 C 
HETATM    5  N   UNL     1     -43.038  57.137 -54.544  1.00  0.00    -0.319 N 
HETATM    6  C   UNL     1     -42.685  57.981 -55.473  1.00  0.00     0.011 C 
HETATM    7  C   UNL     1     -42.594  56.498 -53.289  1.00  0.00     0.166 C 
HETATM    8  S   UNL     1     -45.363  57.999 -55.688  1.00  0.00    -0.086 SA
HETATM    9  C   UNL     1     -43.737  58.005 -56.586  1.00  0.00     0.135 C 
HETATM   10  C   UNL     1     -42.651  57.511 -52.206  1.00  0.00     0.069 C 
ENDROOT
BRANCH   6  11
HETATM   11  C   UNL     1     -41.927  59.229 -55.100  1.00  0.00     0.156 C 
BRANCH  11  12
HETATM   12  C   UNL     1     -42.627  60.553 -54.964  1.00  0.00     0.223 C 
HETATM   13  N   UNL     1     -42.906  61.149 -56.165  1.00  0.00    -0.359 N 
HETATM   14  H   UNL     1     -42.820  60.575 -57.012  1.00  0.00     0.162 HD
HETATM   15  O   UNL     1     -42.798  61.092 -53.873  1.00  0.00    -0.273 OA
BRANCH  13  16
HETATM   16  C   UNL     1     -43.075  62.574 -56.456  1.00  0.00     0.150 C 
BRANCH  16  17
HETATM   17  C   UNL     1     -43.181  63.064 -57.911  1.00  0.00     0.254 C 
BRANCH  17  18
HETATM   18  N   UNL     1     -42.041  62.627 -58.814  1.00  0.00    -0.070 N 
HETATM   19  H   UNL     1     -41.790  61.674 -58.482  1.00  0.00     0.279 HD
HETATM   20  C   UNL     1     -42.383  62.543 -60.282  1.00  0.00     0.235 C 
HETATM   21  C   UNL     1     -41.192  62.006 -61.065  1.00  0.00     0.028 C 
HETATM   22  C   UNL     1     -39.940  62.842 -60.836  1.00  0.00     0.003 C 
HETATM   23  C   UNL     1     -39.635  62.963 -59.349  1.00  0.00     0.028 C 
HETATM   24  C   UNL     1     -40.827  63.503 -58.576  1.00  0.00     0.235 C 
ENDBRANCH  17  18
ENDBRANCH  16  17
ENDBRANCH  13  16
ENDBRANCH  11  12
ENDBRANCH   6  11
BRANCH   7  25
HETATM   25  C   UNL     1     -41.548  55.398 -53.333  1.00  0.00    -0.030 A 
HETATM   26  C   UNL     1     -40.890  54.985 -54.500  1.00  0.00     0.010 A 
HETATM   27  C   UNL     1     -40.230  53.744 -54.543  1.00  0.00     0.008 A 
HETATM   28  C   UNL     1     -40.206  52.886 -53.433  1.00  0.00    -0.055 A 
HETATM   29  C   UNL     1     -40.773  53.338 -52.243  1.00  0.00     0.008 A 
HETATM   30  C   UNL     1     -41.445  54.560 -52.200  1.00  0.00     0.010 A 
BRANCH  28  31
HETATM   31  C   UNL     1     -39.618  51.486 -53.550  1.00  0.00     0.010 C 
HETATM   32  C   UNL     1     -39.425  50.851 -52.173  1.00  0.00     0.015 C 
HETATM   33  C   UNL     1     -40.453  50.564 -54.450  1.00  0.00     0.015 C 
ENDBRANCH  28  31
ENDBRANCH   7  25
BRANCH  10  34
HETATM   34  C   UNL     1     -41.376  57.927 -51.608  1.00  0.00     0.293 C 
HETATM   35  O   UNL     1     -40.992  57.419 -50.561  1.00  0.00    -0.259 OA
BRANCH  34  36
HETATM   36  O   UNL     1     -40.841  58.967 -52.267  1.00  0.00    -0.323 OA
HETATM   37  C   UNL     1     -39.422  58.877 -52.449  1.00  0.00     0.213 C 
ENDBRANCH  34  36
ENDBRANCH  10  34
TORSDOF 9
ENDMDL
