MODEL 1
REMARK VINA RESULT:      -9.2      0.000      0.000
REMARK  6 active torsions:
REMARK  status: ('A' for Active; 'I' for Inactive)
REMARK    1  A    between atoms: C_4  and  C_5 
REMARK    2  A    between atoms: C_5  and  O_6 
REMARK    3  A    between atoms: O_6  and  C_7 
REMARK    4  A    between atoms: C_10  and  C_11 
REMARK    5  A    between atoms: C_17  and  C_18 
REMARK    6  A    between atoms: C_27  and  N_28 
ROOT
HETATM    1  C   UNL     1     -44.531  57.688 -51.853  1.00  0.00     0.072 A 
HETATM    2  N   UNL     1     -45.502  57.436 -50.905  1.00  0.00    -0.274 N 
HETATM    3  H   UNL     1     -45.864  56.533 -50.618  1.00  0.00     0.189 HD
HETATM    4  N   UNL     1     -46.022  58.542 -50.337  1.00  0.00    -0.148 NA
HETATM    5  C   UNL     1     -45.367  59.513 -50.956  1.00  0.00     0.199 A 
HETATM    6  C   UNL     1     -44.416  59.069 -51.879  1.00  0.00     0.040 A 
HETATM    7  C   UNL     1     -43.582  60.047 -52.630  1.00  0.00     0.106 A 
HETATM    8  C   UNL     1     -44.025  61.477 -52.343  1.00  0.00     0.081 A 
HETATM    9  C   UNL     1     -43.410  62.501 -53.122  1.00  0.00     0.100 C 
HETATM   10  N   UNL     1     -42.903  63.329 -53.757  1.00  0.00    -0.191 NA
HETATM   11  C   UNL     1     -44.986  61.784 -51.432  1.00  0.00     0.140 A 
HETATM   12  O   UNL     1     -45.641  60.800 -50.679  1.00  0.00    -0.277 OA
ENDROOT
BRANCH   7  13
HETATM   13  C   UNL     1     -42.141  59.779 -52.216  1.00  0.00    -0.041 A 
HETATM   14  C   UNL     1     -41.736  60.039 -50.900  1.00  0.00     0.027 A 
HETATM   15  C   UNL     1     -40.425  59.770 -50.535  1.00  0.00     0.116 A 
HETATM   16  N   UNL     1     -39.501  59.260 -51.374  1.00  0.00    -0.273 NA
HETATM   17  C   UNL     1     -39.904  59.009 -52.636  1.00  0.00     0.116 A 
HETATM   18  C   UNL     1     -41.190  59.245 -53.098  1.00  0.00     0.027 A 
ENDBRANCH   7  13
BRANCH  11  19
HETATM   19  N   UNL     1     -45.425  63.057 -51.138  1.00  0.00    -0.282 NA
HETATM   20  H   UNL     1     -46.243  63.121 -50.540  1.00  0.00     0.126 HD
HETATM   21  H   UNL     1     -45.483  63.644 -51.968  1.00  0.00     0.126 HD
ENDBRANCH  11  19
BRANCH   1  22
HETATM   22  C   UNL     1     -43.858  56.628 -52.595  1.00  0.00    -0.007 A 
HETATM   23  C   UNL     1     -43.190  55.601 -51.923  1.00  0.00     0.016 A 
HETATM   24  C   UNL     1     -42.564  54.575 -52.638  1.00  0.00     0.037 A 
HETATM   25  C   UNL     1     -42.591  54.559 -54.034  1.00  0.00     0.069 A 
HETATM   26  C   UNL     1     -43.234  55.594 -54.711  1.00  0.00     0.037 A 
HETATM   27  C   UNL     1     -43.868  56.618 -53.996  1.00  0.00     0.016 A 
BRANCH  25  28
HETATM   28  O   UNL     1     -41.961  53.490 -54.604  1.00  0.00    -0.347 OA
BRANCH  28  29
HETATM   29  C   UNL     1     -40.545  53.399 -54.433  1.00  0.00     0.214 C 
BRANCH  29  30
HETATM   30  C   UNL     1     -40.198  52.129 -53.689  1.00  0.00    -0.034 A 
HETATM   31  C   UNL     1     -40.141  50.907 -54.378  1.00  0.00     0.009 A 
HETATM   32  C   UNL     1     -39.799  49.730 -53.711  1.00  0.00     0.001 A 
HETATM   33  C   UNL     1     -39.501  49.760 -52.350  1.00  0.00     0.000 A 
HETATM   34  C   UNL     1     -39.537  50.968 -51.658  1.00  0.00     0.001 A 
HETATM   35  C   UNL     1     -39.877  52.148 -52.324  1.00  0.00     0.009 A 
ENDBRANCH  29  30
ENDBRANCH  28  29
ENDBRANCH  25  28
ENDBRANCH   1  22
TORSDOF 6
ENDMDL
MODEL 2
REMARK VINA RESULT:      -9.1      3.833      5.344
REMARK  6 active torsions:
REMARK  status: ('A' for Active; 'I' for Inactive)
REMARK    1  A    between atoms: C_4  and  C_5 
REMARK    2  A    between atoms: C_5  and  O_6 
REMARK    3  A    between atoms: O_6  and  C_7 
REMARK    4  A    between atoms: C_10  and  C_11 
REMARK    5  A    between atoms: C_17  and  C_18 
REMARK    6  A    between atoms: C_27  and  N_28 
ROOT
HETATM    1  C   UNL     1     -42.918  55.798 -56.825  1.00  0.00     0.072 A 
HETATM    2  N   UNL     1     -43.606  55.001 -57.719  1.00  0.00    -0.274 N 
HETATM    3  H   UNL     1     -43.894  54.038 -57.589  1.00  0.00     0.189 HD
HETATM    4  N   UNL     1     -43.884  55.599 -58.894  1.00  0.00    -0.148 NA
HETATM    5  C   UNL     1     -43.345  56.800 -58.735  1.00  0.00     0.199 A 
HETATM    6  C   UNL     1     -42.760  57.007 -57.483  1.00  0.00     0.040 A 
HETATM    7  C   UNL     1     -42.140  58.319 -57.151  1.00  0.00     0.106 A 
HETATM    8  C   UNL     1     -42.130  59.242 -58.364  1.00  0.00     0.081 A 
HETATM    9  C   UNL     1     -41.422  60.472 -58.222  1.00  0.00     0.100 C 
HETATM   10  N   UNL     1     -40.847  61.471 -58.097  1.00  0.00    -0.191 NA
HETATM   11  C   UNL     1     -42.719  58.916 -59.545  1.00  0.00     0.140 A 
HETATM   12  O   UNL     1     -43.387  57.699 -59.734  1.00  0.00    -0.277 OA
ENDROOT
BRANCH   7  13
HETATM   13  C   UNL     1     -42.942  58.882 -55.986  1.00  0.00    -0.041 A 
HETATM   14  C   UNL     1     -42.336  59.035 -54.732  1.00  0.00     0.027 A 
HETATM   15  C   UNL     1     -43.075  59.569 -53.687  1.00  0.00     0.116 A 
HETATM   16  N   UNL     1     -44.360  59.963 -53.801  1.00  0.00    -0.273 NA
HETATM   17  C   UNL     1     -44.932  59.815 -55.014  1.00  0.00     0.116 A 
HETATM   18  C   UNL     1     -44.278  59.292 -56.118  1.00  0.00     0.027 A 
ENDBRANCH   7  13
BRANCH  11  19
HETATM   19  N   UNL     1     -42.735  59.711 -60.671  1.00  0.00    -0.282 NA
HETATM   20  H   UNL     1     -42.943  60.695 -60.522  1.00  0.00     0.126 HD
HETATM   21  H   UNL     1     -43.275  59.295 -61.427  1.00  0.00     0.126 HD
ENDBRANCH  11  19
BRANCH   1  22
HETATM   22  C   UNL     1     -42.507  55.333 -55.505  1.00  0.00    -0.007 A 
HETATM   23  C   UNL     1     -43.436  54.767 -54.627  1.00  0.00     0.016 A 
HETATM   24  C   UNL     1     -43.034  54.302 -53.372  1.00  0.00     0.037 A 
HETATM   25  C   UNL     1     -41.700  54.397 -52.970  1.00  0.00     0.069 A 
HETATM   26  C   UNL     1     -40.773  54.981 -53.831  1.00  0.00     0.037 A 
HETATM   27  C   UNL     1     -41.173  55.441 -55.093  1.00  0.00     0.016 A 
BRANCH  25  28
HETATM   28  O   UNL     1     -41.440  53.885 -51.731  1.00  0.00    -0.347 OA
BRANCH  28  29
HETATM   29  C   UNL     1     -40.095  53.487 -51.458  1.00  0.00     0.214 C 
BRANCH  29  30
HETATM   30  C   UNL     1     -39.900  52.036 -51.837  1.00  0.00    -0.034 A 
HETATM   31  C   UNL     1     -39.902  51.046 -50.842  1.00  0.00     0.009 A 
HETATM   32  C   UNL     1     -39.746  49.700 -51.179  1.00  0.00     0.001 A 
HETATM   33  C   UNL     1     -39.596  49.326 -52.513  1.00  0.00     0.000 A 
HETATM   34  C   UNL     1     -39.610  50.298 -53.512  1.00  0.00     0.001 A 
HETATM   35  C   UNL     1     -39.767  51.645 -53.177  1.00  0.00     0.009 A 
ENDBRANCH  29  30
ENDBRANCH  28  29
ENDBRANCH  25  28
ENDBRANCH   1  22
TORSDOF 6
ENDMDL
MODEL 3
REMARK VINA RESULT:      -8.7      2.922      8.234
REMARK  6 active torsions:
REMARK  status: ('A' for Active; 'I' for Inactive)
REMARK    1  A    between atoms: C_4  and  C_5 
REMARK    2  A    between atoms: C_5  and  O_6 
REMARK    3  A    between atoms: O_6  and  C_7 
REMARK    4  A    between atoms: C_10  and  C_11 
REMARK    5  A    between atoms: C_17  and  C_18 
REMARK    6  A    between atoms: C_27  and  N_28 
ROOT
HETATM    1  C   UNL     1     -44.050  56.496 -53.145  1.00  0.00     0.072 A 
HETATM    2  N   UNL     1     -44.465  55.902 -54.321  1.00  0.00    -0.274 N 
HETATM    3  H   UNL     1     -45.242  56.179 -54.910  1.00  0.00     0.189 HD
HETATM    4  N   UNL     1     -43.745  54.821 -54.680  1.00  0.00    -0.148 NA
HETATM    5  C   UNL     1     -42.864  54.728 -53.694  1.00  0.00     0.199 A 
HETATM    6  C   UNL     1     -42.968  55.735 -52.731  1.00  0.00     0.040 A 
HETATM    7  C   UNL     1     -42.025  55.776 -51.580  1.00  0.00     0.106 A 
HETATM    8  C   UNL     1     -41.119  54.551 -51.572  1.00  0.00     0.081 A 
HETATM    9  C   UNL     1     -40.276  54.391 -50.433  1.00  0.00     0.100 C 
HETATM   10  N   UNL     1     -39.591  54.269 -49.504  1.00  0.00    -0.191 NA
HETATM   11  C   UNL     1     -41.125  53.620 -52.563  1.00  0.00     0.140 A 
HETATM   12  O   UNL     1     -41.970  53.723 -53.677  1.00  0.00    -0.277 OA
ENDROOT
BRANCH   7  13
HETATM   13  C   UNL     1     -41.254  57.082 -51.713  1.00  0.00    -0.041 A 
HETATM   14  C   UNL     1     -40.998  57.859 -50.576  1.00  0.00     0.027 A 
HETATM   15  C   UNL     1     -40.276  59.035 -50.713  1.00  0.00     0.116 A 
HETATM   16  N   UNL     1     -39.789  59.485 -51.887  1.00  0.00    -0.273 NA
HETATM   17  C   UNL     1     -40.037  58.727 -52.974  1.00  0.00     0.116 A 
HETATM   18  C   UNL     1     -40.749  57.538 -52.941  1.00  0.00     0.027 A 
ENDBRANCH   7  13
BRANCH  11  19
HETATM   19  N   UNL     1     -40.331  52.495 -52.602  1.00  0.00    -0.282 NA
HETATM   20  H   UNL     1     -39.598  52.440 -51.900  1.00  0.00     0.126 HD
HETATM   21  H   UNL     1     -40.004  52.288 -53.544  1.00  0.00     0.126 HD
ENDBRANCH  11  19
BRANCH   1  22
HETATM   22  C   UNL     1     -44.707  57.667 -52.577  1.00  0.00    -0.007 A 
HETATM   23  C   UNL     1     -45.125  57.673 -51.243  1.00  0.00     0.016 A 
HETATM   24  C   UNL     1     -45.735  58.806 -50.696  1.00  0.00     0.037 A 
HETATM   25  C   UNL     1     -45.943  59.949 -51.471  1.00  0.00     0.069 A 
HETATM   26  C   UNL     1     -45.551  59.941 -52.809  1.00  0.00     0.037 A 
HETATM   27  C   UNL     1     -44.932  58.809 -53.356  1.00  0.00     0.016 A 
BRANCH  25  28
HETATM   28  O   UNL     1     -46.528  60.989 -50.807  1.00  0.00    -0.347 OA
BRANCH  28  29
HETATM   29  C   UNL     1     -45.662  61.992 -50.272  1.00  0.00     0.214 C 
BRANCH  29  30
HETATM   30  C   UNL     1     -45.704  61.956 -48.761  1.00  0.00    -0.034 A 
HETATM   31  C   UNL     1     -46.749  62.595 -48.075  1.00  0.00     0.009 A 
HETATM   32  C   UNL     1     -46.815  62.551 -46.681  1.00  0.00     0.001 A 
HETATM   33  C   UNL     1     -45.844  61.862 -45.957  1.00  0.00     0.000 A 
HETATM   34  C   UNL     1     -44.811  61.210 -46.627  1.00  0.00     0.001 A 
HETATM   35  C   UNL     1     -44.744  61.251 -48.022  1.00  0.00     0.009 A 
ENDBRANCH  29  30
ENDBRANCH  28  29
ENDBRANCH  25  28
ENDBRANCH   1  22
TORSDOF 6
ENDMDL
MODEL 4
REMARK VINA RESULT:      -8.6      3.950      5.017
REMARK  6 active torsions:
REMARK  status: ('A' for Active; 'I' for Inactive)
REMARK    1  A    between atoms: C_4  and  C_5 
REMARK    2  A    between atoms: C_5  and  O_6 
REMARK    3  A    between atoms: O_6  and  C_7 
REMARK    4  A    between atoms: C_10  and  C_11 
REMARK    5  A    between atoms: C_17  and  C_18 
REMARK    6  A    between atoms: C_27  and  N_28 
ROOT
HETATM    1  C   UNL     1     -43.947  57.375 -57.258  1.00  0.00     0.072 A 
HETATM    2  N   UNL     1     -45.076  57.099 -58.004  1.00  0.00    -0.274 N 
HETATM    3  H   UNL     1     -45.688  56.295 -57.921  1.00  0.00     0.189 HD
HETATM    4  N   UNL     1     -45.347  58.013 -58.957  1.00  0.00    -0.148 NA
HETATM    5  C   UNL     1     -44.353  58.878 -58.811  1.00  0.00     0.199 A 
HETATM    6  C   UNL     1     -43.471  58.570 -57.772  1.00  0.00     0.040 A 
HETATM    7  C   UNL     1     -42.322  59.468 -57.471  1.00  0.00     0.106 A 
HETATM    8  C   UNL     1     -42.216  60.585 -58.503  1.00  0.00     0.081 A 
HETATM    9  C   UNL     1     -41.064  61.421 -58.419  1.00  0.00     0.100 C 
HETATM   10  N   UNL     1     -40.125  62.099 -58.342  1.00  0.00    -0.191 NA
HETATM   11  C   UNL     1     -43.133  60.769 -59.489  1.00  0.00     0.140 A 
HETATM   12  O   UNL     1     -44.255  59.941 -59.628  1.00  0.00    -0.277 OA
ENDROOT
BRANCH   7  13
HETATM   13  C   UNL     1     -42.551  59.987 -56.058  1.00  0.00    -0.041 A 
HETATM   14  C   UNL     1     -41.735  59.539 -55.011  1.00  0.00     0.027 A 
HETATM   15  C   UNL     1     -41.945  60.039 -53.734  1.00  0.00     0.116 A 
HETATM   16  N   UNL     1     -42.893  60.948 -53.430  1.00  0.00    -0.273 NA
HETATM   17  C   UNL     1     -43.669  61.376 -54.446  1.00  0.00     0.116 A 
HETATM   18  C   UNL     1     -43.539  60.937 -55.755  1.00  0.00     0.027 A 
ENDBRANCH   7  13
BRANCH  11  19
HETATM   19  N   UNL     1     -43.082  61.759 -60.447  1.00  0.00    -0.282 NA
HETATM   20  H   UNL     1     -43.902  62.355 -60.519  1.00  0.00     0.126 HD
HETATM   21  H   UNL     1     -42.757  61.407 -61.346  1.00  0.00     0.126 HD
ENDBRANCH  11  19
BRANCH   1  22
HETATM   22  C   UNL     1     -43.473  56.502 -56.191  1.00  0.00    -0.007 A 
HETATM   23  C   UNL     1     -42.515  55.517 -56.447  1.00  0.00     0.016 A 
HETATM   24  C   UNL     1     -42.047  54.697 -55.416  1.00  0.00     0.037 A 
HETATM   25  C   UNL     1     -42.529  54.842 -54.114  1.00  0.00     0.069 A 
HETATM   26  C   UNL     1     -43.503  55.806 -53.856  1.00  0.00     0.037 A 
HETATM   27  C   UNL     1     -43.967  56.634 -54.886  1.00  0.00     0.016 A 
BRANCH  25  28
HETATM   28  O   UNL     1     -41.972  53.992 -53.201  1.00  0.00    -0.347 OA
BRANCH  28  29
HETATM   29  C   UNL     1     -40.554  53.824 -53.247  1.00  0.00     0.214 C 
BRANCH  29  30
HETATM   30  C   UNL     1     -40.207  52.355 -53.159  1.00  0.00    -0.034 A 
HETATM   31  C   UNL     1     -39.778  51.808 -51.940  1.00  0.00     0.009 A 
HETATM   32  C   UNL     1     -39.476  50.449 -51.838  1.00  0.00     0.001 A 
HETATM   33  C   UNL     1     -39.607  49.618 -52.949  1.00  0.00     0.000 A 
HETATM   34  C   UNL     1     -40.048  50.145 -54.161  1.00  0.00     0.001 A 
HETATM   35  C   UNL     1     -40.353  51.504 -54.265  1.00  0.00     0.009 A 
ENDBRANCH  29  30
ENDBRANCH  28  29
ENDBRANCH  25  28
ENDBRANCH   1  22
TORSDOF 6
ENDMDL
MODEL 5
REMARK VINA RESULT:      -8.5      4.755      6.079
REMARK  6 active torsions:
REMARK  status: ('A' for Active; 'I' for Inactive)
REMARK    1  A    between atoms: C_4  and  C_5 
REMARK    2  A    between atoms: C_5  and  O_6 
REMARK    3  A    between atoms: O_6  and  C_7 
REMARK    4  A    between atoms: C_10  and  C_11 
REMARK    5  A    between atoms: C_17  and  C_18 
REMARK    6  A    between atoms: C_27  and  N_28 
ROOT
HETATM    1  C   UNL     1     -44.648  58.400 -56.043  1.00  0.00     0.072 A 
HETATM    2  N   UNL     1     -44.787  59.649 -55.471  1.00  0.00    -0.274 N 
HETATM    3  H   UNL     1     -44.387  59.975 -54.598  1.00  0.00     0.189 HD
HETATM    4  N   UNL     1     -45.571  60.494 -56.169  1.00  0.00    -0.148 NA
HETATM    5  C   UNL     1     -45.943  59.749 -57.200  1.00  0.00     0.199 A 
HETATM    6  C   UNL     1     -45.396  58.463 -57.208  1.00  0.00     0.040 A 
HETATM    7  C   UNL     1     -45.702  57.522 -58.321  1.00  0.00     0.106 A 
HETATM    8  C   UNL     1     -46.739  58.115 -59.267  1.00  0.00     0.081 A 
HETATM    9  C   UNL     1     -47.236  57.250 -60.287  1.00  0.00     0.100 C 
HETATM   10  N   UNL     1     -47.632  56.542 -61.116  1.00  0.00    -0.191 NA
HETATM   11  C   UNL     1     -47.217  59.381 -59.142  1.00  0.00     0.140 A 
HETATM   12  O   UNL     1     -46.783  60.244 -58.126  1.00  0.00    -0.277 OA
ENDROOT
BRANCH   7  13
HETATM   13  C   UNL     1     -44.373  57.232 -59.005  1.00  0.00    -0.041 A 
HETATM   14  C   UNL     1     -43.664  58.274 -59.618  1.00  0.00     0.027 A 
HETATM   15  C   UNL     1     -42.445  57.995 -60.218  1.00  0.00     0.116 A 
HETATM   16  N   UNL     1     -41.885  56.769 -60.247  1.00  0.00    -0.273 NA
HETATM   17  C   UNL     1     -42.574  55.775 -59.650  1.00  0.00     0.116 A 
HETATM   18  C   UNL     1     -43.799  55.952 -59.025  1.00  0.00     0.027 A 
ENDBRANCH   7  13
BRANCH  11  19
HETATM   19  N   UNL     1     -48.156  59.962 -59.967  1.00  0.00    -0.282 NA
HETATM   20  H   UNL     1     -48.715  60.704 -59.555  1.00  0.00     0.126 HD
HETATM   21  H   UNL     1     -48.710  59.269 -60.467  1.00  0.00     0.126 HD
ENDBRANCH  11  19
BRANCH   1  22
HETATM   22  C   UNL     1     -43.855  57.337 -55.436  1.00  0.00    -0.007 A 
HETATM   23  C   UNL     1     -44.401  56.519 -54.443  1.00  0.00     0.016 A 
HETATM   24  C   UNL     1     -43.644  55.488 -53.879  1.00  0.00     0.037 A 
HETATM   25  C   UNL     1     -42.331  55.257 -54.294  1.00  0.00     0.069 A 
HETATM   26  C   UNL     1     -41.773  56.084 -55.267  1.00  0.00     0.037 A 
HETATM   27  C   UNL     1     -42.532  57.114 -55.838  1.00  0.00     0.016 A 
BRANCH  25  28
HETATM   28  O   UNL     1     -41.715  54.205 -53.678  1.00  0.00    -0.347 OA
BRANCH  28  29
HETATM   29  C   UNL     1     -40.641  53.576 -54.380  1.00  0.00     0.214 C 
BRANCH  29  30
HETATM   30  C   UNL     1     -40.274  52.275 -53.701  1.00  0.00    -0.034 A 
HETATM   31  C   UNL     1     -40.207  51.089 -54.448  1.00  0.00     0.009 A 
HETATM   32  C   UNL     1     -39.847  49.885 -53.839  1.00  0.00     0.001 A 
HETATM   33  C   UNL     1     -39.540  49.854 -52.481  1.00  0.00     0.000 A 
HETATM   34  C   UNL     1     -39.586  51.027 -51.731  1.00  0.00     0.001 A 
HETATM   35  C   UNL     1     -39.945  52.233 -52.338  1.00  0.00     0.009 A 
ENDBRANCH  29  30
ENDBRANCH  28  29
ENDBRANCH  25  28
ENDBRANCH   1  22
TORSDOF 6
ENDMDL
MODEL 6
REMARK VINA RESULT:      -8.4      1.818      3.035
REMARK  6 active torsions:
REMARK  status: ('A' for Active; 'I' for Inactive)
REMARK    1  A    between atoms: C_4  and  C_5 
REMARK    2  A    between atoms: C_5  and  O_6 
REMARK    3  A    between atoms: O_6  and  C_7 
REMARK    4  A    between atoms: C_10  and  C_11 
REMARK    5  A    between atoms: C_17  and  C_18 
REMARK    6  A    between atoms: C_27  and  N_28 
ROOT
HETATM    1  C   UNL     1     -41.828  58.268 -51.609  1.00  0.00     0.072 A 
HETATM    2  N   UNL     1     -40.809  58.674 -50.771  1.00  0.00    -0.274 N 
HETATM    3  H   UNL     1     -39.949  58.179 -50.562  1.00  0.00     0.189 HD
HETATM    4  N   UNL     1     -41.030  59.855 -50.161  1.00  0.00    -0.148 NA
HETATM    5  C   UNL     1     -42.227  60.192 -50.620  1.00  0.00     0.199 A 
HETATM    6  C   UNL     1     -42.768  59.284 -51.534  1.00  0.00     0.040 A 
HETATM    7  C   UNL     1     -44.095  59.545 -52.157  1.00  0.00     0.106 A 
HETATM    8  C   UNL     1     -44.749  60.783 -51.553  1.00  0.00     0.081 A 
HETATM    9  C   UNL     1     -46.091  61.051 -51.951  1.00  0.00     0.100 C 
HETATM   10  N   UNL     1     -47.183  61.264 -52.282  1.00  0.00    -0.191 NA
HETATM   11  C   UNL     1     -44.124  61.581 -50.647  1.00  0.00     0.140 A 
HETATM   12  O   UNL     1     -42.820  61.323 -50.201  1.00  0.00    -0.277 OA
ENDROOT
BRANCH   7  13
HETATM   13  C   UNL     1     -43.841  59.680 -53.652  1.00  0.00    -0.041 A 
HETATM   14  C   UNL     1     -44.473  58.807 -54.547  1.00  0.00     0.027 A 
HETATM   15  C   UNL     1     -44.246  58.958 -55.907  1.00  0.00     0.116 A 
HETATM   16  N   UNL     1     -43.448  59.909 -56.434  1.00  0.00    -0.273 NA
HETATM   17  C   UNL     1     -42.848  60.746 -55.563  1.00  0.00     0.116 A 
HETATM   18  C   UNL     1     -43.011  60.676 -54.189  1.00  0.00     0.027 A 
ENDBRANCH   7  13
BRANCH  11  19
HETATM   19  N   UNL     1     -44.670  62.706 -50.069  1.00  0.00    -0.282 NA
HETATM   20  H   UNL     1     -45.403  63.170 -50.598  1.00  0.00     0.126 HD
HETATM   21  H   UNL     1     -43.957  63.344 -49.722  1.00  0.00     0.126 HD
ENDBRANCH  11  19
BRANCH   1  22
HETATM   22  C   UNL     1     -41.790  57.012 -52.348  1.00  0.00    -0.007 A 
HETATM   23  C   UNL     1     -40.945  56.859 -53.451  1.00  0.00     0.016 A 
HETATM   24  C   UNL     1     -40.895  55.645 -54.143  1.00  0.00     0.037 A 
HETATM   25  C   UNL     1     -41.691  54.567 -53.751  1.00  0.00     0.069 A 
HETATM   26  C   UNL     1     -42.554  54.721 -52.667  1.00  0.00     0.037 A 
HETATM   27  C   UNL     1     -42.599  55.934 -51.967  1.00  0.00     0.016 A 
BRANCH  25  28
HETATM   28  O   UNL     1     -41.528  53.436 -54.499  1.00  0.00    -0.347 OA
BRANCH  28  29
HETATM   29  C   UNL     1     -40.201  52.921 -54.623  1.00  0.00     0.214 C 
BRANCH  29  30
HETATM   30  C   UNL     1     -39.981  51.817 -53.613  1.00  0.00    -0.034 A 
HETATM   31  C   UNL     1     -39.851  50.488 -54.045  1.00  0.00     0.009 A 
HETATM   32  C   UNL     1     -39.625  49.461 -53.127  1.00  0.00     0.001 A 
HETATM   33  C   UNL     1     -39.516  49.751 -51.768  1.00  0.00     0.000 A 
HETATM   34  C   UNL     1     -39.626  51.068 -51.328  1.00  0.00     0.001 A 
HETATM   35  C   UNL     1     -39.851  52.097 -52.245  1.00  0.00     0.009 A 
ENDBRANCH  29  30
ENDBRANCH  28  29
ENDBRANCH  25  28
ENDBRANCH   1  22
TORSDOF 6
ENDMDL
MODEL 7
REMARK VINA RESULT:      -8.1     17.079     20.440
REMARK  6 active torsions:
REMARK  status: ('A' for Active; 'I' for Inactive)
REMARK    1  A    between atoms: C_4  and  C_5 
REMARK    2  A    between atoms: C_5  and  O_6 
REMARK    3  A    between atoms: O_6  and  C_7 
REMARK    4  A    between atoms: C_10  and  C_11 
REMARK    5  A    between atoms: C_17  and  C_18 
REMARK    6  A    between atoms: C_27  and  N_28 
ROOT
HETATM    1  C   UNL     1     -34.627  41.169 -52.403  1.00  0.00     0.072 A 
HETATM    2  N   UNL     1     -34.985  42.488 -52.202  1.00  0.00    -0.274 N 
HETATM    3  H   UNL     1     -34.792  43.061 -51.388  1.00  0.00     0.189 HD
HETATM    4  N   UNL     1     -35.691  43.031 -53.213  1.00  0.00    -0.148 NA
HETATM    5  C   UNL     1     -35.788  42.021 -54.065  1.00  0.00     0.199 A 
HETATM    6  C   UNL     1     -35.137  40.855 -53.653  1.00  0.00     0.040 A 
HETATM    7  C   UNL     1     -35.136  39.646 -54.522  1.00  0.00     0.106 A 
HETATM    8  C   UNL     1     -36.019  39.854 -55.747  1.00  0.00     0.081 A 
HETATM    9  C   UNL     1     -36.229  38.715 -56.580  1.00  0.00     0.100 C 
HETATM   10  N   UNL     1     -36.393  37.785 -57.253  1.00  0.00    -0.191 NA
HETATM   11  C   UNL     1     -36.623  41.038 -56.032  1.00  0.00     0.140 A 
HETATM   12  O   UNL     1     -36.472  42.166 -55.213  1.00  0.00    -0.277 OA
ENDROOT
BRANCH   7  13
HETATM   13  C   UNL     1     -33.680  39.384 -54.880  1.00  0.00    -0.041 A 
HETATM   14  C   UNL     1     -32.998  40.275 -55.718  1.00  0.00     0.027 A 
HETATM   15  C   UNL     1     -31.665  40.032 -56.017  1.00  0.00     0.116 A 
HETATM   16  N   UNL     1     -30.969  38.981 -55.539  1.00  0.00    -0.273 NA
HETATM   17  C   UNL     1     -31.634  38.133 -54.729  1.00  0.00     0.116 A 
HETATM   18  C   UNL     1     -32.964  38.288 -54.373  1.00  0.00     0.027 A 
ENDBRANCH   7  13
BRANCH  11  19
HETATM   19  N   UNL     1     -37.431  41.277 -57.121  1.00  0.00    -0.282 NA
HETATM   20  H   UNL     1     -38.183  40.611 -57.275  1.00  0.00     0.126 HD
HETATM   21  H   UNL     1     -36.894  41.481 -57.962  1.00  0.00     0.126 HD
ENDBRANCH  11  19
BRANCH   1  22
HETATM   22  C   UNL     1     -33.876  40.396 -51.422  1.00  0.00    -0.007 A 
HETATM   23  C   UNL     1     -32.478  40.414 -51.417  1.00  0.00     0.016 A 
HETATM   24  C   UNL     1     -31.762  39.688 -50.461  1.00  0.00     0.037 A 
HETATM   25  C   UNL     1     -32.428  38.929 -49.496  1.00  0.00     0.069 A 
HETATM   26  C   UNL     1     -33.821  38.887 -49.509  1.00  0.00     0.037 A 
HETATM   27  C   UNL     1     -34.540  39.620 -50.462  1.00  0.00     0.016 A 
BRANCH  25  28
HETATM   28  O   UNL     1     -31.609  38.288 -48.610  1.00  0.00    -0.347 OA
BRANCH  28  29
HETATM   29  C   UNL     1     -32.088  38.136 -47.272  1.00  0.00     0.214 C 
BRANCH  29  30
HETATM   30  C   UNL     1     -31.269  38.990 -46.331  1.00  0.00    -0.034 A 
HETATM   31  C   UNL     1     -30.479  40.033 -46.840  1.00  0.00     0.009 A 
HETATM   32  C   UNL     1     -29.735  40.845 -45.983  1.00  0.00     0.001 A 
HETATM   33  C   UNL     1     -29.778  40.632 -44.606  1.00  0.00     0.000 A 
HETATM   34  C   UNL     1     -30.571  39.611 -44.086  1.00  0.00     0.001 A 
HETATM   35  C   UNL     1     -31.317  38.798 -44.943  1.00  0.00     0.009 A 
ENDBRANCH  29  30
ENDBRANCH  28  29
ENDBRANCH  25  28
ENDBRANCH   1  22
TORSDOF 6
ENDMDL
MODEL 8
REMARK VINA RESULT:      -7.8      4.223      7.514
REMARK  6 active torsions:
REMARK  status: ('A' for Active; 'I' for Inactive)
REMARK    1  A    between atoms: C_4  and  C_5 
REMARK    2  A    between atoms: C_5  and  O_6 
REMARK    3  A    between atoms: O_6  and  C_7 
REMARK    4  A    between atoms: C_10  and  C_11 
REMARK    5  A    between atoms: C_17  and  C_18 
REMARK    6  A    between atoms: C_27  and  N_28 
ROOT
HETATM    1  C   UNL     1     -41.961  55.777 -55.568  1.00  0.00     0.072 A 
HETATM    2  N   UNL     1     -40.763  55.102 -55.444  1.00  0.00    -0.274 N 
HETATM    3  H   UNL     1     -40.203  54.699 -56.187  1.00  0.00     0.189 HD
HETATM    4  N   UNL     1     -40.336  54.959 -54.174  1.00  0.00    -0.148 NA
HETATM    5  C   UNL     1     -41.300  55.552 -53.483  1.00  0.00     0.199 A 
HETATM    6  C   UNL     1     -42.316  56.102 -54.269  1.00  0.00     0.040 A 
HETATM    7  C   UNL     1     -43.452  56.825 -53.632  1.00  0.00     0.106 A 
HETATM    8  C   UNL     1     -43.380  56.724 -52.112  1.00  0.00     0.081 A 
HETATM    9  C   UNL     1     -44.495  57.240 -51.388  1.00  0.00     0.100 C 
HETATM   10  N   UNL     1     -45.404  57.665 -50.805  1.00  0.00    -0.191 NA
HETATM   11  C   UNL     1     -42.342  56.139 -51.458  1.00  0.00     0.140 A 
HETATM   12  O   UNL     1     -41.250  55.584 -52.140  1.00  0.00    -0.277 OA
ENDROOT
BRANCH   7  13
HETATM   13  C   UNL     1     -43.374  58.260 -54.134  1.00  0.00    -0.041 A 
HETATM   14  C   UNL     1     -44.477  58.832 -54.780  1.00  0.00     0.027 A 
HETATM   15  C   UNL     1     -44.396  60.147 -55.213  1.00  0.00     0.116 A 
HETATM   16  N   UNL     1     -43.309  60.927 -55.044  1.00  0.00    -0.273 NA
HETATM   17  C   UNL     1     -42.255  60.368 -54.416  1.00  0.00     0.116 A 
HETATM   18  C   UNL     1     -42.238  59.063 -53.949  1.00  0.00     0.027 A 
ENDBRANCH   7  13
BRANCH  11  19
HETATM   19  N   UNL     1     -42.231  56.019 -50.090  1.00  0.00    -0.282 NA
HETATM   20  H   UNL     1     -43.102  56.031 -49.567  1.00  0.00     0.126 HD
HETATM   21  H   UNL     1     -41.520  56.639 -49.706  1.00  0.00     0.126 HD
ENDBRANCH  11  19
BRANCH   1  22
HETATM   22  C   UNL     1     -42.601  56.020 -56.855  1.00  0.00    -0.007 A 
HETATM   23  C   UNL     1     -43.290  54.998 -57.514  1.00  0.00     0.016 A 
HETATM   24  C   UNL     1     -43.921  55.241 -58.738  1.00  0.00     0.037 A 
HETATM   25  C   UNL     1     -43.872  56.506 -59.326  1.00  0.00     0.069 A 
HETATM   26  C   UNL     1     -43.167  57.524 -58.687  1.00  0.00     0.037 A 
HETATM   27  C   UNL     1     -42.540  57.284 -57.457  1.00  0.00     0.016 A 
BRANCH  25  28
HETATM   28  O   UNL     1     -44.548  56.612 -60.509  1.00  0.00    -0.347 OA
BRANCH  28  29
HETATM   29  C   UNL     1     -45.962  56.406 -60.473  1.00  0.00     0.214 C 
BRANCH  29  30
HETATM   30  C   UNL     1     -46.639  57.598 -59.835  1.00  0.00    -0.034 A 
HETATM   31  C   UNL     1     -46.869  57.616 -58.451  1.00  0.00     0.009 A 
HETATM   32  C   UNL     1     -47.472  58.719 -57.845  1.00  0.00     0.001 A 
HETATM   33  C   UNL     1     -47.846  59.821 -58.612  1.00  0.00     0.000 A 
HETATM   34  C   UNL     1     -47.608  59.823 -59.985  1.00  0.00     0.001 A 
HETATM   35  C   UNL     1     -47.003  58.721 -60.593  1.00  0.00     0.009 A 
ENDBRANCH  29  30
ENDBRANCH  28  29
ENDBRANCH  25  28
ENDBRANCH   1  22
TORSDOF 6
ENDMDL
MODEL 9
REMARK VINA RESULT:      -7.8      4.797      8.324
REMARK  6 active torsions:
REMARK  status: ('A' for Active; 'I' for Inactive)
REMARK    1  A    between atoms: C_4  and  C_5 
REMARK    2  A    between atoms: C_5  and  O_6 
REMARK    3  A    between atoms: O_6  and  C_7 
REMARK    4  A    between atoms: C_10  and  C_11 
REMARK    5  A    between atoms: C_17  and  C_18 
REMARK    6  A    between atoms: C_27  and  N_28 
ROOT
HETATM    1  C   UNL     1     -41.597  55.022 -55.497  1.00  0.00     0.072 A 
HETATM    2  N   UNL     1     -40.399  54.409 -55.810  1.00  0.00    -0.274 N 
HETATM    3  H   UNL     1     -39.936  54.386 -56.712  1.00  0.00     0.189 HD
HETATM    4  N   UNL     1     -39.825  53.758 -54.780  1.00  0.00    -0.148 NA
HETATM    5  C   UNL     1     -40.693  53.958 -53.799  1.00  0.00     0.199 A 
HETATM    6  C   UNL     1     -41.790  54.747 -54.153  1.00  0.00     0.040 A 
HETATM    7  C   UNL     1     -42.833  55.081 -53.145  1.00  0.00     0.106 A 
HETATM    8  C   UNL     1     -42.581  54.345 -51.833  1.00  0.00     0.081 A 
HETATM    9  C   UNL     1     -43.595  54.456 -50.837  1.00  0.00     0.100 C 
HETATM   10  N   UNL     1     -44.424  54.553 -50.031  1.00  0.00    -0.191 NA
HETATM   11  C   UNL     1     -41.478  53.582 -51.615  1.00  0.00     0.140 A 
HETATM   12  O   UNL     1     -40.481  53.417 -52.586  1.00  0.00    -0.277 OA
ENDROOT
BRANCH   7  13
HETATM   13  C   UNL     1     -42.802  56.595 -52.989  1.00  0.00    -0.041 A 
HETATM   14  C   UNL     1     -43.980  57.336 -53.148  1.00  0.00     0.027 A 
HETATM   15  C   UNL     1     -43.937  58.712 -52.982  1.00  0.00     0.116 A 
HETATM   16  N   UNL     1     -42.818  59.396 -52.668  1.00  0.00    -0.273 NA
HETATM   17  C   UNL     1     -41.691  58.672 -52.513  1.00  0.00     0.116 A 
HETATM   18  C   UNL     1     -41.631  57.295 -52.658  1.00  0.00     0.027 A 
ENDBRANCH   7  13
BRANCH  11  19
HETATM   19  N   UNL     1     -41.204  52.895 -50.452  1.00  0.00    -0.282 NA
HETATM   20  H   UNL     1     -41.739  52.045 -50.297  1.00  0.00     0.126 HD
HETATM   21  H   UNL     1     -41.178  53.509 -49.640  1.00  0.00     0.126 HD
ENDBRANCH  11  19
BRANCH   1  22
HETATM   22  C   UNL     1     -42.384  55.763 -56.475  1.00  0.00    -0.007 A 
HETATM   23  C   UNL     1     -43.097  55.093 -57.473  1.00  0.00     0.016 A 
HETATM   24  C   UNL     1     -43.868  55.806 -58.395  1.00  0.00     0.037 A 
HETATM   25  C   UNL     1     -43.938  57.200 -58.340  1.00  0.00     0.069 A 
HETATM   26  C   UNL     1     -43.210  57.877 -57.364  1.00  0.00     0.037 A 
HETATM   27  C   UNL     1     -42.443  57.163 -56.433  1.00  0.00     0.016 A 
BRANCH  25  28
HETATM   28  O   UNL     1     -44.744  57.768 -59.286  1.00  0.00    -0.347 OA
BRANCH  28  29
HETATM   29  C   UNL     1     -46.099  58.029 -58.917  1.00  0.00     0.214 C 
BRANCH  29  30
HETATM   30  C   UNL     1     -46.997  57.897 -60.127  1.00  0.00    -0.034 A 
HETATM   31  C   UNL     1     -47.585  59.041 -60.690  1.00  0.00     0.009 A 
HETATM   32  C   UNL     1     -48.398  58.938 -61.820  1.00  0.00     0.001 A 
HETATM   33  C   UNL     1     -48.624  57.695 -62.408  1.00  0.00     0.000 A 
HETATM   34  C   UNL     1     -48.032  56.555 -61.869  1.00  0.00     0.001 A 
HETATM   35  C   UNL     1     -47.218  56.655 -60.739  1.00  0.00     0.009 A 
ENDBRANCH  29  30
ENDBRANCH  28  29
ENDBRANCH  25  28
ENDBRANCH   1  22
TORSDOF 6
ENDMDL
MODEL 10
REMARK VINA RESULT:      -7.8      4.229      5.485
REMARK  6 active torsions:
REMARK  status: ('A' for Active; 'I' for Inactive)
REMARK    1  A    between atoms: C_4  and  C_5 
REMARK    2  A    between atoms: C_5  and  O_6 
REMARK    3  A    between atoms: O_6  and  C_7 
REMARK    4  A    between atoms: C_10  and  C_11 
REMARK    5  A    between atoms: C_17  and  C_18 
REMARK    6  A    between atoms: C_27  and  N_28 
ROOT
HETATM    1  C   UNL     1     -44.061  57.509 -57.476  1.00  0.00     0.072 A 
HETATM    2  N   UNL     1     -45.181  57.288 -58.254  1.00  0.00    -0.274 N 
HETATM    3  H   UNL     1     -45.826  56.507 -58.196  1.00  0.00     0.189 HD
HETATM    4  N   UNL     1     -45.393  58.223 -59.200  1.00  0.00    -0.148 NA
HETATM    5  C   UNL     1     -44.370  59.047 -59.018  1.00  0.00     0.199 A 
HETATM    6  C   UNL     1     -43.526  58.692 -57.962  1.00  0.00     0.040 A 
HETATM    7  C   UNL     1     -42.351  59.540 -57.621  1.00  0.00     0.106 A 
HETATM    8  C   UNL     1     -42.176  60.665 -58.635  1.00  0.00     0.081 A 
HETATM    9  C   UNL     1     -40.994  61.453 -58.511  1.00  0.00     0.100 C 
HETATM   10  N   UNL     1     -40.033  62.093 -58.401  1.00  0.00    -0.191 NA
HETATM   11  C   UNL     1     -43.060  60.897 -59.640  1.00  0.00     0.140 A 
HETATM   12  O   UNL     1     -44.210  60.116 -59.818  1.00  0.00    -0.277 OA
ENDROOT
BRANCH   7  13
HETATM   13  C   UNL     1     -42.595  60.050 -56.207  1.00  0.00    -0.041 A 
HETATM   14  C   UNL     1     -43.628  60.964 -55.966  1.00  0.00     0.027 A 
HETATM   15  C   UNL     1     -43.849  61.402 -54.668  1.00  0.00     0.116 A 
HETATM   16  N   UNL     1     -43.128  60.994 -53.605  1.00  0.00    -0.273 NA
HETATM   17  C   UNL     1     -42.139  60.110 -53.848  1.00  0.00     0.116 A 
HETATM   18  C   UNL     1     -41.839  59.614 -55.108  1.00  0.00     0.027 A 
ENDBRANCH   7  13
BRANCH  11  19
HETATM   19  N   UNL     1     -42.947  61.896 -60.583  1.00  0.00    -0.282 NA
HETATM   20  H   UNL     1     -42.036  62.340 -60.658  1.00  0.00     0.126 HD
HETATM   21  H   UNL     1     -43.717  62.560 -60.535  1.00  0.00     0.126 HD
ENDBRANCH  11  19
BRANCH   1  22
HETATM   22  C   UNL     1     -43.649  56.605 -56.410  1.00  0.00    -0.007 A 
HETATM   23  C   UNL     1     -42.835  55.502 -56.685  1.00  0.00     0.016 A 
HETATM   24  C   UNL     1     -42.423  54.650 -55.655  1.00  0.00     0.037 A 
HETATM   25  C   UNL     1     -42.820  54.881 -54.337  1.00  0.00     0.069 A 
HETATM   26  C   UNL     1     -43.651  55.965 -54.059  1.00  0.00     0.037 A 
HETATM   27  C   UNL     1     -44.058  56.824 -55.088  1.00  0.00     0.016 A 
BRANCH  25  28
HETATM   28  O   UNL     1     -42.329  53.986 -53.429  1.00  0.00    -0.347 OA
BRANCH  28  29
HETATM   29  C   UNL     1     -42.929  53.978 -52.132  1.00  0.00     0.214 C 
BRANCH  29  30
HETATM   30  C   UNL     1     -41.856  54.049 -51.068  1.00  0.00    -0.034 A 
HETATM   31  C   UNL     1     -40.586  53.505 -51.317  1.00  0.00     0.009 A 
HETATM   32  C   UNL     1     -39.578  53.583 -50.354  1.00  0.00     0.001 A 
HETATM   33  C   UNL     1     -39.824  54.214 -49.136  1.00  0.00     0.000 A 
HETATM   34  C   UNL     1     -41.075  54.772 -48.883  1.00  0.00     0.001 A 
HETATM   35  C   UNL     1     -42.084  54.697 -49.845  1.00  0.00     0.009 A 
ENDBRANCH  29  30
ENDBRANCH  28  29
ENDBRANCH  25  28
ENDBRANCH   1  22
TORSDOF 6
ENDMDL
