MODEL 1
REMARK VINA RESULT:      -7.6      0.000      0.000
REMARK  7 active torsions:
REMARK  status: ('A' for Active; 'I' for Inactive)
REMARK    1  A    between atoms: C_2  and  C_3 
REMARK    2  A    between atoms: C_3  and  N_4 
REMARK    3  A    between atoms: C_7  and  C_8 
REMARK       I    between atoms: C_8  and  N_9 
REMARK    4  A    between atoms: N_9  and  C_10 
REMARK    5  A    between atoms: C_11  and  O_12 
REMARK    6  A    between atoms: C_16  and  C_17 
REMARK       I    between atoms: C_17  and  N_18 
REMARK    7  A    between atoms: C_23  and  C_24 
ROOT
HETATM    1  C   UNL     1     -41.934  55.454 -52.326  1.00  0.00     0.259 C 
HETATM    2  N   UNL     1     -41.191  56.612 -52.418  1.00  0.00    -0.320 N 
HETATM    3  O   UNL     1     -43.148  55.370 -52.479  1.00  0.00    -0.267 OA
HETATM    4  H   UNL     1     -40.251  56.619 -52.034  1.00  0.00     0.169 HD
ENDROOT
BRANCH   2   5
HETATM    5  C   UNL     1     -41.629  57.837 -52.971  1.00  0.00     0.069 A 
HETATM    6  C   UNL     1     -41.912  58.902 -52.094  1.00  0.00     0.095 A 
HETATM    7  C   UNL     1     -42.319  60.133 -52.619  1.00  0.00     0.040 A 
HETATM    8  C   UNL     1     -42.444  60.304 -54.002  1.00  0.00     0.020 A 
HETATM    9  C   UNL     1     -42.162  59.248 -54.874  1.00  0.00     0.034 A 
HETATM   10  C   UNL     1     -41.727  58.029 -54.354  1.00  0.00     0.049 A 
BRANCH   6  11
HETATM   11  O   UNL     1     -41.751  58.630 -50.756  1.00  0.00    -0.354 OA
HETATM   12  C   UNL     1     -40.847  59.460 -50.036  1.00  0.00     0.210 C 
ENDBRANCH   6  11
BRANCH   9  13
HETATM   13  C   UNL     1     -42.231  59.492 -56.335  1.00  0.00     0.251 C 
HETATM   14  N   UNL     1     -43.195  58.899 -57.113  1.00  0.00    -0.361 N 
HETATM   15  C   UNL     1     -44.391  58.191 -56.709  1.00  0.00     0.149 C 
HETATM   16  H   UNL     1     -43.094  59.120 -58.096  1.00  0.00     0.162 HD
HETATM   17  O   UNL     1     -41.409  60.241 -56.857  1.00  0.00    -0.268 OA
ENDBRANCH   9  13
ENDBRANCH   2   5
BRANCH   1  18
HETATM   18  C   UNL     1     -41.146  54.291 -51.995  1.00  0.00     0.076 C 
HETATM   19  C   UNL     1     -40.854  53.810 -50.702  1.00  0.00     0.158 C 
HETATM   20  N   UNL     1     -40.160  52.672 -50.720  1.00  0.00    -0.183 NA
HETATM   21  N   UNL     1     -40.078  52.369 -52.035  1.00  0.00    -0.268 N 
HETATM   22  C   UNL     1     -40.554  53.373 -52.851  1.00  0.00     0.052 C 
BRANCH  21  23
HETATM   23  C   UNL     1     -39.572  51.057 -52.432  1.00  0.00     0.106 C 
HETATM   24  C   UNL     1     -39.458  50.134 -51.218  1.00  0.00     0.034 C 
BRANCH  23  25
HETATM   25  C   UNL     1     -40.407  50.402 -53.551  1.00  0.00     0.022 C 
HETATM   26  C   UNL     1     -39.548  49.803 -54.660  1.00  0.00     0.007 C 
ENDBRANCH  23  25
ENDBRANCH  21  23
BRANCH  22  27
HETATM   27  C   UNL     1     -40.431  53.397 -54.376  1.00  0.00     0.038 A 
HETATM   28  C   UNL     1     -41.345  54.248 -55.225  1.00  0.00     0.011 A 
HETATM   29  C   UNL     1     -39.919  54.647 -55.062  1.00  0.00     0.011 A 
ENDBRANCH  22  27
ENDBRANCH   1  18
TORSDOF 7
ENDMDL
MODEL 2
REMARK VINA RESULT:      -7.4      2.705      3.664
REMARK  7 active torsions:
REMARK  status: ('A' for Active; 'I' for Inactive)
REMARK    1  A    between atoms: C_2  and  C_3 
REMARK    2  A    between atoms: C_3  and  N_4 
REMARK    3  A    between atoms: C_7  and  C_8 
REMARK       I    between atoms: C_8  and  N_9 
REMARK    4  A    between atoms: N_9  and  C_10 
REMARK    5  A    between atoms: C_11  and  O_12 
REMARK    6  A    between atoms: C_16  and  C_17 
REMARK       I    between atoms: C_17  and  N_18 
REMARK    7  A    between atoms: C_23  and  C_24 
ROOT
HETATM    1  C   UNL     1     -43.478  55.213 -53.912  1.00  0.00     0.259 C 
HETATM    2  N   UNL     1     -43.321  56.497 -54.390  1.00  0.00    -0.320 N 
HETATM    3  O   UNL     1     -44.220  54.359 -54.386  1.00  0.00    -0.267 OA
HETATM    4  H   UNL     1     -42.884  57.190 -53.791  1.00  0.00     0.169 HD
ENDROOT
BRANCH   2   5
HETATM    5  C   UNL     1     -43.754  56.971 -55.650  1.00  0.00     0.069 A 
HETATM    6  C   UNL     1     -44.761  57.956 -55.682  1.00  0.00     0.095 A 
HETATM    7  C   UNL     1     -45.185  58.462 -56.915  1.00  0.00     0.040 A 
HETATM    8  C   UNL     1     -44.615  57.995 -58.104  1.00  0.00     0.020 A 
HETATM    9  C   UNL     1     -43.615  57.019 -58.073  1.00  0.00     0.034 A 
HETATM   10  C   UNL     1     -43.169  56.535 -56.843  1.00  0.00     0.049 A 
BRANCH   6  11
HETATM   11  O   UNL     1     -45.248  58.349 -54.458  1.00  0.00    -0.354 OA
HETATM   12  C   UNL     1     -45.148  59.733 -54.142  1.00  0.00     0.210 C 
ENDBRANCH   6  11
BRANCH   9  13
HETATM   13  C   UNL     1     -42.981  56.607 -59.350  1.00  0.00     0.251 C 
HETATM   14  N   UNL     1     -43.418  55.502 -60.039  1.00  0.00    -0.361 N 
HETATM   15  C   UNL     1     -44.622  54.721 -59.851  1.00  0.00     0.149 C 
HETATM   16  H   UNL     1     -42.866  55.315 -60.867  1.00  0.00     0.162 HD
HETATM   17  O   UNL     1     -42.049  57.270 -59.797  1.00  0.00    -0.268 OA
ENDBRANCH   9  13
ENDBRANCH   2   5
BRANCH   1  18
HETATM   18  C   UNL     1     -42.686  54.938 -52.737  1.00  0.00     0.076 C 
HETATM   19  C   UNL     1     -43.110  55.024 -51.394  1.00  0.00     0.158 C 
HETATM   20  N   UNL     1     -42.169  54.639 -50.532  1.00  0.00    -0.183 NA
HETATM   21  N   UNL     1     -41.161  54.217 -51.326  1.00  0.00    -0.268 N 
HETATM   22  C   UNL     1     -41.376  54.486 -52.661  1.00  0.00     0.052 C 
BRANCH  21  23
HETATM   23  C   UNL     1     -40.032  53.508 -50.726  1.00  0.00     0.106 C 
HETATM   24  C   UNL     1     -39.542  54.238 -49.476  1.00  0.00     0.034 C 
BRANCH  23  25
HETATM   25  C   UNL     1     -40.344  52.028 -50.420  1.00  0.00     0.022 C 
HETATM   26  C   UNL     1     -39.625  51.064 -51.357  1.00  0.00     0.007 C 
ENDBRANCH  23  25
ENDBRANCH  21  23
BRANCH  22  27
HETATM   27  C   UNL     1     -40.344  54.290 -53.774  1.00  0.00     0.038 A 
HETATM   28  C   UNL     1     -40.163  52.952 -54.451  1.00  0.00     0.011 A 
HETATM   29  C   UNL     1     -40.816  54.065 -55.195  1.00  0.00     0.011 A 
ENDBRANCH  22  27
ENDBRANCH   1  18
TORSDOF 7
ENDMDL
MODEL 3
REMARK VINA RESULT:      -7.4      2.550      7.933
REMARK  7 active torsions:
REMARK  status: ('A' for Active; 'I' for Inactive)
REMARK    1  A    between atoms: C_2  and  C_3 
REMARK    2  A    between atoms: C_3  and  N_4 
REMARK    3  A    between atoms: C_7  and  C_8 
REMARK       I    between atoms: C_8  and  N_9 
REMARK    4  A    between atoms: N_9  and  C_10 
REMARK    5  A    between atoms: C_11  and  O_12 
REMARK    6  A    between atoms: C_16  and  C_17 
REMARK       I    between atoms: C_17  and  N_18 
REMARK    7  A    between atoms: C_23  and  C_24 
ROOT
HETATM    1  C   UNL     1     -42.699  54.553 -55.656  1.00  0.00     0.259 C 
HETATM    2  N   UNL     1     -41.367  54.446 -55.315  1.00  0.00    -0.320 N 
HETATM    3  O   UNL     1     -43.595  53.804 -55.282  1.00  0.00    -0.267 OA
HETATM    4  H   UNL     1     -40.681  54.953 -55.865  1.00  0.00     0.169 HD
ENDROOT
BRANCH   2   5
HETATM    5  C   UNL     1     -40.840  53.650 -54.272  1.00  0.00     0.069 A 
HETATM    6  C   UNL     1     -40.677  54.237 -53.002  1.00  0.00     0.095 A 
HETATM    7  C   UNL     1     -40.184  53.463 -51.946  1.00  0.00     0.040 A 
HETATM    8  C   UNL     1     -39.858  52.118 -52.151  1.00  0.00     0.020 A 
HETATM    9  C   UNL     1     -40.020  51.533 -53.410  1.00  0.00     0.034 A 
HETATM   10  C   UNL     1     -40.540  52.296 -54.456  1.00  0.00     0.049 A 
BRANCH   6  11
HETATM   11  O   UNL     1     -41.034  55.561 -52.908  1.00  0.00    -0.354 OA
HETATM   12  C   UNL     1     -41.876  55.924 -51.820  1.00  0.00     0.210 C 
ENDBRANCH   6  11
BRANCH   9  13
HETATM   13  C   UNL     1     -39.737  50.086 -53.567  1.00  0.00     0.251 C 
HETATM   14  N   UNL     1     -39.494  49.285 -52.478  1.00  0.00    -0.361 N 
HETATM   15  C   UNL     1     -39.690  49.565 -51.072  1.00  0.00     0.149 C 
HETATM   16  H   UNL     1     -39.272  48.331 -52.736  1.00  0.00     0.162 HD
HETATM   17  O   UNL     1     -39.722  49.596 -54.694  1.00  0.00    -0.268 OA
ENDBRANCH   9  13
ENDBRANCH   2   5
BRANCH   1  18
HETATM   18  C   UNL     1     -42.975  55.651 -56.552  1.00  0.00     0.076 C 
HETATM   19  C   UNL     1     -42.941  55.619 -57.961  1.00  0.00     0.158 C 
HETATM   20  N   UNL     1     -43.313  56.774 -58.512  1.00  0.00    -0.183 NA
HETATM   21  N   UNL     1     -43.674  57.531 -57.452  1.00  0.00    -0.268 N 
HETATM   22  C   UNL     1     -43.378  56.942 -56.242  1.00  0.00     0.052 C 
BRANCH  21  23
HETATM   23  C   UNL     1     -44.355  58.803 -57.686  1.00  0.00     0.106 C 
HETATM   24  C   UNL     1     -43.434  59.780 -58.416  1.00  0.00     0.034 C 
BRANCH  23  25
HETATM   25  C   UNL     1     -45.696  58.641 -58.433  1.00  0.00     0.022 C 
HETATM   26  C   UNL     1     -46.786  58.020 -57.567  1.00  0.00     0.007 C 
ENDBRANCH  23  25
ENDBRANCH  21  23
BRANCH  22  27
HETATM   27  C   UNL     1     -43.504  57.626 -54.878  1.00  0.00     0.038 A 
HETATM   28  C   UNL     1     -44.653  58.556 -54.569  1.00  0.00     0.011 A 
HETATM   29  C   UNL     1     -44.614  57.208 -53.936  1.00  0.00     0.011 A 
ENDBRANCH  22  27
ENDBRANCH   1  18
TORSDOF 7
ENDMDL
MODEL 4
REMARK VINA RESULT:      -7.4      2.442      4.477
REMARK  7 active torsions:
REMARK  status: ('A' for Active; 'I' for Inactive)
REMARK    1  A    between atoms: C_2  and  C_3 
REMARK    2  A    between atoms: C_3  and  N_4 
REMARK    3  A    between atoms: C_7  and  C_8 
REMARK       I    between atoms: C_8  and  N_9 
REMARK    4  A    between atoms: N_9  and  C_10 
REMARK    5  A    between atoms: C_11  and  O_12 
REMARK    6  A    between atoms: C_16  and  C_17 
REMARK       I    between atoms: C_17  and  N_18 
REMARK    7  A    between atoms: C_23  and  C_24 
ROOT
HETATM    1  C   UNL     1     -42.948  57.146 -54.246  1.00  0.00     0.259 C 
HETATM    2  N   UNL     1     -42.152  57.434 -55.335  1.00  0.00    -0.320 N 
HETATM    3  O   UNL     1     -44.160  57.319 -54.181  1.00  0.00    -0.267 OA
HETATM    4  H   UNL     1     -41.147  57.490 -55.202  1.00  0.00     0.169 HD
ENDROOT
BRANCH   2   5
HETATM    5  C   UNL     1     -42.608  57.707 -56.645  1.00  0.00     0.069 A 
HETATM    6  C   UNL     1     -42.370  58.987 -57.181  1.00  0.00     0.095 A 
HETATM    7  C   UNL     1     -42.784  59.272 -58.486  1.00  0.00     0.040 A 
HETATM    8  C   UNL     1     -43.429  58.294 -59.251  1.00  0.00     0.020 A 
HETATM    9  C   UNL     1     -43.664  57.022 -58.721  1.00  0.00     0.034 A 
HETATM   10  C   UNL     1     -43.224  56.727 -57.431  1.00  0.00     0.049 A 
BRANCH   6  11
HETATM   11  O   UNL     1     -41.725  59.871 -56.349  1.00  0.00    -0.354 OA
HETATM   12  C   UNL     1     -42.503  60.934 -55.813  1.00  0.00     0.210 C 
ENDBRANCH   6  11
BRANCH   9  13
HETATM   13  C   UNL     1     -44.279  55.990 -59.591  1.00  0.00     0.251 C 
HETATM   14  N   UNL     1     -45.641  55.906 -59.745  1.00  0.00    -0.361 N 
HETATM   15  C   UNL     1     -46.668  56.849 -59.356  1.00  0.00     0.149 C 
HETATM   16  H   UNL     1     -45.921  55.128 -60.330  1.00  0.00     0.162 HD
HETATM   17  O   UNL     1     -43.553  55.196 -60.185  1.00  0.00    -0.268 OA
ENDBRANCH   9  13
ENDBRANCH   2   5
BRANCH   1  18
HETATM   18  C   UNL     1     -42.212  56.623 -53.120  1.00  0.00     0.076 C 
HETATM   19  C   UNL     1     -41.537  57.370 -52.132  1.00  0.00     0.158 C 
HETATM   20  N   UNL     1     -41.007  56.604 -51.179  1.00  0.00    -0.183 NA
HETATM   21  N   UNL     1     -41.417  55.358 -51.505  1.00  0.00    -0.268 N 
HETATM   22  C   UNL     1     -42.047  55.301 -52.731  1.00  0.00     0.052 C 
BRANCH  21  23
HETATM   23  C   UNL     1     -41.212  54.269 -50.553  1.00  0.00     0.106 C 
HETATM   24  C   UNL     1     -39.887  53.558 -50.826  1.00  0.00     0.034 C 
BRANCH  23  25
HETATM   25  C   UNL     1     -41.302  54.729 -49.083  1.00  0.00     0.022 C 
HETATM   26  C   UNL     1     -40.323  53.999 -48.171  1.00  0.00     0.007 C 
ENDBRANCH  23  25
ENDBRANCH  21  23
BRANCH  22  27
HETATM   27  C   UNL     1     -42.460  54.012 -53.446  1.00  0.00     0.038 A 
HETATM   28  C   UNL     1     -42.460  53.916 -54.953  1.00  0.00     0.011 A 
HETATM   29  C   UNL     1     -41.412  53.198 -54.175  1.00  0.00     0.011 A 
ENDBRANCH  22  27
ENDBRANCH   1  18
TORSDOF 7
ENDMDL
MODEL 5
REMARK VINA RESULT:      -7.4      2.510      4.416
REMARK  7 active torsions:
REMARK  status: ('A' for Active; 'I' for Inactive)
REMARK    1  A    between atoms: C_2  and  C_3 
REMARK    2  A    between atoms: C_3  and  N_4 
REMARK    3  A    between atoms: C_7  and  C_8 
REMARK       I    between atoms: C_8  and  N_9 
REMARK    4  A    between atoms: N_9  and  C_10 
REMARK    5  A    between atoms: C_11  and  O_12 
REMARK    6  A    between atoms: C_16  and  C_17 
REMARK       I    between atoms: C_17  and  N_18 
REMARK    7  A    between atoms: C_23  and  C_24 
ROOT
HETATM    1  C   UNL     1     -41.676  56.271 -53.631  1.00  0.00     0.259 C 
HETATM    2  N   UNL     1     -42.958  56.538 -54.062  1.00  0.00    -0.320 N 
HETATM    3  O   UNL     1     -40.921  57.074 -53.093  1.00  0.00    -0.267 OA
HETATM    4  H   UNL     1     -43.399  55.891 -54.709  1.00  0.00     0.169 HD
ENDROOT
BRANCH   2   5
HETATM    5  C   UNL     1     -43.729  57.672 -53.719  1.00  0.00     0.069 A 
HETATM    6  C   UNL     1     -44.121  58.549 -54.750  1.00  0.00     0.095 A 
HETATM    7  C   UNL     1     -44.909  59.662 -54.439  1.00  0.00     0.040 A 
HETATM    8  C   UNL     1     -45.304  59.902 -53.119  1.00  0.00     0.020 A 
HETATM    9  C   UNL     1     -44.916  59.032 -52.095  1.00  0.00     0.034 A 
HETATM   10  C   UNL     1     -44.156  57.905 -52.408  1.00  0.00     0.049 A 
BRANCH   6  11
HETATM   11  O   UNL     1     -43.685  58.218 -56.010  1.00  0.00    -0.354 OA
HETATM   12  C   UNL     1     -44.663  58.204 -57.045  1.00  0.00     0.210 C 
ENDBRANCH   6  11
BRANCH   9  13
HETATM   13  C   UNL     1     -45.420  59.277 -50.722  1.00  0.00     0.251 C 
HETATM   14  N   UNL     1     -44.716  60.051 -49.832  1.00  0.00    -0.361 N 
HETATM   15  C   UNL     1     -43.587  60.924 -50.069  1.00  0.00     0.149 C 
HETATM   16  H   UNL     1     -45.156  60.096 -48.920  1.00  0.00     0.162 HD
HETATM   17  O   UNL     1     -46.489  58.778 -50.377  1.00  0.00    -0.268 OA
ENDBRANCH   9  13
ENDBRANCH   2   5
BRANCH   1  18
HETATM   18  C   UNL     1     -41.252  54.916 -53.894  1.00  0.00     0.076 C 
HETATM   19  C   UNL     1     -40.565  54.454 -55.036  1.00  0.00     0.158 C 
HETATM   20  N   UNL     1     -40.249  53.161 -54.958  1.00  0.00    -0.183 NA
HETATM   21  N   UNL     1     -40.656  52.807 -53.719  1.00  0.00    -0.268 N 
HETATM   22  C   UNL     1     -41.373  53.798 -53.082  1.00  0.00     0.052 C 
BRANCH  21  23
HETATM   23  C   UNL     1     -40.268  51.501 -53.189  1.00  0.00     0.106 C 
HETATM   24  C   UNL     1     -39.655  50.635 -54.290  1.00  0.00     0.034 C 
BRANCH  23  25
HETATM   25  C   UNL     1     -39.328  51.599 -51.970  1.00  0.00     0.022 C 
HETATM   26  C   UNL     1     -39.564  50.494 -50.947  1.00  0.00     0.007 C 
ENDBRANCH  23  25
ENDBRANCH  21  23
BRANCH  22  27
HETATM   27  C   UNL     1     -42.112  53.630 -51.752  1.00  0.00     0.038 A 
HETATM   28  C   UNL     1     -42.560  54.825 -50.946  1.00  0.00     0.011 A 
HETATM   29  C   UNL     1     -43.576  54.005 -51.663  1.00  0.00     0.011 A 
ENDBRANCH  22  27
ENDBRANCH   1  18
TORSDOF 7
ENDMDL
MODEL 6
REMARK VINA RESULT:      -7.2      2.506      3.375
REMARK  7 active torsions:
REMARK  status: ('A' for Active; 'I' for Inactive)
REMARK    1  A    between atoms: C_2  and  C_3 
REMARK    2  A    between atoms: C_3  and  N_4 
REMARK    3  A    between atoms: C_7  and  C_8 
REMARK       I    between atoms: C_8  and  N_9 
REMARK    4  A    between atoms: N_9  and  C_10 
REMARK    5  A    between atoms: C_11  and  O_12 
REMARK    6  A    between atoms: C_16  and  C_17 
REMARK       I    between atoms: C_17  and  N_18 
REMARK    7  A    between atoms: C_23  and  C_24 
ROOT
HETATM    1  C   UNL     1     -42.665  55.449 -51.362  1.00  0.00     0.259 C 
HETATM    2  N   UNL     1     -42.049  56.649 -51.649  1.00  0.00    -0.320 N 
HETATM    3  O   UNL     1     -43.650  55.305 -50.645  1.00  0.00    -0.267 OA
HETATM    4  H   UNL     1     -41.112  56.633 -52.041  1.00  0.00     0.169 HD
ENDROOT
BRANCH   2   5
HETATM    5  C   UNL     1     -42.586  57.935 -51.412  1.00  0.00     0.069 A 
HETATM    6  C   UNL     1     -41.735  58.927 -50.890  1.00  0.00     0.095 A 
HETATM    7  C   UNL     1     -42.235  60.216 -50.674  1.00  0.00     0.040 A 
HETATM    8  C   UNL     1     -43.568  60.515 -50.975  1.00  0.00     0.020 A 
HETATM    9  C   UNL     1     -44.414  59.530 -51.494  1.00  0.00     0.034 A 
HETATM   10  C   UNL     1     -43.909  58.254 -51.739  1.00  0.00     0.049 A 
BRANCH   6  11
HETATM   11  O   UNL     1     -40.443  58.531 -50.636  1.00  0.00    -0.354 OA
HETATM   12  C   UNL     1     -39.458  59.555 -50.571  1.00  0.00     0.210 C 
ENDBRANCH   6  11
BRANCH   9  13
HETATM   13  C   UNL     1     -45.798  59.907 -51.873  1.00  0.00     0.251 C 
HETATM   14  N   UNL     1     -46.092  60.368 -53.133  1.00  0.00    -0.361 N 
HETATM   15  C   UNL     1     -45.278  60.351 -54.329  1.00  0.00     0.149 C 
HETATM   16  H   UNL     1     -47.066  60.629 -53.236  1.00  0.00     0.162 HD
HETATM   17  O   UNL     1     -46.697  59.801 -51.042  1.00  0.00    -0.268 OA
ENDBRANCH   9  13
ENDBRANCH   2   5
BRANCH   1  18
HETATM   18  C   UNL     1     -42.022  54.312 -51.977  1.00  0.00     0.076 C 
HETATM   19  C   UNL     1     -42.204  53.851 -53.297  1.00  0.00     0.158 C 
HETATM   20  N   UNL     1     -41.417  52.817 -53.595  1.00  0.00    -0.183 NA
HETATM   21  N   UNL     1     -40.659  52.664 -52.487  1.00  0.00    -0.268 N 
HETATM   22  C   UNL     1     -41.064  53.463 -51.440  1.00  0.00     0.052 C 
BRANCH  21  23
HETATM   23  C   UNL     1     -39.514  51.756 -52.529  1.00  0.00     0.106 C 
HETATM   24  C   UNL     1     -39.700  50.609 -51.537  1.00  0.00     0.034 C 
BRANCH  23  25
HETATM   25  C   UNL     1     -39.219  51.222 -53.947  1.00  0.00     0.022 C 
HETATM   26  C   UNL     1     -39.771  49.820 -54.180  1.00  0.00     0.007 C 
ENDBRANCH  23  25
ENDBRANCH  21  23
BRANCH  22  27
HETATM   27  C   UNL     1     -40.518  53.384 -50.012  1.00  0.00     0.038 A 
HETATM   28  C   UNL     1     -39.412  54.298 -49.542  1.00  0.00     0.011 A 
HETATM   29  C   UNL     1     -40.799  54.515 -49.045  1.00  0.00     0.011 A 
ENDBRANCH  22  27
ENDBRANCH   1  18
TORSDOF 7
ENDMDL
MODEL 7
REMARK VINA RESULT:      -7.2      3.181      5.290
REMARK  7 active torsions:
REMARK  status: ('A' for Active; 'I' for Inactive)
REMARK    1  A    between atoms: C_2  and  C_3 
REMARK    2  A    between atoms: C_3  and  N_4 
REMARK    3  A    between atoms: C_7  and  C_8 
REMARK       I    between atoms: C_8  and  N_9 
REMARK    4  A    between atoms: N_9  and  C_10 
REMARK    5  A    between atoms: C_11  and  O_12 
REMARK    6  A    between atoms: C_16  and  C_17 
REMARK       I    between atoms: C_17  and  N_18 
REMARK    7  A    between atoms: C_23  and  C_24 
ROOT
HETATM    1  C   UNL     1     -43.473  56.671 -55.525  1.00  0.00     0.259 C 
HETATM    2  N   UNL     1     -42.738  56.472 -56.674  1.00  0.00    -0.320 N 
HETATM    3  O   UNL     1     -44.418  57.443 -55.405  1.00  0.00    -0.267 OA
HETATM    4  H   UNL     1     -41.837  56.009 -56.602  1.00  0.00     0.169 HD
ENDROOT
BRANCH   2   5
HETATM    5  C   UNL     1     -43.101  56.894 -57.974  1.00  0.00     0.069 A 
HETATM    6  C   UNL     1     -42.541  58.088 -58.468  1.00  0.00     0.095 A 
HETATM    7  C   UNL     1     -42.862  58.511 -59.762  1.00  0.00     0.040 A 
HETATM    8  C   UNL     1     -43.730  57.755 -60.557  1.00  0.00     0.020 A 
HETATM    9  C   UNL     1     -44.285  56.568 -60.068  1.00  0.00     0.034 A 
HETATM   10  C   UNL     1     -43.942  56.130 -58.789  1.00  0.00     0.049 A 
BRANCH   6  11
HETATM   11  O   UNL     1     -41.697  58.750 -57.609  1.00  0.00    -0.354 OA
HETATM   12  C   UNL     1     -41.718  60.172 -57.656  1.00  0.00     0.210 C 
ENDBRANCH   6  11
BRANCH   9  13
HETATM   13  C   UNL     1     -45.138  55.756 -60.969  1.00  0.00     0.251 C 
HETATM   14  N   UNL     1     -46.469  56.044 -61.144  1.00  0.00    -0.361 N 
HETATM   15  C   UNL     1     -47.211  57.222 -60.749  1.00  0.00     0.149 C 
HETATM   16  H   UNL     1     -46.936  55.381 -61.750  1.00  0.00     0.162 HD
HETATM   17  O   UNL     1     -44.640  54.807 -61.572  1.00  0.00    -0.268 OA
ENDBRANCH   9  13
ENDBRANCH   2   5
BRANCH   1  18
HETATM   18  C   UNL     1     -43.012  55.884 -54.405  1.00  0.00     0.076 C 
HETATM   19  C   UNL     1     -43.609  54.712 -53.896  1.00  0.00     0.158 C 
HETATM   20  N   UNL     1     -42.911  54.172 -52.897  1.00  0.00    -0.183 NA
HETATM   21  N   UNL     1     -41.809  54.951 -52.818  1.00  0.00    -0.268 N 
HETATM   22  C   UNL     1     -41.878  56.066 -53.627  1.00  0.00     0.052 C 
BRANCH  21  23
HETATM   23  C   UNL     1     -40.696  54.525 -51.973  1.00  0.00     0.106 C 
HETATM   24  C   UNL     1     -40.946  54.916 -50.516  1.00  0.00     0.034 C 
BRANCH  23  25
HETATM   25  C   UNL     1     -40.385  53.019 -52.098  1.00  0.00     0.022 C 
HETATM   26  C   UNL     1     -40.244  52.327 -50.747  1.00  0.00     0.007 C 
ENDBRANCH  23  25
ENDBRANCH  21  23
BRANCH  22  27
HETATM   27  C   UNL     1     -40.870  57.218 -53.620  1.00  0.00     0.038 A 
HETATM   28  C   UNL     1     -41.311  58.648 -53.817  1.00  0.00     0.011 A 
HETATM   29  C   UNL     1     -40.870  58.199 -52.467  1.00  0.00     0.011 A 
ENDBRANCH  22  27
ENDBRANCH   1  18
TORSDOF 7
ENDMDL
MODEL 8
REMARK VINA RESULT:      -7.2      2.480      4.198
REMARK  7 active torsions:
REMARK  status: ('A' for Active; 'I' for Inactive)
REMARK    1  A    between atoms: C_2  and  C_3 
REMARK    2  A    between atoms: C_3  and  N_4 
REMARK    3  A    between atoms: C_7  and  C_8 
REMARK       I    between atoms: C_8  and  N_9 
REMARK    4  A    between atoms: N_9  and  C_10 
REMARK    5  A    between atoms: C_11  and  O_12 
REMARK    6  A    between atoms: C_16  and  C_17 
REMARK       I    between atoms: C_17  and  N_18 
REMARK    7  A    between atoms: C_23  and  C_24 
ROOT
HETATM    1  C   UNL     1     -42.843  55.154 -54.650  1.00  0.00     0.259 C 
HETATM    2  N   UNL     1     -42.114  56.050 -55.402  1.00  0.00    -0.320 N 
HETATM    3  O   UNL     1     -44.067  55.075 -54.620  1.00  0.00    -0.267 OA
HETATM    4  H   UNL     1     -41.136  56.198 -55.169  1.00  0.00     0.169 HD
ENDROOT
BRANCH   2   5
HETATM    5  C   UNL     1     -42.610  56.836 -56.467  1.00  0.00     0.069 A 
HETATM    6  C   UNL     1     -42.486  58.236 -56.377  1.00  0.00     0.095 A 
HETATM    7  C   UNL     1     -42.943  59.034 -57.431  1.00  0.00     0.040 A 
HETATM    8  C   UNL     1     -43.516  58.446 -58.564  1.00  0.00     0.020 A 
HETATM    9  C   UNL     1     -43.638  57.056 -58.656  1.00  0.00     0.034 A 
HETATM   10  C   UNL     1     -43.155  56.258 -57.619  1.00  0.00     0.049 A 
BRANCH   6  11
HETATM   11  O   UNL     1     -41.904  58.709 -55.226  1.00  0.00    -0.354 OA
HETATM   12  C   UNL     1     -42.147  60.072 -54.895  1.00  0.00     0.210 C 
ENDBRANCH   6  11
BRANCH   9  13
HETATM   13  C   UNL     1     -44.178  56.469 -59.906  1.00  0.00     0.251 C 
HETATM   14  N   UNL     1     -45.531  56.359 -60.115  1.00  0.00    -0.361 N 
HETATM   15  C   UNL     1     -46.625  56.955 -59.377  1.00  0.00     0.149 C 
HETATM   16  H   UNL     1     -45.755  55.899 -60.989  1.00  0.00     0.162 HD
HETATM   17  O   UNL     1     -43.398  56.075 -60.770  1.00  0.00    -0.268 OA
ENDBRANCH   9  13
ENDBRANCH   2   5
BRANCH   1  18
HETATM   18  C   UNL     1     -42.024  54.284 -53.839  1.00  0.00     0.076 C 
HETATM   19  C   UNL     1     -40.830  53.644 -54.228  1.00  0.00     0.158 C 
HETATM   20  N   UNL     1     -40.264  52.960 -53.234  1.00  0.00    -0.183 NA
HETATM   21  N   UNL     1     -41.052  53.232 -52.170  1.00  0.00    -0.268 N 
HETATM   22  C   UNL     1     -42.193  53.930 -52.508  1.00  0.00     0.052 C 
BRANCH  21  23
HETATM   23  C   UNL     1     -40.611  52.828 -50.837  1.00  0.00     0.106 C 
HETATM   24  C   UNL     1     -39.975  51.439 -50.878  1.00  0.00     0.034 C 
BRANCH  23  25
HETATM   25  C   UNL     1     -39.664  53.853 -50.179  1.00  0.00     0.022 C 
HETATM   26  C   UNL     1     -39.945  54.054 -48.694  1.00  0.00     0.007 C 
ENDBRANCH  23  25
ENDBRANCH  21  23
BRANCH  22  27
HETATM   27  C   UNL     1     -43.355  54.225 -51.556  1.00  0.00     0.038 A 
HETATM   28  C   UNL     1     -43.113  54.710 -50.147  1.00  0.00     0.011 A 
HETATM   29  C   UNL     1     -43.650  55.657 -51.164  1.00  0.00     0.011 A 
ENDBRANCH  22  27
ENDBRANCH   1  18
TORSDOF 7
ENDMDL
MODEL 9
REMARK VINA RESULT:      -7.0      2.197      2.565
REMARK  7 active torsions:
REMARK  status: ('A' for Active; 'I' for Inactive)
REMARK    1  A    between atoms: C_2  and  C_3 
REMARK    2  A    between atoms: C_3  and  N_4 
REMARK    3  A    between atoms: C_7  and  C_8 
REMARK       I    between atoms: C_8  and  N_9 
REMARK    4  A    between atoms: N_9  and  C_10 
REMARK    5  A    between atoms: C_11  and  O_12 
REMARK    6  A    between atoms: C_16  and  C_17 
REMARK       I    between atoms: C_17  and  N_18 
REMARK    7  A    between atoms: C_23  and  C_24 
ROOT
HETATM    1  C   UNL     1     -42.334  55.372 -51.700  1.00  0.00     0.259 C 
HETATM    2  N   UNL     1     -41.889  56.467 -50.990  1.00  0.00    -0.320 N 
HETATM    3  O   UNL     1     -43.366  55.319 -52.360  1.00  0.00    -0.267 OA
HETATM    4  H   UNL     1     -41.168  56.331 -50.288  1.00  0.00     0.169 HD
ENDROOT
BRANCH   2   5
HETATM    5  C   UNL     1     -42.374  57.789 -51.115  1.00  0.00     0.069 A 
HETATM    6  C   UNL     1     -41.459  58.851 -50.974  1.00  0.00     0.095 A 
HETATM    7  C   UNL     1     -41.909  60.167 -51.122  1.00  0.00     0.040 A 
HETATM    8  C   UNL     1     -43.254  60.425 -51.407  1.00  0.00     0.020 A 
HETATM    9  C   UNL     1     -44.163  59.372 -51.548  1.00  0.00     0.034 A 
HETATM   10  C   UNL     1     -43.710  58.058 -51.431  1.00  0.00     0.049 A 
BRANCH   6  11
HETATM   11  O   UNL     1     -40.162  58.487 -50.702  1.00  0.00    -0.354 OA
HETATM   12  C   UNL     1     -39.198  59.532 -50.656  1.00  0.00     0.210 C 
ENDBRANCH   6  11
BRANCH   9  13
HETATM   13  C   UNL     1     -45.563  59.684 -51.927  1.00  0.00     0.251 C 
HETATM   14  N   UNL     1     -45.902  59.976 -53.225  1.00  0.00    -0.361 N 
HETATM   15  C   UNL     1     -45.124  59.813 -54.435  1.00  0.00     0.149 C 
HETATM   16  H   UNL     1     -46.881  60.212 -53.329  1.00  0.00     0.162 HD
HETATM   17  O   UNL     1     -46.434  59.678 -51.060  1.00  0.00    -0.268 OA
ENDBRANCH   9  13
ENDBRANCH   2   5
BRANCH   1  18
HETATM   18  C   UNL     1     -41.467  54.223 -51.586  1.00  0.00     0.076 C 
HETATM   19  C   UNL     1     -41.260  53.433 -50.437  1.00  0.00     0.158 C 
HETATM   20  N   UNL     1     -40.454  52.396 -50.663  1.00  0.00    -0.183 NA
HETATM   21  N   UNL     1     -40.207  52.466 -51.989  1.00  0.00    -0.268 N 
HETATM   22  C   UNL     1     -40.699  53.616 -52.570  1.00  0.00     0.052 C 
BRANCH  21  23
HETATM   23  C   UNL     1     -39.530  51.350 -52.647  1.00  0.00     0.106 C 
HETATM   24  C   UNL     1     -39.385  50.169 -51.688  1.00  0.00     0.034 C 
BRANCH  23  25
HETATM   25  C   UNL     1     -40.214  50.919 -53.960  1.00  0.00     0.022 C 
HETATM   26  C   UNL     1     -39.548  49.711 -54.608  1.00  0.00     0.007 C 
ENDBRANCH  23  25
ENDBRANCH  21  23
BRANCH  22  27
HETATM   27  C   UNL     1     -40.424  54.060 -54.009  1.00  0.00     0.038 A 
HETATM   28  C   UNL     1     -41.546  54.476 -54.930  1.00  0.00     0.011 A 
HETATM   29  C   UNL     1     -40.622  55.512 -54.389  1.00  0.00     0.011 A 
ENDBRANCH  22  27
ENDBRANCH   1  18
TORSDOF 7
ENDMDL
MODEL 10
REMARK VINA RESULT:      -7.0      2.584      7.691
REMARK  7 active torsions:
REMARK  status: ('A' for Active; 'I' for Inactive)
REMARK    1  A    between atoms: C_2  and  C_3 
REMARK    2  A    between atoms: C_3  and  N_4 
REMARK    3  A    between atoms: C_7  and  C_8 
REMARK       I    between atoms: C_8  and  N_9 
REMARK    4  A    between atoms: N_9  and  C_10 
REMARK    5  A    between atoms: C_11  and  O_12 
REMARK    6  A    between atoms: C_16  and  C_17 
REMARK       I    between atoms: C_17  and  N_18 
REMARK    7  A    between atoms: C_23  and  C_24 
ROOT
HETATM    1  C   UNL     1     -42.319  56.487 -51.710  1.00  0.00     0.259 C 
HETATM    2  N   UNL     1     -42.643  55.578 -52.695  1.00  0.00    -0.320 N 
HETATM    3  O   UNL     1     -41.270  56.511 -51.076  1.00  0.00    -0.267 OA
HETATM    4  H   UNL     1     -43.615  55.491 -52.977  1.00  0.00     0.169 HD
ENDROOT
BRANCH   2   5
HETATM    5  C   UNL     1     -41.742  54.701 -53.343  1.00  0.00     0.069 A 
HETATM    6  C   UNL     1     -41.337  55.013 -54.655  1.00  0.00     0.095 A 
HETATM    7  C   UNL     1     -40.423  54.178 -55.307  1.00  0.00     0.040 A 
HETATM    8  C   UNL     1     -39.919  53.044 -54.661  1.00  0.00     0.020 A 
HETATM    9  C   UNL     1     -40.320  52.734 -53.358  1.00  0.00     0.034 A 
HETATM   10  C   UNL     1     -41.207  53.583 -52.696  1.00  0.00     0.049 A 
BRANCH   6  11
HETATM   11  O   UNL     1     -41.887  56.152 -55.194  1.00  0.00    -0.354 OA
HETATM   12  C   UNL     1     -42.665  55.993 -56.374  1.00  0.00     0.210 C 
ENDBRANCH   6  11
BRANCH   9  13
HETATM   13  C   UNL     1     -39.703  51.568 -52.680  1.00  0.00     0.251 C 
HETATM   14  N   UNL     1     -39.777  50.308 -53.221  1.00  0.00    -0.361 N 
HETATM   15  C   UNL     1     -40.191  49.901 -54.547  1.00  0.00     0.149 C 
HETATM   16  H   UNL     1     -39.351  49.603 -52.629  1.00  0.00     0.162 HD
HETATM   17  O   UNL     1     -39.113  51.736 -51.615  1.00  0.00    -0.268 OA
ENDBRANCH   9  13
ENDBRANCH   2   5
BRANCH   1  18
HETATM   18  C   UNL     1     -43.367  57.445 -51.446  1.00  0.00     0.076 C 
HETATM   19  C   UNL     1     -44.668  57.165 -50.981  1.00  0.00     0.158 C 
HETATM   20  N   UNL     1     -45.386  58.267 -50.766  1.00  0.00    -0.183 NA
HETATM   21  N   UNL     1     -44.514  59.270 -51.011  1.00  0.00    -0.268 N 
HETATM   22  C   UNL     1     -43.319  58.829 -51.537  1.00  0.00     0.052 C 
BRANCH  21  23
HETATM   23  C   UNL     1     -44.887  60.638 -50.658  1.00  0.00     0.106 C 
HETATM   24  C   UNL     1     -43.853  61.252 -49.715  1.00  0.00     0.034 C 
BRANCH  23  25
HETATM   25  C   UNL     1     -45.117  61.537 -51.891  1.00  0.00     0.022 C 
HETATM   26  C   UNL     1     -46.212  61.013 -52.812  1.00  0.00     0.007 C 
ENDBRANCH  23  25
ENDBRANCH  21  23
BRANCH  22  27
HETATM   27  C   UNL     1     -42.211  59.735 -52.079  1.00  0.00     0.038 A 
HETATM   28  C   UNL     1     -41.275  59.267 -53.167  1.00  0.00     0.011 A 
HETATM   29  C   UNL     1     -42.318  60.281 -53.488  1.00  0.00     0.011 A 
ENDBRANCH  22  27
ENDBRANCH   1  18
TORSDOF 7
ENDMDL
