MODEL 1
REMARK VINA RESULT:      -6.8      0.000      0.000
REMARK  5 active torsions:
REMARK  status: ('A' for Active; 'I' for Inactive)
REMARK    1  A    between atoms: C_2  and  C_3 
REMARK    2  A    between atoms: C_3  and  N_4 
REMARK    3  A    between atoms: C_3  and  C_14 
REMARK       I    between atoms: N_4  and  C_5 
REMARK    4  A    between atoms: C_5  and  C_6 
REMARK    5  A    between atoms: C_17  and  O_18 
ROOT
HETATM    1  C   UNL     1     -41.577  56.112 -54.129  1.00  0.00     0.117 C 
ENDROOT
BRANCH   1   2
HETATM    2  C   UNL     1     -40.640  57.206 -53.577  1.00  0.00     0.025 C 
HETATM    3  C   UNL     1     -41.278  58.052 -52.483  1.00  0.00     0.007 C 
ENDBRANCH   1   2
BRANCH   1   4
HETATM    4  N   UNL     1     -41.762  56.234 -55.571  1.00  0.00    -0.348 N 
HETATM    5  C   UNL     1     -42.753  57.014 -56.122  1.00  0.00     0.253 C 
HETATM    6  O   UNL     1     -43.548  57.671 -55.460  1.00  0.00    -0.268 OA
HETATM    7  H   UNL     1     -41.242  55.593 -56.150  1.00  0.00     0.163 HD
BRANCH   5   8
HETATM    8  C   UNL     1     -42.855  57.014 -57.601  1.00  0.00     0.050 A 
HETATM    9  C   UNL     1     -42.078  57.918 -58.321  1.00  0.00     0.133 A 
HETATM   10  N   UNL     1     -42.087  58.015 -59.674  1.00  0.00    -0.271 NA
HETATM   11  C   UNL     1     -42.898  57.159 -60.338  1.00  0.00     0.135 A 
HETATM   12  C   UNL     1     -43.693  56.213 -59.707  1.00  0.00     0.029 A 
HETATM   13 BR   UNL     1     -44.783  55.048 -60.713  1.00  0.00    -0.050 Br
HETATM   14  C   UNL     1     -43.671  56.133 -58.317  1.00  0.00     0.039 A 
ENDBRANCH   5   8
ENDBRANCH   1   4
BRANCH   1  15
HETATM   15  C   UNL     1     -41.054  54.715 -53.825  1.00  0.00    -0.035 A 
HETATM   16  C   UNL     1     -40.583  53.907 -54.869  1.00  0.00     0.012 A 
HETATM   17  C   UNL     1     -40.070  52.633 -54.607  1.00  0.00     0.037 A 
HETATM   18  C   UNL     1     -40.005  52.145 -53.301  1.00  0.00     0.068 A 
HETATM   19  C   UNL     1     -40.468  52.941 -52.255  1.00  0.00     0.037 A 
HETATM   20  C   UNL     1     -40.986  54.215 -52.514  1.00  0.00     0.012 A 
BRANCH  18  21
HETATM   21  O   UNL     1     -39.473  50.891 -53.185  1.00  0.00    -0.356 OA
HETATM   22  C   UNL     1     -39.835  49.944 -54.183  1.00  0.00     0.210 C 
ENDBRANCH  18  21
ENDBRANCH   1  15
TORSDOF 5
ENDMDL
MODEL 2
REMARK VINA RESULT:      -6.8      1.765      2.056
REMARK  5 active torsions:
REMARK  status: ('A' for Active; 'I' for Inactive)
REMARK    1  A    between atoms: C_2  and  C_3 
REMARK    2  A    between atoms: C_3  and  N_4 
REMARK    3  A    between atoms: C_3  and  C_14 
REMARK       I    between atoms: N_4  and  C_5 
REMARK    4  A    between atoms: C_5  and  C_6 
REMARK    5  A    between atoms: C_17  and  O_18 
ROOT
HETATM    1  C   UNL     1     -42.343  55.536 -52.763  1.00  0.00     0.117 C 
ENDROOT
BRANCH   1   2
HETATM    2  C   UNL     1     -42.063  56.230 -51.414  1.00  0.00     0.025 C 
HETATM    3  C   UNL     1     -41.193  57.474 -51.544  1.00  0.00     0.007 C 
ENDBRANCH   1   2
BRANCH   1   4
HETATM    4  N   UNL     1     -42.062  56.416 -53.893  1.00  0.00    -0.348 N 
HETATM    5  C   UNL     1     -43.053  56.883 -54.726  1.00  0.00     0.253 C 
HETATM    6  O   UNL     1     -44.240  56.613 -54.588  1.00  0.00    -0.268 OA
HETATM    7  H   UNL     1     -41.092  56.535 -54.143  1.00  0.00     0.163 HD
BRANCH   5   8
HETATM    8  C   UNL     1     -42.622  57.735 -55.860  1.00  0.00     0.050 A 
HETATM    9  C   UNL     1     -42.228  59.043 -55.596  1.00  0.00     0.133 A 
HETATM   10  N   UNL     1     -41.817  59.918 -56.549  1.00  0.00    -0.271 NA
HETATM   11  C   UNL     1     -41.785  59.457 -57.821  1.00  0.00     0.135 A 
HETATM   12  C   UNL     1     -42.142  58.164 -58.176  1.00  0.00     0.029 A 
HETATM   13 BR   UNL     1     -42.052  57.601 -59.974  1.00  0.00    -0.050 Br
HETATM   14  C   UNL     1     -42.563  57.284 -57.183  1.00  0.00     0.039 A 
ENDBRANCH   5   8
ENDBRANCH   1   4
BRANCH   1  15
HETATM   15  C   UNL     1     -41.523  54.264 -52.925  1.00  0.00    -0.035 A 
HETATM   16  C   UNL     1     -41.378  53.688 -54.194  1.00  0.00     0.012 A 
HETATM   17  C   UNL     1     -40.603  52.537 -54.370  1.00  0.00     0.037 A 
HETATM   18  C   UNL     1     -39.949  51.946 -53.288  1.00  0.00     0.068 A 
HETATM   19  C   UNL     1     -40.084  52.512 -52.021  1.00  0.00     0.037 A 
HETATM   20  C   UNL     1     -40.862  53.662 -51.842  1.00  0.00     0.012 A 
BRANCH  18  21
HETATM   21  O   UNL     1     -39.219  50.833 -53.599  1.00  0.00    -0.356 OA
HETATM   22  C   UNL     1     -39.846  49.864 -54.430  1.00  0.00     0.210 C 
ENDBRANCH  18  21
ENDBRANCH   1  15
TORSDOF 5
ENDMDL
MODEL 3
REMARK VINA RESULT:      -6.8      1.332      1.554
REMARK  5 active torsions:
REMARK  status: ('A' for Active; 'I' for Inactive)
REMARK    1  A    between atoms: C_2  and  C_3 
REMARK    2  A    between atoms: C_3  and  N_4 
REMARK    3  A    between atoms: C_3  and  C_14 
REMARK       I    between atoms: N_4  and  C_5 
REMARK    4  A    between atoms: C_5  and  C_6 
REMARK    5  A    between atoms: C_17  and  O_18 
ROOT
HETATM    1  C   UNL     1     -41.643  56.115 -53.978  1.00  0.00     0.117 C 
ENDROOT
BRANCH   1   2
HETATM    2  C   UNL     1     -40.764  57.206 -53.332  1.00  0.00     0.025 C 
HETATM    3  C   UNL     1     -41.457  57.944 -52.194  1.00  0.00     0.007 C 
ENDBRANCH   1   2
BRANCH   1   4
HETATM    4  N   UNL     1     -41.745  56.286 -55.423  1.00  0.00    -0.348 N 
HETATM    5  C   UNL     1     -42.900  56.723 -56.032  1.00  0.00     0.253 C 
HETATM    6  O   UNL     1     -43.922  57.011 -55.422  1.00  0.00    -0.268 OA
HETATM    7  H   UNL     1     -40.990  55.912 -55.978  1.00  0.00     0.163 HD
BRANCH   5   8
HETATM    8  C   UNL     1     -42.878  56.812 -57.512  1.00  0.00     0.050 A 
HETATM    9  C   UNL     1     -43.240  55.689 -58.251  1.00  0.00     0.133 A 
HETATM   10  N   UNL     1     -43.256  55.647 -59.607  1.00  0.00    -0.271 NA
HETATM   11  C   UNL     1     -42.909  56.785 -60.253  1.00  0.00     0.135 A 
HETATM   12  C   UNL     1     -42.552  57.956 -59.601  1.00  0.00     0.029 A 
HETATM   13 BR   UNL     1     -42.096  59.502 -60.581  1.00  0.00    -0.050 Br
HETATM   14  C   UNL     1     -42.539  57.976 -58.208  1.00  0.00     0.039 A 
ENDBRANCH   5   8
ENDBRANCH   1   4
BRANCH   1  15
HETATM   15  C   UNL     1     -41.109  54.718 -53.693  1.00  0.00    -0.035 A 
HETATM   16  C   UNL     1     -40.707  53.898 -54.756  1.00  0.00     0.012 A 
HETATM   17  C   UNL     1     -40.185  52.624 -54.514  1.00  0.00     0.037 A 
HETATM   18  C   UNL     1     -40.041  52.148 -53.210  1.00  0.00     0.068 A 
HETATM   19  C   UNL     1     -40.434  52.956 -52.145  1.00  0.00     0.037 A 
HETATM   20  C   UNL     1     -40.962  54.231 -52.384  1.00  0.00     0.012 A 
BRANCH  18  21
HETATM   21  O   UNL     1     -39.509  50.892 -53.114  1.00  0.00    -0.356 OA
HETATM   22  C   UNL     1     -39.754  50.006 -54.199  1.00  0.00     0.210 C 
ENDBRANCH  18  21
ENDBRANCH   1  15
TORSDOF 5
ENDMDL
MODEL 4
REMARK VINA RESULT:      -6.7      3.465      5.083
REMARK  5 active torsions:
REMARK  status: ('A' for Active; 'I' for Inactive)
REMARK    1  A    between atoms: C_2  and  C_3 
REMARK    2  A    between atoms: C_3  and  N_4 
REMARK    3  A    between atoms: C_3  and  C_14 
REMARK       I    between atoms: N_4  and  C_5 
REMARK    4  A    between atoms: C_5  and  C_6 
REMARK    5  A    between atoms: C_17  and  O_18 
ROOT
HETATM    1  C   UNL     1     -40.998  55.205 -54.248  1.00  0.00     0.117 C 
ENDROOT
BRANCH   1   2
HETATM    2  C   UNL     1     -41.324  54.855 -55.714  1.00  0.00     0.025 C 
HETATM    3  C   UNL     1     -42.818  54.735 -55.989  1.00  0.00     0.007 C 
ENDBRANCH   1   2
BRANCH   1   4
HETATM    4  N   UNL     1     -42.131  55.833 -53.577  1.00  0.00    -0.348 N 
HETATM    5  C   UNL     1     -42.148  57.173 -53.262  1.00  0.00     0.253 C 
HETATM    6  O   UNL     1     -41.234  57.945 -53.524  1.00  0.00    -0.268 OA
HETATM    7  H   UNL     1     -42.833  55.216 -53.199  1.00  0.00     0.163 HD
BRANCH   5   8
HETATM    8  C   UNL     1     -43.345  57.672 -52.542  1.00  0.00     0.050 A 
HETATM    9  C   UNL     1     -43.813  56.948 -51.450  1.00  0.00     0.133 A 
HETATM   10  N   UNL     1     -44.899  57.301 -50.715  1.00  0.00    -0.271 NA
HETATM   11  C   UNL     1     -45.535  58.438 -51.082  1.00  0.00     0.135 A 
HETATM   12  C   UNL     1     -45.130  59.233 -52.144  1.00  0.00     0.029 A 
HETATM   13 BR   UNL     1     -46.067  60.811 -52.576  1.00  0.00    -0.050 Br
HETATM   14  C   UNL     1     -44.015  58.850 -52.886  1.00  0.00     0.039 A 
ENDBRANCH   5   8
ENDBRANCH   1   4
BRANCH   1  15
HETATM   15  C   UNL     1     -40.586  53.974 -53.452  1.00  0.00    -0.035 A 
HETATM   16  C   UNL     1     -40.238  52.796 -54.125  1.00  0.00     0.012 A 
HETATM   17  C   UNL     1     -39.826  51.665 -53.414  1.00  0.00     0.037 A 
HETATM   18  C   UNL     1     -39.742  51.690 -52.021  1.00  0.00     0.068 A 
HETATM   19  C   UNL     1     -40.083  52.857 -51.341  1.00  0.00     0.037 A 
HETATM   20  C   UNL     1     -40.499  53.991 -52.050  1.00  0.00     0.012 A 
BRANCH  18  21
HETATM   21  O   UNL     1     -39.317  50.521 -51.453  1.00  0.00    -0.356 OA
HETATM   22  C   UNL     1     -39.571  49.324 -52.177  1.00  0.00     0.210 C 
ENDBRANCH  18  21
ENDBRANCH   1  15
TORSDOF 5
ENDMDL
MODEL 5
REMARK VINA RESULT:      -6.6      4.099      5.671
REMARK  5 active torsions:
REMARK  status: ('A' for Active; 'I' for Inactive)
REMARK    1  A    between atoms: C_2  and  C_3 
REMARK    2  A    between atoms: C_3  and  N_4 
REMARK    3  A    between atoms: C_3  and  C_14 
REMARK       I    between atoms: N_4  and  C_5 
REMARK    4  A    between atoms: C_5  and  C_6 
REMARK    5  A    between atoms: C_17  and  O_18 
ROOT
HETATM    1  C   UNL     1     -41.321  54.798 -54.476  1.00  0.00     0.117 C 
ENDROOT
BRANCH   1   2
HETATM    2  C   UNL     1     -42.733  54.560 -55.049  1.00  0.00     0.025 C 
HETATM    3  C   UNL     1     -43.831  54.623 -53.995  1.00  0.00     0.007 C 
ENDBRANCH   1   2
BRANCH   1   4
HETATM    4  N   UNL     1     -41.319  55.841 -53.456  1.00  0.00    -0.348 N 
HETATM    5  C   UNL     1     -41.479  57.173 -53.766  1.00  0.00     0.253 C 
HETATM    6  O   UNL     1     -41.644  57.590 -54.905  1.00  0.00    -0.268 OA
HETATM    7  H   UNL     1     -41.028  55.568 -52.530  1.00  0.00     0.163 HD
BRANCH   5   8
HETATM    8  C   UNL     1     -41.414  58.130 -52.636  1.00  0.00     0.050 A 
HETATM    9  C   UNL     1     -42.602  58.675 -52.157  1.00  0.00     0.133 A 
HETATM   10  N   UNL     1     -42.671  59.563 -51.133  1.00  0.00    -0.271 NA
HETATM   11  C   UNL     1     -41.499  59.908 -50.551  1.00  0.00     0.135 A 
HETATM   12  C   UNL     1     -40.269  59.403 -50.948  1.00  0.00     0.029 A 
HETATM   13 BR   UNL     1     -38.685  59.929 -50.070  1.00  0.00    -0.050 Br
HETATM   14  C   UNL     1     -40.222  58.496 -52.003  1.00  0.00     0.039 A 
ENDBRANCH   5   8
ENDBRANCH   1   4
BRANCH   1  15
HETATM   15  C   UNL     1     -40.736  53.529 -53.872  1.00  0.00    -0.035 A 
HETATM   16  C   UNL     1     -40.500  53.462 -52.492  1.00  0.00     0.012 A 
HETATM   17  C   UNL     1     -39.993  52.295 -51.913  1.00  0.00     0.037 A 
HETATM   18  C   UNL     1     -39.723  51.170 -52.694  1.00  0.00     0.068 A 
HETATM   19  C   UNL     1     -39.956  51.225 -54.066  1.00  0.00     0.037 A 
HETATM   20  C   UNL     1     -40.460  52.393 -54.650  1.00  0.00     0.012 A 
BRANCH  18  21
HETATM   21  O   UNL     1     -39.240  50.095 -52.001  1.00  0.00    -0.356 OA
HETATM   22  C   UNL     1     -39.713  49.921 -50.671  1.00  0.00     0.210 C 
ENDBRANCH  18  21
ENDBRANCH   1  15
TORSDOF 5
ENDMDL
MODEL 6
REMARK VINA RESULT:      -6.5      3.769      5.521
REMARK  5 active torsions:
REMARK  status: ('A' for Active; 'I' for Inactive)
REMARK    1  A    between atoms: C_2  and  C_3 
REMARK    2  A    between atoms: C_3  and  N_4 
REMARK    3  A    between atoms: C_3  and  C_14 
REMARK       I    between atoms: N_4  and  C_5 
REMARK    4  A    between atoms: C_5  and  C_6 
REMARK    5  A    between atoms: C_17  and  O_18 
ROOT
HETATM    1  C   UNL     1     -41.210  55.440 -54.404  1.00  0.00     0.117 C 
ENDROOT
BRANCH   1   2
HETATM    2  C   UNL     1     -42.506  55.200 -55.206  1.00  0.00     0.025 C 
HETATM    3  C   UNL     1     -43.681  54.768 -54.338  1.00  0.00     0.007 C 
ENDBRANCH   1   2
BRANCH   1   4
HETATM    4  N   UNL     1     -41.401  56.430 -53.350  1.00  0.00    -0.348 N 
HETATM    5  C   UNL     1     -41.572  57.769 -53.621  1.00  0.00     0.253 C 
HETATM    6  O   UNL     1     -41.589  58.237 -54.753  1.00  0.00    -0.268 OA
HETATM    7  H   UNL     1     -41.235  56.123 -52.404  1.00  0.00     0.163 HD
BRANCH   5   8
HETATM    8  C   UNL     1     -41.713  58.671 -52.453  1.00  0.00     0.050 A 
HETATM    9  C   UNL     1     -40.618  58.847 -51.612  1.00  0.00     0.133 A 
HETATM   10  N   UNL     1     -40.626  59.642 -50.512  1.00  0.00    -0.271 NA
HETATM   11  C   UNL     1     -41.778  60.303 -50.251  1.00  0.00     0.135 A 
HETATM   12  C   UNL     1     -42.913  60.204 -51.042  1.00  0.00     0.029 A 
HETATM   13 BR   UNL     1     -44.472  61.174 -50.612  1.00  0.00    -0.050 Br
HETATM   14  C   UNL     1     -42.883  59.380 -52.164  1.00  0.00     0.039 A 
ENDBRANCH   5   8
ENDBRANCH   1   4
BRANCH   1  15
HETATM   15  C   UNL     1     -40.690  54.156 -53.773  1.00  0.00    -0.035 A 
HETATM   16  C   UNL     1     -40.579  54.063 -52.379  1.00  0.00     0.012 A 
HETATM   17  C   UNL     1     -40.134  52.881 -51.778  1.00  0.00     0.037 A 
HETATM   18  C   UNL     1     -39.804  51.768 -52.552  1.00  0.00     0.068 A 
HETATM   19  C   UNL     1     -39.914  51.848 -53.939  1.00  0.00     0.037 A 
HETATM   20  C   UNL     1     -40.355  53.030 -54.544  1.00  0.00     0.012 A 
BRANCH  18  21
HETATM   21  O   UNL     1     -39.392  50.676 -51.838  1.00  0.00    -0.356 OA
HETATM   22  C   UNL     1     -39.567  49.405 -52.450  1.00  0.00     0.210 C 
ENDBRANCH  18  21
ENDBRANCH   1  15
TORSDOF 5
ENDMDL
MODEL 7
REMARK VINA RESULT:      -6.5      3.128      6.848
REMARK  5 active torsions:
REMARK  status: ('A' for Active; 'I' for Inactive)
REMARK    1  A    between atoms: C_2  and  C_3 
REMARK    2  A    between atoms: C_3  and  N_4 
REMARK    3  A    between atoms: C_3  and  C_14 
REMARK       I    between atoms: N_4  and  C_5 
REMARK    4  A    between atoms: C_5  and  C_6 
REMARK    5  A    between atoms: C_17  and  O_18 
ROOT
HETATM    1  C   UNL     1     -42.916  56.602 -54.684  1.00  0.00     0.117 C 
ENDROOT
BRANCH   1   2
HETATM    2  C   UNL     1     -44.267  56.840 -53.979  1.00  0.00     0.025 C 
HETATM    3  C   UNL     1     -44.332  58.166 -53.231  1.00  0.00     0.007 C 
ENDBRANCH   1   2
BRANCH   1   4
HETATM    4  N   UNL     1     -42.272  55.378 -54.221  1.00  0.00    -0.348 N 
HETATM    5  C   UNL     1     -41.452  55.351 -53.116  1.00  0.00     0.253 C 
HETATM    6  O   UNL     1     -41.203  56.335 -52.430  1.00  0.00    -0.268 OA
HETATM    7  H   UNL     1     -42.315  54.582 -54.839  1.00  0.00     0.163 HD
BRANCH   5   8
HETATM    8  C   UNL     1     -40.829  54.048 -52.781  1.00  0.00     0.050 A 
HETATM    9  C   UNL     1     -40.348  53.853 -51.490  1.00  0.00     0.133 A 
HETATM   10  N   UNL     1     -39.756  52.707 -51.066  1.00  0.00    -0.271 NA
HETATM   11  C   UNL     1     -39.655  51.707 -51.971  1.00  0.00     0.135 A 
HETATM   12  C   UNL     1     -40.122  51.803 -53.274  1.00  0.00     0.029 A 
HETATM   13 BR   UNL     1     -39.953  50.352 -54.467  1.00  0.00    -0.050 Br
HETATM   14  C   UNL     1     -40.723  52.989 -53.689  1.00  0.00     0.039 A 
ENDBRANCH   5   8
ENDBRANCH   1   4
BRANCH   1  15
HETATM   15  C   UNL     1     -43.074  56.523 -56.196  1.00  0.00    -0.035 A 
HETATM   16  C   UNL     1     -43.017  55.278 -56.836  1.00  0.00     0.012 A 
HETATM   17  C   UNL     1     -43.190  55.180 -58.220  1.00  0.00     0.037 A 
HETATM   18  C   UNL     1     -43.436  56.318 -58.990  1.00  0.00     0.068 A 
HETATM   19  C   UNL     1     -43.498  57.562 -58.364  1.00  0.00     0.037 A 
HETATM   20  C   UNL     1     -43.321  57.663 -56.979  1.00  0.00     0.012 A 
BRANCH  18  21
HETATM   21  O   UNL     1     -43.596  56.081 -60.327  1.00  0.00    -0.356 OA
HETATM   22  C   UNL     1     -44.618  55.166 -60.700  1.00  0.00     0.210 C 
ENDBRANCH  18  21
ENDBRANCH   1  15
TORSDOF 5
ENDMDL
MODEL 8
REMARK VINA RESULT:      -6.3     15.397     17.278
REMARK  5 active torsions:
REMARK  status: ('A' for Active; 'I' for Inactive)
REMARK    1  A    between atoms: C_2  and  C_3 
REMARK    2  A    between atoms: C_3  and  N_4 
REMARK    3  A    between atoms: C_3  and  C_14 
REMARK       I    between atoms: N_4  and  C_5 
REMARK    4  A    between atoms: C_5  and  C_6 
REMARK    5  A    between atoms: C_17  and  O_18 
ROOT
HETATM    1  C   UNL     1     -37.130  41.683 -53.390  1.00  0.00     0.117 C 
ENDROOT
BRANCH   1   2
HETATM    2  C   UNL     1     -38.451  41.081 -52.869  1.00  0.00     0.025 C 
HETATM    3  C   UNL     1     -38.246  39.935 -51.886  1.00  0.00     0.007 C 
ENDBRANCH   1   2
BRANCH   1   4
HETATM    4  N   UNL     1     -35.968  40.966 -52.876  1.00  0.00    -0.348 N 
HETATM    5  C   UNL     1     -34.979  41.591 -52.150  1.00  0.00     0.253 C 
HETATM    6  O   UNL     1     -34.994  42.783 -51.869  1.00  0.00    -0.268 OA
HETATM    7  H   UNL     1     -35.829  40.027 -53.216  1.00  0.00     0.163 HD
BRANCH   5   8
HETATM    8  C   UNL     1     -33.834  40.751 -51.725  1.00  0.00     0.050 A 
HETATM    9  C   UNL     1     -33.130  40.046 -52.697  1.00  0.00     0.133 A 
HETATM   10  N   UNL     1     -32.069  39.242 -52.432  1.00  0.00    -0.271 NA
HETATM   11  C   UNL     1     -31.685  39.154 -51.137  1.00  0.00     0.135 A 
HETATM   12  C   UNL     1     -32.314  39.835 -50.104  1.00  0.00     0.029 A 
HETATM   13 BR   UNL     1     -31.702  39.665 -48.328  1.00  0.00    -0.050 Br
HETATM   14  C   UNL     1     -33.403  40.650 -50.399  1.00  0.00     0.039 A 
ENDBRANCH   5   8
ENDBRANCH   1   4
BRANCH   1  15
HETATM   15  C   UNL     1     -37.068  41.678 -54.911  1.00  0.00    -0.035 A 
HETATM   16  C   UNL     1     -35.936  42.187 -55.562  1.00  0.00     0.012 A 
HETATM   17  C   UNL     1     -35.846  42.163 -56.957  1.00  0.00     0.037 A 
HETATM   18  C   UNL     1     -36.874  41.619 -57.728  1.00  0.00     0.068 A 
HETATM   19  C   UNL     1     -38.003  41.107 -57.092  1.00  0.00     0.037 A 
HETATM   20  C   UNL     1     -38.098  41.133 -55.696  1.00  0.00     0.012 A 
BRANCH  18  21
HETATM   21  O   UNL     1     -36.654  41.650 -59.078  1.00  0.00    -0.356 OA
HETATM   22  C   UNL     1     -37.312  40.660 -59.859  1.00  0.00     0.210 C 
ENDBRANCH  18  21
ENDBRANCH   1  15
TORSDOF 5
ENDMDL
MODEL 9
REMARK VINA RESULT:      -6.2     15.234     17.210
REMARK  5 active torsions:
REMARK  status: ('A' for Active; 'I' for Inactive)
REMARK    1  A    between atoms: C_2  and  C_3 
REMARK    2  A    between atoms: C_3  and  N_4 
REMARK    3  A    between atoms: C_3  and  C_14 
REMARK       I    between atoms: N_4  and  C_5 
REMARK    4  A    between atoms: C_5  and  C_6 
REMARK    5  A    between atoms: C_17  and  O_18 
ROOT
HETATM    1  C   UNL     1     -37.487  41.525 -56.135  1.00  0.00     0.117 C 
ENDROOT
BRANCH   1   2
HETATM    2  C   UNL     1     -38.755  41.221 -55.312  1.00  0.00     0.025 C 
HETATM    3  C   UNL     1     -38.483  41.061 -53.821  1.00  0.00     0.007 C 
ENDBRANCH   1   2
BRANCH   1   4
HETATM    4  N   UNL     1     -36.292  40.959 -55.519  1.00  0.00    -0.348 N 
HETATM    5  C   UNL     1     -35.098  41.641 -55.467  1.00  0.00     0.253 C 
HETATM    6  O   UNL     1     -34.939  42.769 -55.917  1.00  0.00    -0.268 OA
HETATM    7  H   UNL     1     -36.327  39.979 -55.281  1.00  0.00     0.163 HD
BRANCH   5   8
HETATM    8  C   UNL     1     -33.953  40.930 -54.850  1.00  0.00     0.050 A 
HETATM    9  C   UNL     1     -32.849  40.632 -55.643  1.00  0.00     0.133 A 
HETATM   10  N   UNL     1     -31.744  39.983 -55.194  1.00  0.00    -0.271 NA
HETATM   11  C   UNL     1     -31.739  39.630 -53.887  1.00  0.00     0.135 A 
HETATM   12  C   UNL     1     -32.785  39.901 -53.017  1.00  0.00     0.029 A 
HETATM   13 BR   UNL     1     -32.686  39.386 -51.205  1.00  0.00    -0.050 Br
HETATM   14  C   UNL     1     -33.910  40.565 -53.500  1.00  0.00     0.039 A 
ENDBRANCH   5   8
ENDBRANCH   1   4
BRANCH   1  15
HETATM   15  C   UNL     1     -37.597  40.993 -57.558  1.00  0.00    -0.035 A 
HETATM   16  C   UNL     1     -37.179  41.790 -58.631  1.00  0.00     0.012 A 
HETATM   17  C   UNL     1     -37.241  41.309 -59.943  1.00  0.00     0.037 A 
HETATM   18  C   UNL     1     -37.709  40.021 -60.207  1.00  0.00     0.068 A 
HETATM   19  C   UNL     1     -38.124  39.218 -59.147  1.00  0.00     0.037 A 
HETATM   20  C   UNL     1     -38.067  39.698 -57.834  1.00  0.00     0.012 A 
BRANCH  18  21
HETATM   21  O   UNL     1     -37.709  39.673 -61.530  1.00  0.00    -0.356 OA
HETATM   22  C   UNL     1     -36.819  38.636 -61.922  1.00  0.00     0.210 C 
ENDBRANCH  18  21
ENDBRANCH   1  15
TORSDOF 5
ENDMDL
MODEL 10
REMARK VINA RESULT:      -6.1      3.296      7.026
REMARK  5 active torsions:
REMARK  status: ('A' for Active; 'I' for Inactive)
REMARK    1  A    between atoms: C_2  and  C_3 
REMARK    2  A    between atoms: C_3  and  N_4 
REMARK    3  A    between atoms: C_3  and  C_14 
REMARK       I    between atoms: N_4  and  C_5 
REMARK    4  A    between atoms: C_5  and  C_6 
REMARK    5  A    between atoms: C_17  and  O_18 
ROOT
HETATM    1  C   UNL     1     -43.027  57.387 -53.633  1.00  0.00     0.117 C 
ENDROOT
BRANCH   1   2
HETATM    2  C   UNL     1     -44.523  57.440 -53.259  1.00  0.00     0.025 C 
HETATM    3  C   UNL     1     -44.766  57.709 -51.779  1.00  0.00     0.007 C 
ENDBRANCH   1   2
BRANCH   1   4
HETATM    4  N   UNL     1     -42.428  56.102 -53.288  1.00  0.00    -0.348 N 
HETATM    5  C   UNL     1     -41.508  55.968 -52.272  1.00  0.00     0.253 C 
HETATM    6  O   UNL     1     -41.127  56.900 -51.573  1.00  0.00    -0.268 OA
HETATM    7  H   UNL     1     -42.585  55.342 -53.931  1.00  0.00     0.163 HD
BRANCH   5   8
HETATM    8  C   UNL     1     -40.948  54.613 -52.056  1.00  0.00     0.050 A 
HETATM    9  C   UNL     1     -40.588  54.240 -50.765  1.00  0.00     0.133 A 
HETATM   10  N   UNL     1     -40.063  53.030 -50.443  1.00  0.00    -0.271 NA
HETATM   11  C   UNL     1     -39.905  52.149 -51.458  1.00  0.00     0.135 A 
HETATM   12  C   UNL     1     -40.253  52.425 -52.772  1.00  0.00     0.029 A 
HETATM   13 BR   UNL     1     -40.014  51.131 -54.123  1.00  0.00    -0.050 Br
HETATM   14  C   UNL     1     -40.787  53.674 -53.080  1.00  0.00     0.039 A 
ENDBRANCH   5   8
ENDBRANCH   1   4
BRANCH   1  15
HETATM   15  C   UNL     1     -42.806  57.640 -55.118  1.00  0.00    -0.035 A 
HETATM   16  C   UNL     1     -42.379  58.902 -55.551  1.00  0.00     0.012 A 
HETATM   17  C   UNL     1     -42.140  59.146 -56.907  1.00  0.00     0.037 A 
HETATM   18  C   UNL     1     -42.310  58.136 -57.854  1.00  0.00     0.068 A 
HETATM   19  C   UNL     1     -42.732  56.876 -57.434  1.00  0.00     0.037 A 
HETATM   20  C   UNL     1     -42.976  56.629 -56.078  1.00  0.00     0.012 A 
BRANCH  18  21
HETATM   21  O   UNL     1     -42.034  58.506 -59.141  1.00  0.00    -0.356 OA
HETATM   22  C   UNL     1     -41.988  57.468 -60.112  1.00  0.00     0.210 C 
ENDBRANCH  18  21
ENDBRANCH   1  15
TORSDOF 5
ENDMDL
