MODEL 1
REMARK VINA RESULT:      -8.0      0.000      0.000
REMARK  3 active torsions:
REMARK  status: ('A' for Active; 'I' for Inactive)
REMARK    1  A    between atoms: N_2  and  C_5 
REMARK    2  A    between atoms: C_5  and  C_6 
REMARK       I    between atoms: C_6  and  N_7 
REMARK    3  A    between atoms: N_7  and  C_8 
ROOT
HETATM    1  C   UNL     1     -43.265  56.100 -57.224  1.00  0.00     0.036 A 
HETATM    2  C   UNL     1     -42.424  55.089 -56.753  1.00  0.00     0.059 A 
HETATM    3  C   UNL     1     -41.672  55.232 -55.570  1.00  0.00     0.041 A 
HETATM    4  C   UNL     1     -41.772  56.429 -54.855  1.00  0.00    -0.031 A 
HETATM    5  C   UNL     1     -41.003  56.632 -53.579  1.00  0.00     0.045 C 
HETATM    6  C   UNL     1     -41.447  55.643 -52.508  1.00  0.00     0.045 C 
HETATM    7  C   UNL     1     -40.848  54.263 -52.635  1.00  0.00    -0.031 A 
HETATM    8  C   UNL     1     -40.605  53.615 -53.857  1.00  0.00     0.039 A 
HETATM    9  N   UNL     1     -40.940  54.115 -55.131  1.00  0.00    -0.355 N 
HETATM   10  C   UNL     1     -40.561  53.587 -51.429  1.00  0.00     0.009 A 
HETATM   11  C   UNL     1     -40.002  52.311 -51.422  1.00  0.00     0.001 A 
HETATM   12  C   UNL     1     -39.716  51.686 -52.625  1.00  0.00     0.002 A 
HETATM   13  C   UNL     1     -40.015  52.332 -53.823  1.00  0.00     0.030 A 
HETATM   14  C   UNL     1     -42.588  57.463 -55.343  1.00  0.00     0.012 A 
HETATM   15  C   UNL     1     -43.331  57.298 -56.512  1.00  0.00     0.030 A 
HETATM   16  H   UNL     1     -40.715  53.470 -55.879  1.00  0.00     0.166 HD
ENDROOT
BRANCH   1  17
HETATM   17  N   UNL     1     -44.107  55.964 -58.352  1.00  0.00    -0.326 N 
HETATM   18  C   UNL     1     -43.704  55.807 -59.660  1.00  0.00     0.247 C 
HETATM   19  O   UNL     1     -42.565  55.912 -60.117  1.00  0.00    -0.271 OA
HETATM   20  H   UNL     1     -45.099  55.986 -58.142  1.00  0.00     0.169 HD
BRANCH  18  21
HETATM   21  C   UNL     1     -44.823  55.425 -60.630  1.00  0.00     0.334 C 
BRANCH  21  22
HETATM   22  N   UNL     1     -46.161  55.452 -59.921  1.00  0.00    -0.071 N 
HETATM   23  C   UNL     1     -47.156  56.394 -60.499  1.00  0.00     0.267 C 
HETATM   24  H   UNL     1     -45.958  55.778 -58.958  1.00  0.00     0.277 HD
HETATM   25  H   UNL     1     -46.557  54.509 -59.843  1.00  0.00     0.277 HD
ENDBRANCH  21  22
ENDBRANCH  18  21
ENDBRANCH   1  17
TORSDOF 3
ENDMDL
MODEL 2
REMARK VINA RESULT:      -7.7      4.764      6.628
REMARK  3 active torsions:
REMARK  status: ('A' for Active; 'I' for Inactive)
REMARK    1  A    between atoms: N_2  and  C_5 
REMARK    2  A    between atoms: C_5  and  C_6 
REMARK       I    between atoms: C_6  and  N_7 
REMARK    3  A    between atoms: N_7  and  C_8 
ROOT
HETATM    1  C   UNL     1     -44.101  57.847 -52.220  1.00  0.00     0.036 A 
HETATM    2  C   UNL     1     -43.418  56.727 -51.739  1.00  0.00     0.059 A 
HETATM    3  C   UNL     1     -43.200  55.585 -52.535  1.00  0.00     0.041 A 
HETATM    4  C   UNL     1     -43.690  55.579 -53.844  1.00  0.00    -0.031 A 
HETATM    5  C   UNL     1     -43.476  54.393 -54.744  1.00  0.00     0.045 C 
HETATM    6  C   UNL     1     -41.993  54.172 -55.014  1.00  0.00     0.045 C 
HETATM    7  C   UNL     1     -41.249  53.456 -53.912  1.00  0.00    -0.031 A 
HETATM    8  C   UNL     1     -41.495  53.641 -52.541  1.00  0.00     0.039 A 
HETATM    9  N   UNL     1     -42.411  54.558 -51.990  1.00  0.00    -0.355 N 
HETATM   10  C   UNL     1     -40.218  52.579 -54.313  1.00  0.00     0.009 A 
HETATM   11  C   UNL     1     -39.468  51.860 -53.386  1.00  0.00     0.001 A 
HETATM   12  C   UNL     1     -39.738  52.002 -52.035  1.00  0.00     0.002 A 
HETATM   13  C   UNL     1     -40.738  52.880 -51.622  1.00  0.00     0.030 A 
HETATM   14  C   UNL     1     -44.410  56.687 -54.320  1.00  0.00     0.012 A 
HETATM   15  C   UNL     1     -44.608  57.812 -53.519  1.00  0.00     0.030 A 
HETATM   16  H   UNL     1     -42.403  54.560 -50.976  1.00  0.00     0.166 HD
ENDROOT
BRANCH   1  17
HETATM   17  N   UNL     1     -44.261  59.046 -51.488  1.00  0.00    -0.326 N 
HETATM   18  C   UNL     1     -45.296  59.351 -50.631  1.00  0.00     0.247 C 
HETATM   19  O   UNL     1     -46.342  58.725 -50.459  1.00  0.00    -0.271 OA
HETATM   20  H   UNL     1     -43.522  59.727 -51.630  1.00  0.00     0.169 HD
BRANCH  18  21
HETATM   21  C   UNL     1     -45.073  60.606 -49.785  1.00  0.00     0.334 C 
BRANCH  21  22
HETATM   22  N   UNL     1     -45.394  60.319 -48.333  1.00  0.00    -0.071 N 
HETATM   23  C   UNL     1     -44.877  61.327 -47.368  1.00  0.00     0.267 C 
HETATM   24  H   UNL     1     -44.923  59.422 -48.115  1.00  0.00     0.277 HD
HETATM   25  H   UNL     1     -46.400  60.173 -48.198  1.00  0.00     0.277 HD
ENDBRANCH  21  22
ENDBRANCH  18  21
ENDBRANCH   1  17
TORSDOF 3
ENDMDL
MODEL 3
REMARK VINA RESULT:      -7.7      3.058      4.485
REMARK  3 active torsions:
REMARK  status: ('A' for Active; 'I' for Inactive)
REMARK    1  A    between atoms: N_2  and  C_5 
REMARK    2  A    between atoms: C_5  and  C_6 
REMARK       I    between atoms: C_6  and  N_7 
REMARK    3  A    between atoms: N_7  and  C_8 
ROOT
HETATM    1  C   UNL     1     -42.834  56.255 -52.324  1.00  0.00     0.036 A 
HETATM    2  C   UNL     1     -42.161  55.268 -53.047  1.00  0.00     0.059 A 
HETATM    3  C   UNL     1     -41.177  54.448 -52.458  1.00  0.00     0.041 A 
HETATM    4  C   UNL     1     -40.868  54.641 -51.108  1.00  0.00    -0.031 A 
HETATM    5  C   UNL     1     -39.836  53.788 -50.423  1.00  0.00     0.045 C 
HETATM    6  C   UNL     1     -40.267  52.327 -50.392  1.00  0.00     0.045 C 
HETATM    7  C   UNL     1     -40.025  51.569 -51.676  1.00  0.00    -0.031 A 
HETATM    8  C   UNL     1     -40.177  52.118 -52.960  1.00  0.00     0.039 A 
HETATM    9  N   UNL     1     -40.638  53.418 -53.246  1.00  0.00    -0.355 N 
HETATM   10  C   UNL     1     -39.662  50.211 -51.547  1.00  0.00     0.009 A 
HETATM   11  C   UNL     1     -39.408  49.413 -52.660  1.00  0.00     0.001 A 
HETATM   12  C   UNL     1     -39.510  49.962 -53.928  1.00  0.00     0.002 A 
HETATM   13  C   UNL     1     -39.889  51.295 -54.072  1.00  0.00     0.030 A 
HETATM   14  C   UNL     1     -41.515  55.657 -50.386  1.00  0.00     0.012 A 
HETATM   15  C   UNL     1     -42.492  56.452 -50.986  1.00  0.00     0.030 A 
HETATM   16  H   UNL     1     -40.713  53.598 -54.241  1.00  0.00     0.166 HD
ENDROOT
BRANCH   1  17
HETATM   17  N   UNL     1     -43.891  57.035 -52.849  1.00  0.00    -0.326 N 
HETATM   18  C   UNL     1     -43.769  58.111 -53.702  1.00  0.00     0.247 C 
HETATM   19  O   UNL     1     -42.738  58.693 -54.039  1.00  0.00    -0.271 OA
HETATM   20  H   UNL     1     -44.816  56.745 -52.551  1.00  0.00     0.169 HD
BRANCH  18  21
HETATM   21  C   UNL     1     -45.087  58.594 -54.309  1.00  0.00     0.334 C 
BRANCH  21  22
HETATM   22  N   UNL     1     -45.506  57.682 -55.443  1.00  0.00    -0.071 N 
HETATM   23  C   UNL     1     -44.946  58.042 -56.773  1.00  0.00     0.267 C 
HETATM   24  H   UNL     1     -46.535  57.777 -55.511  1.00  0.00     0.277 HD
HETATM   25  H   UNL     1     -45.308  56.700 -55.220  1.00  0.00     0.277 HD
ENDBRANCH  21  22
ENDBRANCH  18  21
ENDBRANCH   1  17
TORSDOF 3
ENDMDL
MODEL 4
REMARK VINA RESULT:      -7.6      5.061      6.061
REMARK  3 active torsions:
REMARK  status: ('A' for Active; 'I' for Inactive)
REMARK    1  A    between atoms: N_2  and  C_5 
REMARK    2  A    between atoms: C_5  and  C_6 
REMARK       I    between atoms: C_6  and  N_7 
REMARK    3  A    between atoms: N_7  and  C_8 
ROOT
HETATM    1  C   UNL     1     -42.337  56.578 -51.631  1.00  0.00     0.036 A 
HETATM    2  C   UNL     1     -41.823  55.650 -52.539  1.00  0.00     0.059 A 
HETATM    3  C   UNL     1     -40.893  54.663 -52.155  1.00  0.00     0.041 A 
HETATM    4  C   UNL     1     -40.473  54.623 -50.822  1.00  0.00    -0.031 A 
HETATM    5  C   UNL     1     -39.493  53.585 -50.352  1.00  0.00     0.045 C 
HETATM    6  C   UNL     1     -40.072  52.182 -50.491  1.00  0.00     0.045 C 
HETATM    7  C   UNL     1     -40.000  51.604 -51.884  1.00  0.00    -0.031 A 
HETATM    8  C   UNL     1     -40.181  52.348 -53.060  1.00  0.00     0.039 A 
HETATM    9  N   UNL     1     -40.520  53.714 -53.122  1.00  0.00    -0.355 N 
HETATM   10  C   UNL     1     -39.774  50.213 -51.978  1.00  0.00     0.009 A 
HETATM   11  C   UNL     1     -39.682  49.569 -53.209  1.00  0.00     0.001 A 
HETATM   12  C   UNL     1     -39.812  50.307 -54.374  1.00  0.00     0.002 A 
HETATM   13  C   UNL     1     -40.058  51.676 -54.297  1.00  0.00     0.030 A 
HETATM   14  C   UNL     1     -40.959  55.578 -49.913  1.00  0.00     0.012 A 
HETATM   15  C   UNL     1     -41.886  56.542 -50.312  1.00  0.00     0.030 A 
HETATM   16  H   UNL     1     -40.644  54.047 -54.072  1.00  0.00     0.166 HD
ENDROOT
BRANCH   1  17
HETATM   17  N   UNL     1     -43.339  57.523 -51.952  1.00  0.00    -0.326 N 
HETATM   18  C   UNL     1     -44.575  57.641 -51.355  1.00  0.00     0.247 C 
HETATM   19  O   UNL     1     -45.104  56.867 -50.557  1.00  0.00    -0.271 OA
HETATM   20  H   UNL     1     -43.089  58.164 -52.698  1.00  0.00     0.169 HD
BRANCH  18  21
HETATM   21  C   UNL     1     -45.344  58.910 -51.726  1.00  0.00     0.334 C 
BRANCH  21  22
HETATM   22  N   UNL     1     -44.398  60.091 -51.797  1.00  0.00    -0.071 N 
HETATM   23  C   UNL     1     -44.203  60.814 -50.512  1.00  0.00     0.267 C 
HETATM   24  H   UNL     1     -44.835  60.759 -52.458  1.00  0.00     0.277 HD
HETATM   25  H   UNL     1     -43.495  59.817 -52.199  1.00  0.00     0.277 HD
ENDBRANCH  21  22
ENDBRANCH  18  21
ENDBRANCH   1  17
TORSDOF 3
ENDMDL
MODEL 5
REMARK VINA RESULT:      -7.3      4.473      6.382
REMARK  3 active torsions:
REMARK  status: ('A' for Active; 'I' for Inactive)
REMARK    1  A    between atoms: N_2  and  C_5 
REMARK    2  A    between atoms: C_5  and  C_6 
REMARK       I    between atoms: C_6  and  N_7 
REMARK    3  A    between atoms: N_7  and  C_8 
ROOT
HETATM    1  C   UNL     1     -43.245  57.776 -51.726  1.00  0.00     0.036 A 
HETATM    2  C   UNL     1     -42.581  56.607 -51.344  1.00  0.00     0.059 A 
HETATM    3  C   UNL     1     -42.585  55.449 -52.147  1.00  0.00     0.041 A 
HETATM    4  C   UNL     1     -43.282  55.477 -53.358  1.00  0.00    -0.031 A 
HETATM    5  C   UNL     1     -43.311  54.275 -54.261  1.00  0.00     0.045 C 
HETATM    6  C   UNL     1     -41.913  53.936 -54.765  1.00  0.00     0.045 C 
HETATM    7  C   UNL     1     -41.058  53.167 -53.787  1.00  0.00    -0.031 A 
HETATM    8  C   UNL     1     -41.062  53.375 -52.398  1.00  0.00     0.039 A 
HETATM    9  N   UNL     1     -41.801  54.364 -51.720  1.00  0.00    -0.355 N 
HETATM   10  C   UNL     1     -40.177  52.210 -54.336  1.00  0.00     0.009 A 
HETATM   11  C   UNL     1     -39.344  51.437 -53.532  1.00  0.00     0.001 A 
HETATM   12  C   UNL     1     -39.377  51.604 -52.157  1.00  0.00     0.002 A 
HETATM   13  C   UNL     1     -40.225  52.560 -51.602  1.00  0.00     0.030 A 
HETATM   14  C   UNL     1     -43.981  56.638 -53.729  1.00  0.00     0.012 A 
HETATM   15  C   UNL     1     -43.958  57.777 -52.924  1.00  0.00     0.030 A 
HETATM   16  H   UNL     1     -41.627  54.369 -50.721  1.00  0.00     0.166 HD
ENDROOT
BRANCH   1  17
HETATM   17  N   UNL     1     -43.189  58.987 -50.998  1.00  0.00    -0.326 N 
HETATM   18  C   UNL     1     -42.243  59.980 -51.131  1.00  0.00     0.247 C 
HETATM   19  O   UNL     1     -41.196  59.942 -51.777  1.00  0.00    -0.271 OA
HETATM   20  H   UNL     1     -43.936  59.106 -50.321  1.00  0.00     0.169 HD
BRANCH  18  21
HETATM   21  C   UNL     1     -42.581  61.283 -50.404  1.00  0.00     0.334 C 
BRANCH  21  22
HETATM   22  N   UNL     1     -44.072  61.370 -50.154  1.00  0.00    -0.071 N 
HETATM   23  C   UNL     1     -44.454  61.606 -48.736  1.00  0.00     0.267 C 
HETATM   24  H   UNL     1     -44.453  60.445 -50.422  1.00  0.00     0.277 HD
HETATM   25  H   UNL     1     -44.509  62.066 -50.767  1.00  0.00     0.277 HD
ENDBRANCH  21  22
ENDBRANCH  18  21
ENDBRANCH   1  17
TORSDOF 3
ENDMDL
MODEL 6
REMARK VINA RESULT:      -7.3      2.109      2.577
REMARK  3 active torsions:
REMARK  status: ('A' for Active; 'I' for Inactive)
REMARK    1  A    between atoms: N_2  and  C_5 
REMARK    2  A    between atoms: C_5  and  C_6 
REMARK       I    between atoms: C_6  and  N_7 
REMARK    3  A    between atoms: N_7  and  C_8 
ROOT
HETATM    1  C   UNL     1     -44.508  57.089 -54.612  1.00  0.00     0.036 A 
HETATM    2  C   UNL     1     -43.535  56.132 -54.911  1.00  0.00     0.059 A 
HETATM    3  C   UNL     1     -42.491  55.822 -54.017  1.00  0.00     0.041 A 
HETATM    4  C   UNL     1     -42.431  56.503 -52.798  1.00  0.00    -0.031 A 
HETATM    5  C   UNL     1     -41.346  56.205 -51.800  1.00  0.00     0.045 C 
HETATM    6  C   UNL     1     -41.443  54.769 -51.299  1.00  0.00     0.045 C 
HETATM    7  C   UNL     1     -40.855  53.734 -52.229  1.00  0.00    -0.031 A 
HETATM    8  C   UNL     1     -40.937  53.792 -53.630  1.00  0.00     0.039 A 
HETATM    9  N   UNL     1     -41.628  54.771 -54.371  1.00  0.00    -0.355 N 
HETATM   10  C   UNL     1     -40.222  52.627 -51.622  1.00  0.00     0.009 A 
HETATM   11  C   UNL     1     -39.639  51.614 -52.378  1.00  0.00     0.001 A 
HETATM   12  C   UNL     1     -39.676  51.689 -53.761  1.00  0.00     0.002 A 
HETATM   13  C   UNL     1     -40.316  52.764 -54.374  1.00  0.00     0.030 A 
HETATM   14  C   UNL     1     -43.385  57.492 -52.508  1.00  0.00     0.012 A 
HETATM   15  C   UNL     1     -44.416  57.778 -53.403  1.00  0.00     0.030 A 
HETATM   16  H   UNL     1     -41.596  54.603 -55.370  1.00  0.00     0.166 HD
ENDROOT
BRANCH   1  17
HETATM   17  N   UNL     1     -45.623  57.363 -55.437  1.00  0.00    -0.326 N 
HETATM   18  C   UNL     1     -45.638  58.175 -56.551  1.00  0.00     0.247 C 
HETATM   19  O   UNL     1     -44.749  58.930 -56.946  1.00  0.00    -0.271 OA
HETATM   20  H   UNL     1     -46.480  56.899 -55.154  1.00  0.00     0.169 HD
BRANCH  18  21
HETATM   21  C   UNL     1     -46.912  58.079 -57.392  1.00  0.00     0.334 C 
BRANCH  21  22
HETATM   22  N   UNL     1     -46.766  56.997 -58.440  1.00  0.00    -0.071 N 
HETATM   23  C   UNL     1     -46.841  57.475 -59.847  1.00  0.00     0.267 C 
HETATM   24  H   UNL     1     -47.568  56.357 -58.294  1.00  0.00     0.277 HD
HETATM   25  H   UNL     1     -45.912  56.449 -58.290  1.00  0.00     0.277 HD
ENDBRANCH  21  22
ENDBRANCH  18  21
ENDBRANCH   1  17
TORSDOF 3
ENDMDL
MODEL 7
REMARK VINA RESULT:      -7.0      3.001      4.339
REMARK  3 active torsions:
REMARK  status: ('A' for Active; 'I' for Inactive)
REMARK    1  A    between atoms: N_2  and  C_5 
REMARK    2  A    between atoms: C_5  and  C_6 
REMARK       I    between atoms: C_6  and  N_7 
REMARK    3  A    between atoms: N_7  and  C_8 
ROOT
HETATM    1  C   UNL     1     -42.878  57.130 -55.613  1.00  0.00     0.036 A 
HETATM    2  C   UNL     1     -42.896  56.952 -54.228  1.00  0.00     0.059 A 
HETATM    3  C   UNL     1     -42.537  55.729 -53.626  1.00  0.00     0.041 A 
HETATM    4  C   UNL     1     -42.158  54.665 -54.450  1.00  0.00    -0.031 A 
HETATM    5  C   UNL     1     -41.753  53.341 -53.864  1.00  0.00     0.045 C 
HETATM    6  C   UNL     1     -40.496  53.481 -53.013  1.00  0.00     0.045 C 
HETATM    7  C   UNL     1     -40.732  54.013 -51.620  1.00  0.00    -0.031 A 
HETATM    8  C   UNL     1     -41.676  55.002 -51.299  1.00  0.00     0.039 A 
HETATM    9  N   UNL     1     -42.489  55.689 -52.223  1.00  0.00    -0.355 N 
HETATM   10  C   UNL     1     -39.907  53.493 -50.598  1.00  0.00     0.009 A 
HETATM   11  C   UNL     1     -40.037  53.904 -49.274  1.00  0.00     0.001 A 
HETATM   12  C   UNL     1     -40.999  54.844 -48.944  1.00  0.00     0.002 A 
HETATM   13  C   UNL     1     -41.805  55.383 -49.945  1.00  0.00     0.030 A 
HETATM   14  C   UNL     1     -42.174  54.828 -55.845  1.00  0.00     0.012 A 
HETATM   15  C   UNL     1     -42.525  56.050 -56.421  1.00  0.00     0.030 A 
HETATM   16  H   UNL     1     -43.072  56.393 -51.785  1.00  0.00     0.166 HD
ENDROOT
BRANCH   1  17
HETATM   17  N   UNL     1     -43.140  58.364 -56.252  1.00  0.00    -0.326 N 
HETATM   18  C   UNL     1     -42.410  59.526 -56.121  1.00  0.00     0.247 C 
HETATM   19  O   UNL     1     -41.506  59.762 -55.319  1.00  0.00    -0.271 OA
HETATM   20  H   UNL     1     -43.951  58.358 -56.863  1.00  0.00     0.169 HD
BRANCH  18  21
HETATM   21  C   UNL     1     -42.770  60.621 -57.126  1.00  0.00     0.334 C 
BRANCH  21  22
HETATM   22  N   UNL     1     -41.717  61.709 -57.112  1.00  0.00    -0.071 N 
HETATM   23  C   UNL     1     -40.896  61.800 -58.350  1.00  0.00     0.267 C 
HETATM   24  H   UNL     1     -41.073  61.463 -56.338  1.00  0.00     0.277 HD
HETATM   25  H   UNL     1     -42.129  62.620 -56.883  1.00  0.00     0.277 HD
ENDBRANCH  21  22
ENDBRANCH  18  21
ENDBRANCH   1  17
TORSDOF 3
ENDMDL
MODEL 8
REMARK VINA RESULT:      -6.8     15.035     17.560
REMARK  3 active torsions:
REMARK  status: ('A' for Active; 'I' for Inactive)
REMARK    1  A    between atoms: N_2  and  C_5 
REMARK    2  A    between atoms: C_5  and  C_6 
REMARK       I    between atoms: C_6  and  N_7 
REMARK    3  A    between atoms: N_7  and  C_8 
ROOT
HETATM    1  C   UNL     1     -35.631  41.078 -55.404  1.00  0.00     0.036 A 
HETATM    2  C   UNL     1     -36.546  40.145 -55.899  1.00  0.00     0.059 A 
HETATM    3  C   UNL     1     -37.185  40.313 -57.144  1.00  0.00     0.041 A 
HETATM    4  C   UNL     1     -36.893  41.453 -57.898  1.00  0.00    -0.031 A 
HETATM    5  C   UNL     1     -37.535  41.678 -59.239  1.00  0.00     0.045 C 
HETATM    6  C   UNL     1     -37.129  40.593 -60.229  1.00  0.00     0.045 C 
HETATM    7  C   UNL     1     -37.892  39.297 -60.094  1.00  0.00    -0.031 A 
HETATM    8  C   UNL     1     -38.300  38.743 -58.870  1.00  0.00     0.039 A 
HETATM    9  N   UNL     1     -38.006  39.265 -57.595  1.00  0.00    -0.355 N 
HETATM   10  C   UNL     1     -38.164  38.598 -61.290  1.00  0.00     0.009 A 
HETATM   11  C   UNL     1     -38.865  37.395 -61.290  1.00  0.00     0.001 A 
HETATM   12  C   UNL     1     -39.312  36.867 -60.090  1.00  0.00     0.002 A 
HETATM   13  C   UNL     1     -39.032  37.534 -58.899  1.00  0.00     0.030 A 
HETATM   14  C   UNL     1     -36.002  42.412 -57.388  1.00  0.00     0.012 A 
HETATM   15  C   UNL     1     -35.373  42.224 -56.157  1.00  0.00     0.030 A 
HETATM   16  H   UNL     1     -38.361  38.687 -56.841  1.00  0.00     0.166 HD
ENDROOT
BRANCH   1  17
HETATM   17  N   UNL     1     -34.899  40.904 -54.207  1.00  0.00    -0.326 N 
HETATM   18  C   UNL     1     -35.143  41.524 -53.000  1.00  0.00     0.247 C 
HETATM   19  O   UNL     1     -35.924  42.447 -52.771  1.00  0.00    -0.271 OA
HETATM   20  H   UNL     1     -34.126  40.251 -54.278  1.00  0.00     0.169 HD
BRANCH  18  21
HETATM   21  C   UNL     1     -34.357  40.951 -51.820  1.00  0.00     0.334 C 
BRANCH  21  22
HETATM   22  N   UNL     1     -32.874  41.187 -52.016  1.00  0.00    -0.071 N 
HETATM   23  C   UNL     1     -31.988  40.228 -51.303  1.00  0.00     0.267 C 
HETATM   24  H   UNL     1     -32.687  42.126 -51.618  1.00  0.00     0.277 HD
HETATM   25  H   UNL     1     -32.635  41.229 -53.013  1.00  0.00     0.277 HD
ENDBRANCH  21  22
ENDBRANCH  18  21
ENDBRANCH   1  17
TORSDOF 3
ENDMDL
MODEL 9
REMARK VINA RESULT:      -6.7     15.150     16.371
REMARK  3 active torsions:
REMARK  status: ('A' for Active; 'I' for Inactive)
REMARK    1  A    between atoms: N_2  and  C_5 
REMARK    2  A    between atoms: C_5  and  C_6 
REMARK       I    between atoms: C_6  and  N_7 
REMARK    3  A    between atoms: N_7  and  C_8 
ROOT
HETATM    1  C   UNL     1     -36.319  40.140 -56.921  1.00  0.00     0.036 A 
HETATM    2  C   UNL     1     -35.139  40.199 -56.175  1.00  0.00     0.059 A 
HETATM    3  C   UNL     1     -35.089  40.801 -54.902  1.00  0.00     0.041 A 
HETATM    4  C   UNL     1     -36.260  41.359 -54.380  1.00  0.00    -0.031 A 
HETATM    5  C   UNL     1     -36.269  42.004 -53.022  1.00  0.00     0.045 C 
HETATM    6  C   UNL     1     -35.949  40.988 -51.931  1.00  0.00     0.045 C 
HETATM    7  C   UNL     1     -34.480  40.682 -51.764  1.00  0.00    -0.031 A 
HETATM    8  C   UNL     1     -33.563  40.597 -52.825  1.00  0.00     0.039 A 
HETATM    9  N   UNL     1     -33.879  40.714 -54.192  1.00  0.00    -0.355 N 
HETATM   10  C   UNL     1     -34.034  40.431 -50.448  1.00  0.00     0.009 A 
HETATM   11  C   UNL     1     -32.700  40.144 -50.171  1.00  0.00     0.001 A 
HETATM   12  C   UNL     1     -31.782  40.105 -51.207  1.00  0.00     0.002 A 
HETATM   13  C   UNL     1     -32.211  40.330 -52.514  1.00  0.00     0.030 A 
HETATM   14  C   UNL     1     -37.440  41.335 -55.142  1.00  0.00     0.012 A 
HETATM   15  C   UNL     1     -37.470  40.726 -56.397  1.00  0.00     0.030 A 
HETATM   16  H   UNL     1     -33.075  40.579 -54.795  1.00  0.00     0.166 HD
ENDROOT
BRANCH   1  17
HETATM   17  N   UNL     1     -36.435  39.465 -58.159  1.00  0.00    -0.326 N 
HETATM   18  C   UNL     1     -36.694  40.039 -59.384  1.00  0.00     0.247 C 
HETATM   19  O   UNL     1     -37.027  41.201 -59.617  1.00  0.00    -0.271 OA
HETATM   20  H   UNL     1     -36.307  38.460 -58.103  1.00  0.00     0.169 HD
BRANCH  18  21
HETATM   21  C   UNL     1     -36.506  39.103 -60.579  1.00  0.00     0.334 C 
BRANCH  21  22
HETATM   22  N   UNL     1     -37.314  39.597 -61.761  1.00  0.00    -0.071 N 
HETATM   23  C   UNL     1     -37.273  38.714 -62.958  1.00  0.00     0.267 C 
HETATM   24  H   UNL     1     -36.884  40.499 -62.035  1.00  0.00     0.277 HD
HETATM   25  H   UNL     1     -38.283  39.795 -61.490  1.00  0.00     0.277 HD
ENDBRANCH  21  22
ENDBRANCH  18  21
ENDBRANCH   1  17
TORSDOF 3
ENDMDL
MODEL 10
REMARK VINA RESULT:      -6.6      2.325      7.257
REMARK  3 active torsions:
REMARK  status: ('A' for Active; 'I' for Inactive)
REMARK    1  A    between atoms: N_2  and  C_5 
REMARK    2  A    between atoms: C_5  and  C_6 
REMARK       I    between atoms: C_6  and  N_7 
REMARK    3  A    between atoms: N_7  and  C_8 
ROOT
HETATM    1  C   UNL     1     -41.582  54.281 -53.505  1.00  0.00     0.036 A 
HETATM    2  C   UNL     1     -42.241  54.218 -54.736  1.00  0.00     0.059 A 
HETATM    3  C   UNL     1     -42.706  55.373 -55.395  1.00  0.00     0.041 A 
HETATM    4  C   UNL     1     -42.504  56.616 -54.788  1.00  0.00    -0.031 A 
HETATM    5  C   UNL     1     -42.969  57.883 -55.451  1.00  0.00     0.045 C 
HETATM    6  C   UNL     1     -42.241  58.109 -56.771  1.00  0.00     0.045 C 
HETATM    7  C   UNL     1     -42.783  57.315 -57.935  1.00  0.00    -0.031 A 
HETATM    8  C   UNL     1     -43.268  56.000 -57.839  1.00  0.00     0.039 A 
HETATM    9  N   UNL     1     -43.260  55.207 -56.675  1.00  0.00    -0.355 N 
HETATM   10  C   UNL     1     -42.750  57.946 -59.198  1.00  0.00     0.009 A 
HETATM   11  C   UNL     1     -43.228  57.313 -60.343  1.00  0.00     0.001 A 
HETATM   12  C   UNL     1     -43.751  56.035 -60.247  1.00  0.00     0.002 A 
HETATM   13  C   UNL     1     -43.769  55.390 -59.011  1.00  0.00     0.030 A 
HETATM   14  C   UNL     1     -41.876  56.682 -53.533  1.00  0.00     0.012 A 
HETATM   15  C   UNL     1     -41.415  55.527 -52.901  1.00  0.00     0.030 A 
HETATM   16  H   UNL     1     -43.619  54.272 -56.834  1.00  0.00     0.166 HD
ENDROOT
BRANCH   1  17
HETATM   17  N   UNL     1     -41.017  53.159 -52.855  1.00  0.00    -0.326 N 
HETATM   18  C   UNL     1     -40.181  52.221 -53.420  1.00  0.00     0.247 C 
HETATM   19  O   UNL     1     -39.896  52.083 -54.609  1.00  0.00    -0.271 OA
HETATM   20  H   UNL     1     -41.271  53.068 -51.877  1.00  0.00     0.169 HD
BRANCH  18  21
HETATM   21  C   UNL     1     -39.520  51.272 -52.418  1.00  0.00     0.334 C 
BRANCH  21  22
HETATM   22  N   UNL     1     -39.904  51.655 -51.004  1.00  0.00    -0.071 N 
HETATM   23  C   UNL     1     -40.263  50.512 -50.122  1.00  0.00     0.267 C 
HETATM   24  H   UNL     1     -40.751  52.245 -51.096  1.00  0.00     0.277 HD
HETATM   25  H   UNL     1     -39.179  52.235 -50.568  1.00  0.00     0.277 HD
ENDBRANCH  21  22
ENDBRANCH  18  21
ENDBRANCH   1  17
TORSDOF 3
ENDMDL
