MODEL 1
REMARK VINA RESULT:      -9.1      0.000      0.000
REMARK  8 active torsions:
REMARK  status: ('A' for Active; 'I' for Inactive)
REMARK    1  A    between atoms: O_2  and  C_3 
REMARK    2  A    between atoms: C_4  and  C_5 
REMARK    3  A    between atoms: N_6  and  N_7 
REMARK    4  A    between atoms: C_18  and  C_19 
REMARK       I    between atoms: C_19  and  N_20 
REMARK    5  A    between atoms: N_20  and  C_21 
REMARK    6  A    between atoms: C_21  and  C_22 
REMARK    7  A    between atoms: C_22  and  C_23 
REMARK    8  A    between atoms: C_30  and  N_31 
ROOT
HETATM    1  N   UNL     1     -42.527  54.842 -54.436  1.00  0.00    -0.202 N 
HETATM    2  C   UNL     1     -42.639  55.614 -55.575  1.00  0.00     0.183 A 
HETATM    3  C   UNL     1     -42.466  56.936 -55.174  1.00  0.00     0.124 A 
HETATM    4  N   UNL     1     -42.447  57.945 -56.081  1.00  0.00    -0.242 NA
HETATM    5  C   UNL     1     -42.669  57.572 -57.347  1.00  0.00     0.086 A 
HETATM    6  C   UNL     1     -42.853  56.218 -57.730  1.00  0.00     0.088 A 
HETATM    7  N   UNL     1     -42.807  55.197 -56.853  1.00  0.00    -0.225 NA
HETATM    8  C   UNL     1     -42.729  58.568 -58.314  1.00  0.00     0.034 A 
HETATM    9  C   UNL     1     -42.983  58.270 -59.653  1.00  0.00     0.002 A 
HETATM   10  C   UNL     1     -43.176  56.950 -60.032  1.00  0.00     0.002 A 
HETATM   11  C   UNL     1     -43.104  55.938 -59.070  1.00  0.00     0.034 A 
HETATM   12  C   UNL     1     -42.295  56.958 -53.761  1.00  0.00     0.104 C 
HETATM   13  C   UNL     1     -42.608  55.679 -53.328  1.00  0.00     0.123 C 
ENDROOT
BRANCH  12  14
HETATM   14  C   UNL     1     -41.798  58.064 -52.952  1.00  0.00     0.257 C 
HETATM   15  N   UNL     1     -42.476  59.251 -53.130  1.00  0.00    -0.356 N 
HETATM   16  H   UNL     1     -43.349  59.149 -53.638  1.00  0.00     0.162 HD
HETATM   17  O   UNL     1     -40.925  57.902 -52.109  1.00  0.00    -0.267 OA
BRANCH  15  18
HETATM   18  C   UNL     1     -42.416  60.363 -52.201  1.00  0.00     0.127 C 
BRANCH  18  19
HETATM   19  C   UNL     1     -43.110  60.192 -50.843  1.00  0.00     0.053 C 
BRANCH  19  20
HETATM   20  C   UNL     1     -43.459  61.472 -50.113  1.00  0.00    -0.082 C 
HETATM   21  C   UNL     1     -42.869  62.756 -50.638  1.00  0.00     0.034 C 
HETATM   22  C   UNL     1     -43.027  63.937 -49.673  1.00  0.00     0.005 C 
HETATM   23  C   UNL     1     -44.417  63.965 -49.047  1.00  0.00     0.004 C 
HETATM   24  C   UNL     1     -44.705  62.671 -48.289  1.00  0.00     0.027 C 
HETATM   25  C   UNL     1     -44.283  61.454 -49.049  1.00  0.00    -0.024 C 
ENDBRANCH  19  20
ENDBRANCH  18  19
ENDBRANCH  15  18
ENDBRANCH  12  14
BRANCH  13  26
HETATM   26  N   UNL     1     -42.753  55.143 -52.070  1.00  0.00    -0.286 NA
HETATM   27  H   UNL     1     -42.861  54.127 -52.051  1.00  0.00     0.125 HD
HETATM   28  H   UNL     1     -41.952  55.357 -51.461  1.00  0.00     0.125 HD
ENDBRANCH  13  26
BRANCH   1  29
HETATM   29  N   UNL     1     -42.195  53.520 -54.273  1.00  0.00    -0.176 NA
HETATM   30  C   UNL     1     -40.903  53.382 -54.197  1.00  0.00     0.153 C 
BRANCH  30  31
HETATM   31  C   UNL     1     -40.275  52.177 -53.612  1.00  0.00     0.016 A 
HETATM   32  C   UNL     1     -39.952  52.161 -52.242  1.00  0.00     0.080 A 
HETATM   33  C   UNL     1     -39.555  50.953 -51.660  1.00  0.00     0.037 A 
HETATM   34  C   UNL     1     -39.484  49.785 -52.425  1.00  0.00     0.003 A 
HETATM   35  C   UNL     1     -39.791  49.813 -53.784  1.00  0.00     0.001 A 
HETATM   36  C   UNL     1     -40.186  51.008 -54.380  1.00  0.00     0.016 A 
BRANCH  32  37
HETATM   37  O   UNL     1     -40.077  53.344 -51.563  1.00  0.00    -0.355 OA
HETATM   38  C   UNL     1     -40.390  53.287 -50.176  1.00  0.00     0.210 C 
ENDBRANCH  32  37
ENDBRANCH  30  31
ENDBRANCH   1  29
TORSDOF 8
ENDMDL
MODEL 2
REMARK VINA RESULT:      -9.0      1.923      6.881
REMARK  8 active torsions:
REMARK  status: ('A' for Active; 'I' for Inactive)
REMARK    1  A    between atoms: O_2  and  C_3 
REMARK    2  A    between atoms: C_4  and  C_5 
REMARK    3  A    between atoms: N_6  and  N_7 
REMARK    4  A    between atoms: C_18  and  C_19 
REMARK       I    between atoms: C_19  and  N_20 
REMARK    5  A    between atoms: N_20  and  C_21 
REMARK    6  A    between atoms: C_21  and  C_22 
REMARK    7  A    between atoms: C_22  and  C_23 
REMARK    8  A    between atoms: C_30  and  N_31 
ROOT
HETATM    1  N   UNL     1     -41.787  55.563 -54.432  1.00  0.00    -0.202 N 
HETATM    2  C   UNL     1     -41.732  56.626 -53.553  1.00  0.00     0.183 A 
HETATM    3  C   UNL     1     -42.343  57.700 -54.194  1.00  0.00     0.124 A 
HETATM    4  N   UNL     1     -42.516  58.886 -53.560  1.00  0.00    -0.242 NA
HETATM    5  C   UNL     1     -42.003  58.949 -52.325  1.00  0.00     0.086 A 
HETATM    6  C   UNL     1     -41.373  57.843 -51.696  1.00  0.00     0.088 A 
HETATM    7  N   UNL     1     -41.254  56.637 -52.285  1.00  0.00    -0.225 NA
HETATM    8  C   UNL     1     -42.087  60.160 -51.649  1.00  0.00     0.034 A 
HETATM    9  C   UNL     1     -41.554  60.319 -50.370  1.00  0.00     0.002 A 
HETATM   10  C   UNL     1     -40.928  59.245 -49.755  1.00  0.00     0.002 A 
HETATM   11  C   UNL     1     -40.849  58.019 -50.420  1.00  0.00     0.034 A 
HETATM   12  C   UNL     1     -42.729  57.283 -55.499  1.00  0.00     0.104 C 
HETATM   13  C   UNL     1     -42.126  56.049 -55.690  1.00  0.00     0.123 C 
ENDROOT
BRANCH  12  14
HETATM   14  C   UNL     1     -43.646  57.963 -56.405  1.00  0.00     0.257 C 
HETATM   15  N   UNL     1     -43.056  58.924 -57.199  1.00  0.00    -0.356 N 
HETATM   16  H   UNL     1     -42.042  58.888 -57.196  1.00  0.00     0.162 HD
HETATM   17  O   UNL     1     -44.815  57.617 -56.516  1.00  0.00    -0.267 OA
BRANCH  15  18
HETATM   18  C   UNL     1     -43.662  59.462 -58.402  1.00  0.00     0.127 C 
BRANCH  18  19
HETATM   19  C   UNL     1     -43.372  58.742 -59.726  1.00  0.00     0.053 C 
BRANCH  19  20
HETATM   20  C   UNL     1     -44.093  57.428 -59.934  1.00  0.00    -0.082 C 
HETATM   21  C   UNL     1     -45.564  57.484 -60.261  1.00  0.00     0.034 C 
HETATM   22  C   UNL     1     -46.263  56.124 -60.154  1.00  0.00     0.005 C 
HETATM   23  C   UNL     1     -45.415  55.010 -60.760  1.00  0.00     0.004 C 
HETATM   24  C   UNL     1     -44.056  54.918 -60.070  1.00  0.00     0.027 C 
HETATM   25  C   UNL     1     -43.431  56.259 -59.849  1.00  0.00    -0.024 C 
ENDBRANCH  19  20
ENDBRANCH  18  19
ENDBRANCH  15  18
ENDBRANCH  12  14
BRANCH  13  26
HETATM   26  N   UNL     1     -42.027  55.234 -56.792  1.00  0.00    -0.286 NA
HETATM   27  H   UNL     1     -42.888  55.146 -57.335  1.00  0.00     0.125 HD
HETATM   28  H   UNL     1     -41.306  55.558 -57.452  1.00  0.00     0.125 HD
ENDBRANCH  13  26
BRANCH   1  29
HETATM   29  N   UNL     1     -41.740  54.208 -54.211  1.00  0.00    -0.176 NA
HETATM   30  C   UNL     1     -40.512  53.782 -54.264  1.00  0.00     0.153 C 
BRANCH  30  31
HETATM   31  C   UNL     1     -40.102  52.492 -53.664  1.00  0.00     0.016 A 
HETATM   32  C   UNL     1     -39.888  52.413 -52.276  1.00  0.00     0.080 A 
HETATM   33  C   UNL     1     -39.706  51.153 -51.696  1.00  0.00     0.037 A 
HETATM   34  C   UNL     1     -39.740  49.997 -52.482  1.00  0.00     0.003 A 
HETATM   35  C   UNL     1     -39.939  50.087 -53.858  1.00  0.00     0.001 A 
HETATM   36  C   UNL     1     -40.119  51.334 -54.453  1.00  0.00     0.016 A 
BRANCH  32  37
HETATM   37  O   UNL     1     -39.898  53.592 -51.579  1.00  0.00    -0.355 OA
HETATM   38  C   UNL     1     -40.582  53.624 -50.332  1.00  0.00     0.210 C 
ENDBRANCH  32  37
ENDBRANCH  30  31
ENDBRANCH   1  29
TORSDOF 8
ENDMDL
MODEL 3
REMARK VINA RESULT:      -8.9      1.852      2.954
REMARK  8 active torsions:
REMARK  status: ('A' for Active; 'I' for Inactive)
REMARK    1  A    between atoms: O_2  and  C_3 
REMARK    2  A    between atoms: C_4  and  C_5 
REMARK    3  A    between atoms: N_6  and  N_7 
REMARK    4  A    between atoms: C_18  and  C_19 
REMARK       I    between atoms: C_19  and  N_20 
REMARK    5  A    between atoms: N_20  and  C_21 
REMARK    6  A    between atoms: C_21  and  C_22 
REMARK    7  A    between atoms: C_22  and  C_23 
REMARK    8  A    between atoms: C_30  and  N_31 
ROOT
HETATM    1  N   UNL     1     -42.888  54.660 -54.612  1.00  0.00    -0.202 N 
HETATM    2  C   UNL     1     -42.914  55.493 -55.713  1.00  0.00     0.183 A 
HETATM    3  C   UNL     1     -42.980  56.794 -55.222  1.00  0.00     0.124 A 
HETATM    4  N   UNL     1     -42.947  57.860 -56.060  1.00  0.00    -0.242 NA
HETATM    5  C   UNL     1     -42.911  57.555 -57.363  1.00  0.00     0.086 A 
HETATM    6  C   UNL     1     -42.855  56.219 -57.840  1.00  0.00     0.088 A 
HETATM    7  N   UNL     1     -42.820  55.151 -57.021  1.00  0.00    -0.225 NA
HETATM    8  C   UNL     1     -42.944  58.603 -58.275  1.00  0.00     0.034 A 
HETATM    9  C   UNL     1     -42.939  58.373 -59.650  1.00  0.00     0.002 A 
HETATM   10  C   UNL     1     -42.895  57.070 -60.123  1.00  0.00     0.002 A 
HETATM   11  C   UNL     1     -42.849  56.008 -59.215  1.00  0.00     0.034 A 
HETATM   12  C   UNL     1     -43.043  56.735 -53.801  1.00  0.00     0.104 C 
HETATM   13  C   UNL     1     -43.254  55.400 -53.492  1.00  0.00     0.123 C 
ENDROOT
BRANCH  12  14
HETATM   14  C   UNL     1     -42.830  57.831 -52.865  1.00  0.00     0.257 C 
HETATM   15  N   UNL     1     -42.094  58.881 -53.373  1.00  0.00    -0.356 N 
HETATM   16  H   UNL     1     -41.977  58.846 -54.380  1.00  0.00     0.162 HD
HETATM   17  O   UNL     1     -43.364  57.849 -51.763  1.00  0.00    -0.267 OA
BRANCH  15  18
HETATM   18  C   UNL     1     -42.063  60.206 -52.784  1.00  0.00     0.127 C 
BRANCH  18  19
HETATM   19  C   UNL     1     -43.297  61.098 -52.975  1.00  0.00     0.053 C 
BRANCH  19  20
HETATM   20  C   UNL     1     -43.893  61.110 -54.366  1.00  0.00    -0.082 C 
HETATM   21  C   UNL     1     -45.207  60.399 -54.568  1.00  0.00     0.034 C 
HETATM   22  C   UNL     1     -45.574  60.206 -56.044  1.00  0.00     0.005 C 
HETATM   23  C   UNL     1     -45.281  61.459 -56.862  1.00  0.00     0.004 C 
HETATM   24  C   UNL     1     -43.806  61.842 -56.770  1.00  0.00     0.027 C 
HETATM   25  C   UNL     1     -43.275  61.753 -55.374  1.00  0.00    -0.024 C 
ENDBRANCH  19  20
ENDBRANCH  18  19
ENDBRANCH  15  18
ENDBRANCH  12  14
BRANCH  13  26
HETATM   26  N   UNL     1     -43.529  54.762 -52.306  1.00  0.00    -0.286 NA
HETATM   27  H   UNL     1     -44.402  54.230 -52.302  1.00  0.00     0.125 HD
HETATM   28  H   UNL     1     -42.789  54.099 -52.040  1.00  0.00     0.125 HD
ENDBRANCH  13  26
BRANCH   1  29
HETATM   29  N   UNL     1     -42.418  53.379 -54.463  1.00  0.00    -0.176 NA
HETATM   30  C   UNL     1     -41.130  53.386 -54.283  1.00  0.00     0.153 C 
BRANCH  30  31
HETATM   31  C   UNL     1     -40.414  52.237 -53.685  1.00  0.00     0.016 A 
HETATM   32  C   UNL     1     -40.011  52.299 -52.338  1.00  0.00     0.080 A 
HETATM   33  C   UNL     1     -39.525  51.137 -51.728  1.00  0.00     0.037 A 
HETATM   34  C   UNL     1     -39.447  49.938 -52.444  1.00  0.00     0.003 A 
HETATM   35  C   UNL     1     -39.835  49.890 -53.782  1.00  0.00     0.001 A 
HETATM   36  C   UNL     1     -40.318  51.038 -54.405  1.00  0.00     0.016 A 
BRANCH  32  37
HETATM   37  O   UNL     1     -40.149  53.506 -51.705  1.00  0.00    -0.355 OA
HETATM   38  C   UNL     1     -40.383  53.500 -50.302  1.00  0.00     0.210 C 
ENDBRANCH  32  37
ENDBRANCH  30  31
ENDBRANCH   1  29
TORSDOF 8
ENDMDL
MODEL 4
REMARK VINA RESULT:      -8.8      2.012      8.170
REMARK  8 active torsions:
REMARK  status: ('A' for Active; 'I' for Inactive)
REMARK    1  A    between atoms: O_2  and  C_3 
REMARK    2  A    between atoms: C_4  and  C_5 
REMARK    3  A    between atoms: N_6  and  N_7 
REMARK    4  A    between atoms: C_18  and  C_19 
REMARK       I    between atoms: C_19  and  N_20 
REMARK    5  A    between atoms: N_20  and  C_21 
REMARK    6  A    between atoms: C_21  and  C_22 
REMARK    7  A    between atoms: C_22  and  C_23 
REMARK    8  A    between atoms: C_30  and  N_31 
ROOT
HETATM    1  N   UNL     1     -44.384  58.845 -54.657  1.00  0.00    -0.202 N 
HETATM    2  C   UNL     1     -44.091  59.789 -53.693  1.00  0.00     0.183 A 
HETATM    3  C   UNL     1     -44.025  59.108 -52.480  1.00  0.00     0.124 A 
HETATM    4  N   UNL     1     -43.680  59.748 -51.336  1.00  0.00    -0.242 NA
HETATM    5  C   UNL     1     -43.479  61.066 -51.463  1.00  0.00     0.086 A 
HETATM    6  C   UNL     1     -43.562  61.741 -52.709  1.00  0.00     0.088 A 
HETATM    7  N   UNL     1     -43.837  61.109 -53.866  1.00  0.00    -0.225 NA
HETATM    8  C   UNL     1     -43.189  61.790 -50.313  1.00  0.00     0.034 A 
HETATM    9  C   UNL     1     -42.992  63.170 -50.352  1.00  0.00     0.002 A 
HETATM   10  C   UNL     1     -43.084  63.838 -51.565  1.00  0.00     0.002 A 
HETATM   11  C   UNL     1     -43.362  63.117 -52.730  1.00  0.00     0.034 A 
HETATM   12  C   UNL     1     -44.332  57.738 -52.718  1.00  0.00     0.104 C 
HETATM   13  C   UNL     1     -44.805  57.682 -54.020  1.00  0.00     0.123 C 
ENDROOT
BRANCH  12  14
HETATM   14  C   UNL     1     -44.102  56.616 -51.818  1.00  0.00     0.257 C 
HETATM   15  N   UNL     1     -43.640  55.473 -52.436  1.00  0.00    -0.356 N 
HETATM   16  H   UNL     1     -43.328  55.624 -53.390  1.00  0.00     0.162 HD
HETATM   17  O   UNL     1     -44.209  56.733 -50.604  1.00  0.00    -0.267 OA
BRANCH  15  18
HETATM   18  C   UNL     1     -43.003  54.375 -51.734  1.00  0.00     0.127 C 
BRANCH  18  19
HETATM   19  C   UNL     1     -41.471  54.381 -51.647  1.00  0.00     0.053 C 
BRANCH  19  20
HETATM   20  C   UNL     1     -40.769  53.202 -52.287  1.00  0.00    -0.082 C 
HETATM   21  C   UNL     1     -40.030  52.253 -51.377  1.00  0.00     0.034 C 
HETATM   22  C   UNL     1     -39.113  51.281 -52.128  1.00  0.00     0.005 C 
HETATM   23  C   UNL     1     -39.788  50.728 -53.379  1.00  0.00     0.004 C 
HETATM   24  C   UNL     1     -40.191  51.854 -54.329  1.00  0.00     0.027 C 
HETATM   25  C   UNL     1     -40.827  53.006 -53.617  1.00  0.00    -0.024 C 
ENDBRANCH  19  20
ENDBRANCH  18  19
ENDBRANCH  15  18
ENDBRANCH  12  14
BRANCH  13  26
HETATM   26  N   UNL     1     -45.374  56.666 -54.750  1.00  0.00    -0.286 NA
HETATM   27  H   UNL     1     -44.842  55.793 -54.749  1.00  0.00     0.125 HD
HETATM   28  H   UNL     1     -46.317  56.426 -54.414  1.00  0.00     0.125 HD
ENDBRANCH  13  26
BRANCH   1  29
HETATM   29  N   UNL     1     -44.160  58.842 -56.011  1.00  0.00    -0.176 NA
HETATM   30  C   UNL     1     -42.956  58.425 -56.272  1.00  0.00     0.153 C 
BRANCH  30  31
HETATM   31  C   UNL     1     -42.572  57.918 -57.608  1.00  0.00     0.016 A 
HETATM   32  C   UNL     1     -42.881  56.591 -57.959  1.00  0.00     0.080 A 
HETATM   33  C   UNL     1     -42.702  56.188 -59.287  1.00  0.00     0.037 A 
HETATM   34  C   UNL     1     -42.230  57.090 -60.245  1.00  0.00     0.003 A 
HETATM   35  C   UNL     1     -41.913  58.398 -59.885  1.00  0.00     0.001 A 
HETATM   36  C   UNL     1     -42.082  58.815 -58.567  1.00  0.00     0.016 A 
BRANCH  32  37
HETATM   37  O   UNL     1     -43.365  55.784 -56.964  1.00  0.00    -0.355 OA
HETATM   38  C   UNL     1     -42.433  55.003 -56.225  1.00  0.00     0.210 C 
ENDBRANCH  32  37
ENDBRANCH  30  31
ENDBRANCH   1  29
TORSDOF 8
ENDMDL
MODEL 5
REMARK VINA RESULT:      -8.8      2.303      8.439
REMARK  8 active torsions:
REMARK  status: ('A' for Active; 'I' for Inactive)
REMARK    1  A    between atoms: O_2  and  C_3 
REMARK    2  A    between atoms: C_4  and  C_5 
REMARK    3  A    between atoms: N_6  and  N_7 
REMARK    4  A    between atoms: C_18  and  C_19 
REMARK       I    between atoms: C_19  and  N_20 
REMARK    5  A    between atoms: N_20  and  C_21 
REMARK    6  A    between atoms: C_21  and  C_22 
REMARK    7  A    between atoms: C_22  and  C_23 
REMARK    8  A    between atoms: C_30  and  N_31 
ROOT
HETATM    1  N   UNL     1     -43.666  56.179 -53.381  1.00  0.00    -0.202 N 
HETATM    2  C   UNL     1     -42.739  55.156 -53.383  1.00  0.00     0.183 A 
HETATM    3  C   UNL     1     -42.405  54.928 -54.715  1.00  0.00     0.124 A 
HETATM    4  N   UNL     1     -41.453  54.023 -55.052  1.00  0.00    -0.242 NA
HETATM    5  C   UNL     1     -40.929  53.343 -54.025  1.00  0.00     0.086 A 
HETATM    6  C   UNL     1     -41.294  53.585 -52.674  1.00  0.00     0.088 A 
HETATM    7  N   UNL     1     -42.188  54.528 -52.316  1.00  0.00    -0.225 NA
HETATM    8  C   UNL     1     -39.997  52.353 -54.311  1.00  0.00     0.034 A 
HETATM    9  C   UNL     1     -39.423  51.579 -53.303  1.00  0.00     0.002 A 
HETATM   10  C   UNL     1     -39.784  51.803 -51.983  1.00  0.00     0.002 A 
HETATM   11  C   UNL     1     -40.710  52.806 -51.682  1.00  0.00     0.034 A 
HETATM   12  C   UNL     1     -43.182  55.801 -55.528  1.00  0.00     0.104 C 
HETATM   13  C   UNL     1     -44.129  56.355 -54.681  1.00  0.00     0.123 C 
ENDROOT
BRANCH  12  14
HETATM   14  C   UNL     1     -42.965  56.120 -56.933  1.00  0.00     0.257 C 
HETATM   15  N   UNL     1     -43.375  55.140 -57.812  1.00  0.00    -0.356 N 
HETATM   16  H   UNL     1     -43.955  54.426 -57.383  1.00  0.00     0.162 HD
HETATM   17  O   UNL     1     -42.555  57.218 -57.287  1.00  0.00    -0.267 OA
BRANCH  15  18
HETATM   18  C   UNL     1     -43.601  55.365 -59.227  1.00  0.00     0.127 C 
BRANCH  18  19
HETATM   19  C   UNL     1     -44.976  54.988 -59.796  1.00  0.00     0.053 C 
BRANCH  19  20
HETATM   20  C   UNL     1     -45.924  56.141 -60.050  1.00  0.00    -0.082 C 
HETATM   21  C   UNL     1     -45.790  57.360 -59.173  1.00  0.00     0.034 C 
HETATM   22  C   UNL     1     -46.969  58.332 -59.300  1.00  0.00     0.005 C 
HETATM   23  C   UNL     1     -47.391  58.512 -60.754  1.00  0.00     0.004 C 
HETATM   24  C   UNL     1     -47.789  57.177 -61.380  1.00  0.00     0.027 C 
HETATM   25  C   UNL     1     -46.835  56.076 -61.039  1.00  0.00    -0.024 C 
ENDBRANCH  19  20
ENDBRANCH  18  19
ENDBRANCH  15  18
ENDBRANCH  12  14
BRANCH  13  26
HETATM   26  N   UNL     1     -45.223  57.153 -54.920  1.00  0.00    -0.286 NA
HETATM   27  H   UNL     1     -45.268  57.540 -55.865  1.00  0.00     0.125 HD
HETATM   28  H   UNL     1     -46.110  56.652 -54.774  1.00  0.00     0.125 HD
ENDBRANCH  13  26
BRANCH   1  29
HETATM   29  N   UNL     1     -44.016  57.077 -52.403  1.00  0.00    -0.176 NA
HETATM   30  C   UNL     1     -43.020  57.870 -52.137  1.00  0.00     0.153 C 
BRANCH  30  31
HETATM   31  C   UNL     1     -43.212  59.172 -51.460  1.00  0.00     0.016 A 
HETATM   32  C   UNL     1     -42.143  59.746 -50.748  1.00  0.00     0.080 A 
HETATM   33  C   UNL     1     -42.269  61.062 -50.292  1.00  0.00     0.037 A 
HETATM   34  C   UNL     1     -43.436  61.792 -50.542  1.00  0.00     0.003 A 
HETATM   35  C   UNL     1     -44.495  61.210 -51.235  1.00  0.00     0.001 A 
HETATM   36  C   UNL     1     -44.387  59.899 -51.694  1.00  0.00     0.016 A 
BRANCH  32  37
HETATM   37  O   UNL     1     -41.027  58.970 -50.574  1.00  0.00    -0.355 OA
HETATM   38  C   UNL     1     -39.761  59.619 -50.545  1.00  0.00     0.210 C 
ENDBRANCH  32  37
ENDBRANCH  30  31
ENDBRANCH   1  29
TORSDOF 8
ENDMDL
MODEL 6
REMARK VINA RESULT:      -8.7      1.758      8.675
REMARK  8 active torsions:
REMARK  status: ('A' for Active; 'I' for Inactive)
REMARK    1  A    between atoms: O_2  and  C_3 
REMARK    2  A    between atoms: C_4  and  C_5 
REMARK    3  A    between atoms: N_6  and  N_7 
REMARK    4  A    between atoms: C_18  and  C_19 
REMARK       I    between atoms: C_19  and  N_20 
REMARK    5  A    between atoms: N_20  and  C_21 
REMARK    6  A    between atoms: C_21  and  C_22 
REMARK    7  A    between atoms: C_22  and  C_23 
REMARK    8  A    between atoms: C_30  and  N_31 
ROOT
HETATM    1  N   UNL     1     -41.475  59.302 -53.292  1.00  0.00    -0.202 N 
HETATM    2  C   UNL     1     -41.808  58.387 -54.270  1.00  0.00     0.183 A 
HETATM    3  C   UNL     1     -41.703  57.128 -53.685  1.00  0.00     0.124 A 
HETATM    4  N   UNL     1     -42.038  56.008 -54.371  1.00  0.00    -0.242 NA
HETATM    5  C   UNL     1     -42.405  56.210 -55.643  1.00  0.00     0.086 A 
HETATM    6  C   UNL     1     -42.494  57.504 -56.221  1.00  0.00     0.088 A 
HETATM    7  N   UNL     1     -42.230  58.632 -55.534  1.00  0.00    -0.225 NA
HETATM    8  C   UNL     1     -42.695  55.095 -56.419  1.00  0.00     0.034 A 
HETATM    9  C   UNL     1     -43.058  55.216 -57.760  1.00  0.00     0.002 A 
HETATM   10  C   UNL     1     -43.136  56.476 -58.334  1.00  0.00     0.002 A 
HETATM   11  C   UNL     1     -42.859  57.605 -57.559  1.00  0.00     0.034 A 
HETATM   12  C   UNL     1     -41.252  57.292 -52.344  1.00  0.00     0.104 C 
HETATM   13  C   UNL     1     -40.872  58.621 -52.239  1.00  0.00     0.123 C 
ENDROOT
BRANCH  12  14
HETATM   14  C   UNL     1     -41.279  56.299 -51.279  1.00  0.00     0.257 C 
HETATM   15  N   UNL     1     -41.482  55.004 -51.710  1.00  0.00    -0.356 N 
HETATM   16  H   UNL     1     -41.380  54.889 -52.713  1.00  0.00     0.162 HD
HETATM   17  O   UNL     1     -41.029  56.594 -50.117  1.00  0.00    -0.267 OA
BRANCH  15  18
HETATM   18  C   UNL     1     -41.189  53.831 -50.910  1.00  0.00     0.127 C 
BRANCH  18  19
HETATM   19  C   UNL     1     -39.839  53.136 -51.136  1.00  0.00     0.053 C 
BRANCH  19  20
HETATM   20  C   UNL     1     -39.847  51.979 -52.111  1.00  0.00    -0.082 C 
HETATM   21  C   UNL     1     -40.115  52.292 -53.562  1.00  0.00     0.034 C 
HETATM   22  C   UNL     1     -40.401  51.046 -54.409  1.00  0.00     0.005 C 
HETATM   23  C   UNL     1     -39.452  49.904 -54.064  1.00  0.00     0.004 C 
HETATM   24  C   UNL     1     -39.560  49.527 -52.588  1.00  0.00     0.027 C 
HETATM   25  C   UNL     1     -39.602  50.724 -51.691  1.00  0.00    -0.024 C 
ENDBRANCH  19  20
ENDBRANCH  18  19
ENDBRANCH  15  18
ENDBRANCH  12  14
BRANCH  13  26
HETATM   26  N   UNL     1     -40.240  59.321 -51.239  1.00  0.00    -0.286 NA
HETATM   27  H   UNL     1     -39.666  58.749 -50.617  1.00  0.00     0.125 HD
HETATM   28  H   UNL     1     -39.618  60.053 -51.609  1.00  0.00     0.125 HD
ENDBRANCH  13  26
BRANCH   1  29
HETATM   29  N   UNL     1     -41.795  60.630 -53.154  1.00  0.00    -0.176 NA
HETATM   30  C   UNL     1     -43.083  60.778 -53.051  1.00  0.00     0.153 C 
BRANCH  30  31
HETATM   31  C   UNL     1     -43.689  62.003 -52.481  1.00  0.00     0.016 A 
HETATM   32  C   UNL     1     -44.709  61.886 -51.519  1.00  0.00     0.080 A 
HETATM   33  C   UNL     1     -45.126  63.036 -50.839  1.00  0.00     0.037 A 
HETATM   34  C   UNL     1     -44.537  64.274 -51.110  1.00  0.00     0.003 A 
HETATM   35  C   UNL     1     -43.538  64.383 -52.075  1.00  0.00     0.001 A 
HETATM   36  C   UNL     1     -43.112  63.248 -52.763  1.00  0.00     0.016 A 
BRANCH  32  37
HETATM   37  O   UNL     1     -45.210  60.630 -51.296  1.00  0.00    -0.355 OA
HETATM   38  C   UNL     1     -46.564  60.380 -51.652  1.00  0.00     0.210 C 
ENDBRANCH  32  37
ENDBRANCH  30  31
ENDBRANCH   1  29
TORSDOF 8
ENDMDL
MODEL 7
REMARK VINA RESULT:      -8.7      2.070      6.607
REMARK  8 active torsions:
REMARK  status: ('A' for Active; 'I' for Inactive)
REMARK    1  A    between atoms: O_2  and  C_3 
REMARK    2  A    between atoms: C_4  and  C_5 
REMARK    3  A    between atoms: N_6  and  N_7 
REMARK    4  A    between atoms: C_18  and  C_19 
REMARK       I    between atoms: C_19  and  N_20 
REMARK    5  A    between atoms: N_20  and  C_21 
REMARK    6  A    between atoms: C_21  and  C_22 
REMARK    7  A    between atoms: C_22  and  C_23 
REMARK    8  A    between atoms: C_30  and  N_31 
ROOT
HETATM    1  N   UNL     1     -42.284  55.271 -54.292  1.00  0.00    -0.202 N 
HETATM    2  C   UNL     1     -42.118  56.366 -53.467  1.00  0.00     0.183 A 
HETATM    3  C   UNL     1     -42.919  57.378 -53.989  1.00  0.00     0.124 A 
HETATM    4  N   UNL     1     -43.034  58.573 -53.359  1.00  0.00    -0.242 NA
HETATM    5  C   UNL     1     -42.282  58.709 -52.260  1.00  0.00     0.086 A 
HETATM    6  C   UNL     1     -41.464  57.665 -51.753  1.00  0.00     0.088 A 
HETATM    7  N   UNL     1     -41.389  56.450 -52.328  1.00  0.00    -0.225 NA
HETATM    8  C   UNL     1     -42.304  59.935 -51.607  1.00  0.00     0.034 A 
HETATM    9  C   UNL     1     -41.529  60.171 -50.472  1.00  0.00     0.002 A 
HETATM   10  C   UNL     1     -40.719  59.159 -49.978  1.00  0.00     0.002 A 
HETATM   11  C   UNL     1     -40.699  57.917 -50.619  1.00  0.00     0.034 A 
HETATM   12  C   UNL     1     -43.539  56.893 -55.176  1.00  0.00     0.104 C 
HETATM   13  C   UNL     1     -42.908  55.692 -55.462  1.00  0.00     0.123 C 
ENDROOT
BRANCH  12  14
HETATM   14  C   UNL     1     -44.666  57.485 -55.884  1.00  0.00     0.257 C 
HETATM   15  N   UNL     1     -44.546  57.476 -57.258  1.00  0.00    -0.356 N 
HETATM   16  H   UNL     1     -43.797  56.881 -57.597  1.00  0.00     0.162 HD
HETATM   17  O   UNL     1     -45.675  57.851 -55.295  1.00  0.00    -0.267 OA
BRANCH  15  18
HETATM   18  C   UNL     1     -45.661  57.662 -58.168  1.00  0.00     0.127 C 
BRANCH  18  19
HETATM   19  C   UNL     1     -45.367  57.597 -59.673  1.00  0.00     0.053 C 
BRANCH  19  20
HETATM   20  C   UNL     1     -44.340  58.582 -60.188  1.00  0.00    -0.082 C 
HETATM   21  C   UNL     1     -42.936  58.076 -60.405  1.00  0.00     0.034 C 
HETATM   22  C   UNL     1     -41.914  59.197 -60.631  1.00  0.00     0.005 C 
HETATM   23  C   UNL     1     -42.462  60.273 -61.562  1.00  0.00     0.004 C 
HETATM   24  C   UNL     1     -43.743  60.885 -61.000  1.00  0.00     0.027 C 
HETATM   25  C   UNL     1     -44.683  59.855 -60.460  1.00  0.00    -0.024 C 
ENDBRANCH  19  20
ENDBRANCH  18  19
ENDBRANCH  15  18
ENDBRANCH  12  14
BRANCH  13  26
HETATM   26  N   UNL     1     -42.986  54.847 -56.543  1.00  0.00    -0.286 NA
HETATM   27  H   UNL     1     -42.096  54.424 -56.816  1.00  0.00     0.125 HD
HETATM   28  H   UNL     1     -43.635  54.065 -56.380  1.00  0.00     0.125 HD
ENDBRANCH  13  26
BRANCH   1  29
HETATM   29  N   UNL     1     -42.102  53.930 -54.057  1.00  0.00    -0.176 NA
HETATM   30  C   UNL     1     -40.850  53.610 -54.203  1.00  0.00     0.153 C 
BRANCH  30  31
HETATM   31  C   UNL     1     -40.284  52.372 -53.620  1.00  0.00     0.016 A 
HETATM   32  C   UNL     1     -39.942  52.344 -52.255  1.00  0.00     0.080 A 
HETATM   33  C   UNL     1     -39.607  51.118 -51.672  1.00  0.00     0.037 A 
HETATM   34  C   UNL     1     -39.615  49.944 -52.432  1.00  0.00     0.003 A 
HETATM   35  C   UNL     1     -39.941  49.984 -53.786  1.00  0.00     0.001 A 
HETATM   36  C   UNL     1     -40.275  51.197 -54.383  1.00  0.00     0.016 A 
BRANCH  32  37
HETATM   37  O   UNL     1     -39.988  53.536 -51.581  1.00  0.00    -0.355 OA
HETATM   38  C   UNL     1     -40.506  53.532 -50.256  1.00  0.00     0.210 C 
ENDBRANCH  32  37
ENDBRANCH  30  31
ENDBRANCH   1  29
TORSDOF 8
ENDMDL
MODEL 8
REMARK VINA RESULT:      -8.6      2.579      8.611
REMARK  8 active torsions:
REMARK  status: ('A' for Active; 'I' for Inactive)
REMARK    1  A    between atoms: O_2  and  C_3 
REMARK    2  A    between atoms: C_4  and  C_5 
REMARK    3  A    between atoms: N_6  and  N_7 
REMARK    4  A    between atoms: C_18  and  C_19 
REMARK       I    between atoms: C_19  and  N_20 
REMARK    5  A    between atoms: N_20  and  C_21 
REMARK    6  A    between atoms: C_21  and  C_22 
REMARK    7  A    between atoms: C_22  and  C_23 
REMARK    8  A    between atoms: C_30  and  N_31 
ROOT
HETATM    1  N   UNL     1     -43.221  58.570 -56.086  1.00  0.00    -0.202 N 
HETATM    2  C   UNL     1     -42.770  58.660 -54.783  1.00  0.00     0.183 A 
HETATM    3  C   UNL     1     -42.356  57.382 -54.419  1.00  0.00     0.124 A 
HETATM    4  N   UNL     1     -41.788  57.149 -53.210  1.00  0.00    -0.242 NA
HETATM    5  C   UNL     1     -41.724  58.213 -52.400  1.00  0.00     0.086 A 
HETATM    6  C   UNL     1     -42.164  59.505 -52.790  1.00  0.00     0.088 A 
HETATM    7  N   UNL     1     -42.668  59.769 -54.011  1.00  0.00    -0.225 NA
HETATM    8  C   UNL     1     -41.214  58.023 -51.122  1.00  0.00     0.034 A 
HETATM    9  C   UNL     1     -41.138  59.072 -50.205  1.00  0.00     0.002 A 
HETATM   10  C   UNL     1     -41.576  60.334 -50.576  1.00  0.00     0.002 A 
HETATM   11  C   UNL     1     -42.078  60.539 -51.864  1.00  0.00     0.034 A 
HETATM   12  C   UNL     1     -42.608  56.501 -55.509  1.00  0.00     0.104 C 
HETATM   13  C   UNL     1     -43.383  57.225 -56.402  1.00  0.00     0.123 C 
ENDROOT
BRANCH  12  14
HETATM   14  C   UNL     1     -42.079  55.156 -55.693  1.00  0.00     0.257 C 
HETATM   15  N   UNL     1     -40.796  54.977 -55.221  1.00  0.00    -0.356 N 
HETATM   16  H   UNL     1     -40.471  55.736 -54.630  1.00  0.00     0.162 HD
HETATM   17  O   UNL     1     -42.772  54.246 -56.131  1.00  0.00    -0.267 OA
BRANCH  15  18
HETATM   18  C   UNL     1     -40.204  53.679 -54.959  1.00  0.00     0.127 C 
BRANCH  18  19
HETATM   19  C   UNL     1     -40.942  52.746 -53.989  1.00  0.00     0.053 C 
BRANCH  19  20
HETATM   20  C   UNL     1     -41.080  53.247 -52.567  1.00  0.00    -0.082 C 
HETATM   21  C   UNL     1     -39.913  53.035 -51.636  1.00  0.00     0.034 C 
HETATM   22  C   UNL     1     -40.255  53.295 -50.164  1.00  0.00     0.005 C 
HETATM   23  C   UNL     1     -41.111  54.546 -50.001  1.00  0.00     0.004 C 
HETATM   24  C   UNL     1     -42.412  54.428 -50.792  1.00  0.00     0.027 C 
HETATM   25  C   UNL     1     -42.201  53.875 -52.166  1.00  0.00    -0.024 C 
ENDBRANCH  19  20
ENDBRANCH  18  19
ENDBRANCH  15  18
ENDBRANCH  12  14
BRANCH  13  26
HETATM   26  N   UNL     1     -44.036  56.864 -57.557  1.00  0.00    -0.286 NA
HETATM   27  H   UNL     1     -45.021  56.624 -57.430  1.00  0.00     0.125 HD
HETATM   28  H   UNL     1     -44.013  57.609 -58.266  1.00  0.00     0.125 HD
ENDBRANCH  13  26
BRANCH   1  29
HETATM   29  N   UNL     1     -43.339  59.523 -57.066  1.00  0.00    -0.176 NA
HETATM   30  C   UNL     1     -42.190  59.730 -57.640  1.00  0.00     0.153 C 
BRANCH  30  31
HETATM   31  C   UNL     1     -42.080  60.362 -58.974  1.00  0.00     0.016 A 
HETATM   32  C   UNL     1     -41.605  61.682 -59.076  1.00  0.00     0.080 A 
HETATM   33  C   UNL     1     -41.310  62.194 -60.344  1.00  0.00     0.037 A 
HETATM   34  C   UNL     1     -41.483  61.405 -61.486  1.00  0.00     0.003 A 
HETATM   35  C   UNL     1     -41.969  60.104 -61.376  1.00  0.00     0.001 A 
HETATM   36  C   UNL     1     -42.269  59.580 -60.121  1.00  0.00     0.016 A 
BRANCH  32  37
HETATM   37  O   UNL     1     -41.438  62.373 -57.904  1.00  0.00    -0.355 OA
HETATM   38  C   UNL     1     -42.120  63.612 -57.758  1.00  0.00     0.210 C 
ENDBRANCH  32  37
ENDBRANCH  30  31
ENDBRANCH   1  29
TORSDOF 8
ENDMDL
MODEL 9
REMARK VINA RESULT:      -8.5      2.136      8.591
REMARK  8 active torsions:
REMARK  status: ('A' for Active; 'I' for Inactive)
REMARK    1  A    between atoms: O_2  and  C_3 
REMARK    2  A    between atoms: C_4  and  C_5 
REMARK    3  A    between atoms: N_6  and  N_7 
REMARK    4  A    between atoms: C_18  and  C_19 
REMARK       I    between atoms: C_19  and  N_20 
REMARK    5  A    between atoms: N_20  and  C_21 
REMARK    6  A    between atoms: C_21  and  C_22 
REMARK    7  A    between atoms: C_22  and  C_23 
REMARK    8  A    between atoms: C_30  and  N_31 
ROOT
HETATM    1  N   UNL     1     -43.302  56.526 -53.294  1.00  0.00    -0.202 N 
HETATM    2  C   UNL     1     -42.485  55.412 -53.291  1.00  0.00     0.183 A 
HETATM    3  C   UNL     1     -42.324  55.038 -54.623  1.00  0.00     0.124 A 
HETATM    4  N   UNL     1     -41.508  54.011 -54.966  1.00  0.00    -0.242 NA
HETATM    5  C   UNL     1     -40.942  53.368 -53.937  1.00  0.00     0.086 A 
HETATM    6  C   UNL     1     -41.131  53.762 -52.586  1.00  0.00     0.088 A 
HETATM    7  N   UNL     1     -41.883  54.822 -52.231  1.00  0.00    -0.225 NA
HETATM    8  C   UNL     1     -40.150  52.263 -54.220  1.00  0.00     0.034 A 
HETATM    9  C   UNL     1     -39.546  51.520 -53.206  1.00  0.00     0.002 A 
HETATM   10  C   UNL     1     -39.735  51.893 -51.883  1.00  0.00     0.002 A 
HETATM   11  C   UNL     1     -40.520  53.011 -51.587  1.00  0.00     0.034 A 
HETATM   12  C   UNL     1     -43.097  55.917 -55.433  1.00  0.00     0.104 C 
HETATM   13  C   UNL     1     -43.886  56.639 -54.551  1.00  0.00     0.123 C 
ENDROOT
BRANCH  12  14
HETATM   14  C   UNL     1     -43.006  56.091 -56.876  1.00  0.00     0.257 C 
HETATM   15  N   UNL     1     -42.700  57.374 -57.279  1.00  0.00    -0.356 N 
HETATM   16  H   UNL     1     -42.379  57.972 -56.524  1.00  0.00     0.162 HD
HETATM   17  O   UNL     1     -43.087  55.141 -57.645  1.00  0.00    -0.267 OA
BRANCH  15  18
HETATM   18  C   UNL     1     -42.204  57.711 -58.600  1.00  0.00     0.127 C 
BRANCH  18  19
HETATM   19  C   UNL     1     -43.200  58.316 -59.599  1.00  0.00     0.053 C 
BRANCH  19  20
HETATM   20  C   UNL     1     -44.432  57.486 -59.887  1.00  0.00    -0.082 C 
HETATM   21  C   UNL     1     -45.758  58.017 -59.403  1.00  0.00     0.034 C 
HETATM   22  C   UNL     1     -46.888  56.982 -59.470  1.00  0.00     0.005 C 
HETATM   23  C   UNL     1     -46.842  56.187 -60.770  1.00  0.00     0.004 C 
HETATM   24  C   UNL     1     -45.506  55.463 -60.924  1.00  0.00     0.027 C 
HETATM   25  C   UNL     1     -44.339  56.330 -60.569  1.00  0.00    -0.024 C 
ENDBRANCH  19  20
ENDBRANCH  18  19
ENDBRANCH  15  18
ENDBRANCH  12  14
BRANCH  13  26
HETATM   26  N   UNL     1     -44.916  57.528 -54.753  1.00  0.00    -0.286 NA
HETATM   27  H   UNL     1     -44.924  57.966 -55.676  1.00  0.00     0.125 HD
HETATM   28  H   UNL     1     -45.839  57.086 -54.639  1.00  0.00     0.125 HD
ENDBRANCH  13  26
BRANCH   1  29
HETATM   29  N   UNL     1     -43.452  57.535 -52.375  1.00  0.00    -0.176 NA
HETATM   30  C   UNL     1     -42.525  58.435 -52.533  1.00  0.00     0.153 C 
BRANCH  30  31
HETATM   31  C   UNL     1     -42.664  59.808 -51.997  1.00  0.00     0.016 A 
HETATM   32  C   UNL     1     -43.383  60.767 -52.734  1.00  0.00     0.080 A 
HETATM   33  C   UNL     1     -43.684  61.992 -52.128  1.00  0.00     0.037 A 
HETATM   34  C   UNL     1     -43.281  62.253 -50.815  1.00  0.00     0.003 A 
HETATM   35  C   UNL     1     -42.557  61.302 -50.098  1.00  0.00     0.001 A 
HETATM   36  C   UNL     1     -42.246  60.078 -50.687  1.00  0.00     0.016 A 
BRANCH  32  37
HETATM   37  O   UNL     1     -43.763  60.417 -54.003  1.00  0.00    -0.355 OA
HETATM   38  C   UNL     1     -43.122  61.067 -55.094  1.00  0.00     0.210 C 
ENDBRANCH  32  37
ENDBRANCH  30  31
ENDBRANCH   1  29
TORSDOF 8
ENDMDL
MODEL 10
REMARK VINA RESULT:      -8.2      2.267      3.077
REMARK  8 active torsions:
REMARK  status: ('A' for Active; 'I' for Inactive)
REMARK    1  A    between atoms: O_2  and  C_3 
REMARK    2  A    between atoms: C_4  and  C_5 
REMARK    3  A    between atoms: N_6  and  N_7 
REMARK    4  A    between atoms: C_18  and  C_19 
REMARK       I    between atoms: C_19  and  N_20 
REMARK    5  A    between atoms: N_20  and  C_21 
REMARK    6  A    between atoms: C_21  and  C_22 
REMARK    7  A    between atoms: C_22  and  C_23 
REMARK    8  A    between atoms: C_30  and  N_31 
ROOT
HETATM    1  N   UNL     1     -43.636  56.489 -52.795  1.00  0.00    -0.202 N 
HETATM    2  C   UNL     1     -44.212  57.394 -53.664  1.00  0.00     0.183 A 
HETATM    3  C   UNL     1     -44.000  58.657 -53.117  1.00  0.00     0.124 A 
HETATM    4  N   UNL     1     -44.387  59.778 -53.775  1.00  0.00    -0.242 NA
HETATM    5  C   UNL     1     -45.028  59.564 -54.930  1.00  0.00     0.086 A 
HETATM    6  C   UNL     1     -45.242  58.265 -55.463  1.00  0.00     0.088 A 
HETATM    7  N   UNL     1     -44.805  57.145 -54.857  1.00  0.00    -0.225 NA
HETATM    8  C   UNL     1     -45.509  60.671 -55.618  1.00  0.00     0.034 A 
HETATM    9  C   UNL     1     -46.213  60.536 -56.815  1.00  0.00     0.002 A 
HETATM   10  C   UNL     1     -46.435  59.269 -57.335  1.00  0.00     0.002 A 
HETATM   11  C   UNL     1     -45.944  58.149 -56.658  1.00  0.00     0.034 A 
HETATM   12  C   UNL     1     -43.327  58.499 -51.872  1.00  0.00     0.104 C 
HETATM   13  C   UNL     1     -43.367  57.141 -51.596  1.00  0.00     0.123 C 
ENDROOT
BRANCH  12  14
HETATM   14  C   UNL     1     -42.650  59.534 -51.101  1.00  0.00     0.257 C 
HETATM   15  N   UNL     1     -43.319  60.738 -51.051  1.00  0.00    -0.356 N 
HETATM   16  H   UNL     1     -44.278  60.685 -51.378  1.00  0.00     0.162 HD
HETATM   17  O   UNL     1     -41.629  59.299 -50.466  1.00  0.00    -0.267 OA
BRANCH  15  18
HETATM   18  C   UNL     1     -43.046  61.775 -50.074  1.00  0.00     0.127 C 
BRANCH  18  19
HETATM   19  C   UNL     1     -44.168  62.776 -49.767  1.00  0.00     0.053 C 
BRANCH  19  20
HETATM   20  C   UNL     1     -45.125  62.378 -48.664  1.00  0.00    -0.082 C 
HETATM   21  C   UNL     1     -44.661  61.332 -47.682  1.00  0.00     0.034 C 
HETATM   22  C   UNL     1     -45.788  60.782 -46.801  1.00  0.00     0.005 C 
HETATM   23  C   UNL     1     -46.710  61.894 -46.313  1.00  0.00     0.004 C 
HETATM   24  C   UNL     1     -47.330  62.649 -47.487  1.00  0.00     0.027 C 
HETATM   25  C   UNL     1     -46.335  62.958 -48.561  1.00  0.00    -0.024 C 
ENDBRANCH  19  20
ENDBRANCH  18  19
ENDBRANCH  15  18
ENDBRANCH  12  14
BRANCH  13  26
HETATM   26  N   UNL     1     -43.004  56.417 -50.485  1.00  0.00    -0.286 NA
HETATM   27  H   UNL     1     -43.670  55.690 -50.216  1.00  0.00     0.125 HD
HETATM   28  H   UNL     1     -42.099  55.943 -50.609  1.00  0.00     0.125 HD
ENDBRANCH  13  26
BRANCH   1  29
HETATM   29  N   UNL     1     -43.173  55.213 -53.000  1.00  0.00    -0.176 NA
HETATM   30  C   UNL     1     -41.926  55.236 -53.369  1.00  0.00     0.153 C 
BRANCH  30  31
HETATM   31  C   UNL     1     -41.051  54.048 -53.254  1.00  0.00     0.016 A 
HETATM   32  C   UNL     1     -40.516  53.702 -51.999  1.00  0.00     0.080 A 
HETATM   33  C   UNL     1     -39.867  52.470 -51.863  1.00  0.00     0.037 A 
HETATM   34  C   UNL     1     -39.755  51.601 -52.953  1.00  0.00     0.003 A 
HETATM   35  C   UNL     1     -40.274  51.959 -54.195  1.00  0.00     0.001 A 
HETATM   36  C   UNL     1     -40.922  53.183 -54.349  1.00  0.00     0.016 A 
BRANCH  32  37
HETATM   37  O   UNL     1     -40.696  54.599 -50.980  1.00  0.00    -0.355 OA
HETATM   38  C   UNL     1     -39.883  54.464 -49.821  1.00  0.00     0.210 C 
ENDBRANCH  32  37
ENDBRANCH  30  31
ENDBRANCH   1  29
TORSDOF 8
ENDMDL
