MODEL 1
REMARK VINA RESULT:      -9.1      0.000      0.000
REMARK  5 active torsions:
REMARK  status: ('A' for Active; 'I' for Inactive)
REMARK    1  A    between atoms: C_3  and  O_4 
REMARK    2  A    between atoms: C_8  and  C_9 
REMARK       I    between atoms: N_10  and  C_11 
REMARK    3  A    between atoms: C_11  and  C_12 
REMARK    4  A    between atoms: C_12  and  C_13 
REMARK    5  A    between atoms: C_13  and  C_14 
ROOT
HETATM    1  C   UNL     1     -41.188  55.625 -53.802  1.00  0.00     0.171 C 
HETATM    2  N   UNL     1     -41.864  56.131 -52.581  1.00  0.00    -0.338 N 
HETATM    3  C   UNL     1     -43.239  55.905 -52.430  1.00  0.00     0.221 C 
HETATM    4  O   UNL     1     -43.970  55.559 -53.359  1.00  0.00    -0.273 OA
HETATM    5  C   UNL     1     -40.966  56.103 -51.407  1.00  0.00     0.131 C 
HETATM    6  C   UNL     1     -40.655  54.646 -50.976  1.00  0.00     0.061 C 
HETATM    7  C   UNL     1     -40.501  53.762 -52.179  1.00  0.00    -0.019 A 
HETATM    8  C   UNL     1     -40.769  54.214 -53.464  1.00  0.00     0.044 A 
HETATM    9  N   UNL     1     -40.511  53.188 -54.330  1.00  0.00    -0.356 N 
HETATM   10  H   UNL     1     -40.584  53.235 -55.338  1.00  0.00     0.166 HD
HETATM   11  C   UNL     1     -40.187  52.048 -53.621  1.00  0.00     0.043 A 
HETATM   12  C   UNL     1     -40.158  52.388 -52.266  1.00  0.00    -0.001 A 
HETATM   13  C   UNL     1     -39.920  50.751 -54.076  1.00  0.00     0.030 A 
HETATM   14  C   UNL     1     -39.611  49.778 -53.119  1.00  0.00     0.002 A 
HETATM   15  C   UNL     1     -39.566  50.092 -51.763  1.00  0.00     0.001 A 
HETATM   16  C   UNL     1     -39.836  51.393 -51.323  1.00  0.00     0.014 A 
ENDROOT
BRANCH   1  17
HETATM   17  C   UNL     1     -41.825  55.933 -55.148  1.00  0.00    -0.029 A 
HETATM   18  C   UNL     1     -42.339  54.956 -56.012  1.00  0.00     0.012 A 
HETATM   19  C   UNL     1     -42.897  55.304 -57.248  1.00  0.00     0.038 A 
HETATM   20  C   UNL     1     -42.970  56.641 -57.641  1.00  0.00     0.074 A 
HETATM   21  C   UNL     1     -42.516  57.644 -56.772  1.00  0.00    -0.028 A 
HETATM   22  C   UNL     1     -42.667  59.097 -57.126  1.00  0.00     0.051 C 
HETATM   23  C   UNL     1     -41.949  57.280 -55.540  1.00  0.00     0.019 A 
BRANCH  20  24
HETATM   24  O   UNL     1     -43.517  57.066 -58.825  1.00  0.00    -0.355 OA
HETATM   25  C   UNL     1     -42.819  56.674 -60.001  1.00  0.00     0.210 C 
ENDBRANCH  20  24
ENDBRANCH   1  17
BRANCH   3  26
HETATM   26  C   UNL     1     -43.858  56.173 -51.059  1.00  0.00     0.108 C 
BRANCH  26  27
HETATM   27  C   UNL     1     -44.656  57.483 -51.028  1.00  0.00     0.051 C 
BRANCH  27  28
HETATM   28  C   UNL     1     -43.915  58.641 -51.621  1.00  0.00    -0.021 A 
HETATM   29  C   UNL     1     -44.097  59.251 -52.847  1.00  0.00     0.120 A 
HETATM   30  N   UNL     1     -43.184  60.261 -52.920  1.00  0.00    -0.285 N 
HETATM   31  C   UNL     1     -43.004  61.185 -54.012  1.00  0.00     0.179 C 
HETATM   32  N   UNL     1     -42.402  60.351 -51.831  1.00  0.00    -0.185 NA
HETATM   33  C   UNL     1     -42.836  59.357 -51.050  1.00  0.00     0.147 A 
ENDBRANCH  27  28
ENDBRANCH  26  27
ENDBRANCH   3  26
TORSDOF 5
ENDMDL
MODEL 2
REMARK VINA RESULT:      -8.6      1.929      2.415
REMARK  5 active torsions:
REMARK  status: ('A' for Active; 'I' for Inactive)
REMARK    1  A    between atoms: C_3  and  O_4 
REMARK    2  A    between atoms: C_8  and  C_9 
REMARK       I    between atoms: N_10  and  C_11 
REMARK    3  A    between atoms: C_11  and  C_12 
REMARK    4  A    between atoms: C_12  and  C_13 
REMARK    5  A    between atoms: C_13  and  C_14 
ROOT
HETATM    1  C   UNL     1     -41.777  56.668 -55.373  1.00  0.00     0.171 C 
HETATM    2  N   UNL     1     -42.529  57.422 -54.338  1.00  0.00    -0.338 N 
HETATM    3  C   UNL     1     -43.889  57.137 -54.153  1.00  0.00     0.221 C 
HETATM    4  O   UNL     1     -44.560  56.503 -54.968  1.00  0.00    -0.273 OA
HETATM    5  C   UNL     1     -41.673  57.771 -53.185  1.00  0.00     0.131 C 
HETATM    6  C   UNL     1     -41.273  56.506 -52.381  1.00  0.00     0.061 C 
HETATM    7  C   UNL     1     -41.015  55.353 -53.306  1.00  0.00    -0.019 A 
HETATM    8  C   UNL     1     -41.271  55.431 -54.669  1.00  0.00     0.044 A 
HETATM    9  N   UNL     1     -40.910  54.238 -55.230  1.00  0.00    -0.356 N 
HETATM   10  H   UNL     1     -40.951  54.013 -56.216  1.00  0.00     0.166 HD
HETATM   11  C   UNL     1     -40.531  53.351 -54.242  1.00  0.00     0.043 A 
HETATM   12  C   UNL     1     -40.573  54.035 -53.024  1.00  0.00    -0.001 A 
HETATM   13  C   UNL     1     -40.156  52.006 -54.336  1.00  0.00     0.030 A 
HETATM   14  C   UNL     1     -39.812  51.344 -53.151  1.00  0.00     0.002 A 
HETATM   15  C   UNL     1     -39.836  52.004 -51.925  1.00  0.00     0.001 A 
HETATM   16  C   UNL     1     -40.213  53.349 -51.847  1.00  0.00     0.014 A 
ENDROOT
BRANCH   1  17
HETATM   17  C   UNL     1     -42.388  56.562 -56.761  1.00  0.00    -0.029 A 
HETATM   18  C   UNL     1     -42.963  55.393 -57.276  1.00  0.00     0.012 A 
HETATM   19  C   UNL     1     -43.493  55.356 -58.572  1.00  0.00     0.038 A 
HETATM   20  C   UNL     1     -43.473  56.496 -59.377  1.00  0.00     0.074 A 
HETATM   21  C   UNL     1     -42.956  57.695 -58.868  1.00  0.00    -0.028 A 
HETATM   22  C   UNL     1     -43.007  58.961 -59.676  1.00  0.00     0.051 C 
HETATM   23  C   UNL     1     -42.418  57.714 -57.570  1.00  0.00     0.019 A 
BRANCH  20  24
HETATM   24  O   UNL     1     -43.987  56.547 -60.648  1.00  0.00    -0.355 OA
HETATM   25  C   UNL     1     -44.910  55.518 -60.981  1.00  0.00     0.210 C 
ENDBRANCH  20  24
ENDBRANCH   1  17
BRANCH   3  26
HETATM   26  C   UNL     1     -44.572  57.705 -52.911  1.00  0.00     0.108 C 
BRANCH  26  27
HETATM   27  C   UNL     1     -45.048  59.148 -53.118  1.00  0.00     0.051 C 
BRANCH  27  28
HETATM   28  C   UNL     1     -45.308  59.874 -51.835  1.00  0.00    -0.021 A 
HETATM   29  C   UNL     1     -45.096  61.206 -51.533  1.00  0.00     0.120 A 
HETATM   30  N   UNL     1     -45.496  61.383 -50.242  1.00  0.00    -0.285 N 
HETATM   31  C   UNL     1     -45.475  62.614 -49.492  1.00  0.00     0.179 C 
HETATM   32  N   UNL     1     -45.946  60.255 -49.665  1.00  0.00    -0.185 NA
HETATM   33  C   UNL     1     -45.817  59.337 -50.627  1.00  0.00     0.147 A 
ENDBRANCH  27  28
ENDBRANCH  26  27
ENDBRANCH   3  26
TORSDOF 5
ENDMDL
MODEL 3
REMARK VINA RESULT:      -8.4      2.233      5.947
REMARK  5 active torsions:
REMARK  status: ('A' for Active; 'I' for Inactive)
REMARK    1  A    between atoms: C_3  and  O_4 
REMARK    2  A    between atoms: C_8  and  C_9 
REMARK       I    between atoms: N_10  and  C_11 
REMARK    3  A    between atoms: C_11  and  C_12 
REMARK    4  A    between atoms: C_12  and  C_13 
REMARK    5  A    between atoms: C_13  and  C_14 
ROOT
HETATM    1  C   UNL     1     -43.040  55.106 -52.689  1.00  0.00     0.171 C 
HETATM    2  N   UNL     1     -42.808  55.925 -51.472  1.00  0.00    -0.338 N 
HETATM    3  C   UNL     1     -41.563  56.549 -51.309  1.00  0.00     0.221 C 
HETATM    4  O   UNL     1     -40.567  56.245 -51.965  1.00  0.00    -0.273 OA
HETATM    5  C   UNL     1     -44.047  56.591 -51.016  1.00  0.00     0.131 C 
HETATM    6  C   UNL     1     -44.493  57.688 -52.017  1.00  0.00     0.061 C 
HETATM    7  C   UNL     1     -44.242  57.248 -53.429  1.00  0.00    -0.019 A 
HETATM    8  C   UNL     1     -43.557  56.077 -53.724  1.00  0.00     0.044 A 
HETATM    9  N   UNL     1     -43.518  55.949 -55.085  1.00  0.00    -0.356 N 
HETATM   10  H   UNL     1     -43.112  55.173 -55.593  1.00  0.00     0.166 HD
HETATM   11  C   UNL     1     -44.066  57.069 -55.677  1.00  0.00     0.043 A 
HETATM   12  C   UNL     1     -44.544  57.894 -54.656  1.00  0.00    -0.001 A 
HETATM   13  C   UNL     1     -44.174  57.410 -57.031  1.00  0.00     0.030 A 
HETATM   14  C   UNL     1     -44.791  58.625 -57.347  1.00  0.00     0.002 A 
HETATM   15  C   UNL     1     -45.285  59.462 -56.348  1.00  0.00     0.001 A 
HETATM   16  C   UNL     1     -45.169  59.109 -54.999  1.00  0.00     0.014 A 
ENDROOT
BRANCH   1  17
HETATM   17  C   UNL     1     -41.988  54.075 -53.065  1.00  0.00    -0.029 A 
HETATM   18  C   UNL     1     -41.528  53.867 -54.372  1.00  0.00     0.012 A 
HETATM   19  C   UNL     1     -40.569  52.887 -54.655  1.00  0.00     0.038 A 
HETATM   20  C   UNL     1     -40.035  52.102 -53.631  1.00  0.00     0.074 A 
HETATM   21  C   UNL     1     -40.435  52.327 -52.306  1.00  0.00    -0.028 A 
HETATM   22  C   UNL     1     -39.810  51.563 -51.173  1.00  0.00     0.051 C 
HETATM   23  C   UNL     1     -41.405  53.306 -52.039  1.00  0.00     0.019 A 
BRANCH  20  24
HETATM   24  O   UNL     1     -39.081  51.135 -53.822  1.00  0.00    -0.355 OA
HETATM   25  C   UNL     1     -39.532  49.941 -54.449  1.00  0.00     0.210 C 
ENDBRANCH  20  24
ENDBRANCH   1  17
BRANCH   3  26
HETATM   26  C   UNL     1     -41.437  57.606 -50.213  1.00  0.00     0.108 C 
BRANCH  26  27
HETATM   27  C   UNL     1     -40.652  58.838 -50.682  1.00  0.00     0.051 C 
BRANCH  27  28
HETATM   28  C   UNL     1     -41.354  59.613 -51.753  1.00  0.00    -0.021 A 
HETATM   29  C   UNL     1     -42.348  60.564 -51.626  1.00  0.00     0.120 A 
HETATM   30  N   UNL     1     -42.653  60.982 -52.887  1.00  0.00    -0.285 N 
HETATM   31  C   UNL     1     -43.627  61.979 -53.254  1.00  0.00     0.179 C 
HETATM   32  N   UNL     1     -41.937  60.362 -53.840  1.00  0.00    -0.185 NA
HETATM   33  C   UNL     1     -41.160  59.520 -53.152  1.00  0.00     0.147 A 
ENDBRANCH  27  28
ENDBRANCH  26  27
ENDBRANCH   3  26
TORSDOF 5
ENDMDL
MODEL 4
REMARK VINA RESULT:      -8.4      2.240      6.131
REMARK  5 active torsions:
REMARK  status: ('A' for Active; 'I' for Inactive)
REMARK    1  A    between atoms: C_3  and  O_4 
REMARK    2  A    between atoms: C_8  and  C_9 
REMARK       I    between atoms: N_10  and  C_11 
REMARK    3  A    between atoms: C_11  and  C_12 
REMARK    4  A    between atoms: C_12  and  C_13 
REMARK    5  A    between atoms: C_13  and  C_14 
ROOT
HETATM    1  C   UNL     1     -43.036  55.770 -54.352  1.00  0.00     0.171 C 
HETATM    2  N   UNL     1     -42.944  57.063 -53.627  1.00  0.00    -0.338 N 
HETATM    3  C   UNL     1     -41.695  57.692 -53.530  1.00  0.00     0.221 C 
HETATM    4  O   UNL     1     -40.632  57.117 -53.766  1.00  0.00    -0.273 OA
HETATM    5  C   UNL     1     -44.177  57.863 -53.777  1.00  0.00     0.131 C 
HETATM    6  C   UNL     1     -44.344  58.366 -55.235  1.00  0.00     0.061 C 
HETATM    7  C   UNL     1     -43.895  57.317 -56.209  1.00  0.00    -0.019 A 
HETATM    8  C   UNL     1     -43.278  56.145 -55.795  1.00  0.00     0.044 A 
HETATM    9  N   UNL     1     -43.017  55.395 -56.908  1.00  0.00    -0.356 N 
HETATM   10  H   UNL     1     -42.602  54.473 -56.915  1.00  0.00     0.166 HD
HETATM   11  C   UNL     1     -43.352  56.108 -58.042  1.00  0.00     0.043 A 
HETATM   12  C   UNL     1     -43.922  57.315 -57.627  1.00  0.00    -0.001 A 
HETATM   13  C   UNL     1     -43.195  55.777 -59.393  1.00  0.00     0.030 A 
HETATM   14  C   UNL     1     -43.636  56.704 -60.344  1.00  0.00     0.002 A 
HETATM   15  C   UNL     1     -44.217  57.910 -59.958  1.00  0.00     0.001 A 
HETATM   16  C   UNL     1     -44.367  58.228 -58.604  1.00  0.00     0.014 A 
ENDROOT
BRANCH   1  17
HETATM   17  C   UNL     1     -42.033  54.683 -54.001  1.00  0.00    -0.029 A 
HETATM   18  C   UNL     1     -41.185  54.071 -54.933  1.00  0.00     0.012 A 
HETATM   19  C   UNL     1     -40.294  53.061 -54.548  1.00  0.00     0.038 A 
HETATM   20  C   UNL     1     -40.220  52.653 -53.216  1.00  0.00     0.074 A 
HETATM   21  C   UNL     1     -41.015  53.288 -52.251  1.00  0.00    -0.028 A 
HETATM   22  C   UNL     1     -40.890  52.936 -50.796  1.00  0.00     0.051 C 
HETATM   23  C   UNL     1     -41.912  54.291 -52.654  1.00  0.00     0.019 A 
BRANCH  20  24
HETATM   24  O   UNL     1     -39.363  51.686 -52.755  1.00  0.00    -0.355 OA
HETATM   25  C   UNL     1     -39.606  50.369 -53.235  1.00  0.00     0.210 C 
ENDBRANCH  20  24
ENDBRANCH   1  17
BRANCH   3  26
HETATM   26  C   UNL     1     -41.664  59.138 -53.040  1.00  0.00     0.108 C 
BRANCH  26  27
HETATM   27  C   UNL     1     -41.666  59.233 -51.509  1.00  0.00     0.051 C 
BRANCH  27  28
HETATM   28  C   UNL     1     -42.694  60.183 -50.977  1.00  0.00    -0.021 A 
HETATM   29  C   UNL     1     -44.056  59.998 -50.839  1.00  0.00     0.120 A 
HETATM   30  N   UNL     1     -44.554  61.148 -50.303  1.00  0.00    -0.285 N 
HETATM   31  C   UNL     1     -45.930  61.420 -49.967  1.00  0.00     0.179 C 
HETATM   32  N   UNL     1     -43.615  62.086 -50.090  1.00  0.00    -0.185 NA
HETATM   33  C   UNL     1     -42.489  61.505 -50.514  1.00  0.00     0.147 A 
ENDBRANCH  27  28
ENDBRANCH  26  27
ENDBRANCH   3  26
TORSDOF 5
ENDMDL
MODEL 5
REMARK VINA RESULT:      -8.4      2.861      5.990
REMARK  5 active torsions:
REMARK  status: ('A' for Active; 'I' for Inactive)
REMARK    1  A    between atoms: C_3  and  O_4 
REMARK    2  A    between atoms: C_8  and  C_9 
REMARK       I    between atoms: N_10  and  C_11 
REMARK    3  A    between atoms: C_11  and  C_12 
REMARK    4  A    between atoms: C_12  and  C_13 
REMARK    5  A    between atoms: C_13  and  C_14 
ROOT
HETATM    1  C   UNL     1     -43.316  56.179 -53.338  1.00  0.00     0.171 C 
HETATM    2  N   UNL     1     -43.374  56.346 -54.812  1.00  0.00    -0.338 N 
HETATM    3  C   UNL     1     -42.442  57.191 -55.431  1.00  0.00     0.221 C 
HETATM    4  O   UNL     1     -41.760  58.008 -54.812  1.00  0.00    -0.273 OA
HETATM    5  C   UNL     1     -43.831  55.112 -55.485  1.00  0.00     0.131 C 
HETATM    6  C   UNL     1     -42.770  53.986 -55.368  1.00  0.00     0.061 C 
HETATM    7  C   UNL     1     -42.112  54.020 -54.021  1.00  0.00    -0.019 A 
HETATM    8  C   UNL     1     -42.352  55.039 -53.109  1.00  0.00     0.044 A 
HETATM    9  N   UNL     1     -41.630  54.768 -51.980  1.00  0.00    -0.356 N 
HETATM   10  H   UNL     1     -41.632  55.319 -51.132  1.00  0.00     0.166 HD
HETATM   11  C   UNL     1     -40.841  53.654 -52.185  1.00  0.00     0.043 A 
HETATM   12  C   UNL     1     -41.139  53.155 -53.456  1.00  0.00    -0.001 A 
HETATM   13  C   UNL     1     -39.894  53.054 -51.346  1.00  0.00     0.030 A 
HETATM   14  C   UNL     1     -39.238  51.912 -51.819  1.00  0.00     0.002 A 
HETATM   15  C   UNL     1     -39.523  51.389 -53.078  1.00  0.00     0.001 A 
HETATM   16  C   UNL     1     -40.472  51.998 -53.906  1.00  0.00     0.014 A 
ENDROOT
BRANCH   1  17
HETATM   17  C   UNL     1     -43.235  57.433 -52.482  1.00  0.00    -0.029 A 
HETATM   18  C   UNL     1     -44.304  58.319 -52.290  1.00  0.00     0.012 A 
HETATM   19  C   UNL     1     -44.158  59.469 -51.503  1.00  0.00     0.038 A 
HETATM   20  C   UNL     1     -42.943  59.748 -50.876  1.00  0.00     0.074 A 
HETATM   21  C   UNL     1     -41.875  58.850 -51.003  1.00  0.00    -0.028 A 
HETATM   22  C   UNL     1     -40.586  59.075 -50.264  1.00  0.00     0.051 C 
HETATM   23  C   UNL     1     -42.031  57.707 -51.804  1.00  0.00     0.019 A 
BRANCH  20  24
HETATM   24  O   UNL     1     -42.726  60.841 -50.076  1.00  0.00    -0.355 OA
HETATM   25  C   UNL     1     -43.893  61.515 -49.622  1.00  0.00     0.210 C 
ENDBRANCH  20  24
ENDBRANCH   1  17
BRANCH   3  26
HETATM   26  C   UNL     1     -42.331  57.132 -56.953  1.00  0.00     0.108 C 
BRANCH  26  27
HETATM   27  C   UNL     1     -43.417  57.964 -57.648  1.00  0.00     0.051 C 
BRANCH  27  28
HETATM   28  C   UNL     1     -44.038  57.265 -58.817  1.00  0.00    -0.021 A 
HETATM   29  C   UNL     1     -45.375  57.139 -59.142  1.00  0.00     0.120 A 
HETATM   30  N   UNL     1     -45.430  56.423 -60.301  1.00  0.00    -0.285 N 
HETATM   31  C   UNL     1     -46.616  56.052 -61.031  1.00  0.00     0.179 C 
HETATM   32  N   UNL     1     -44.220  56.055 -60.756  1.00  0.00    -0.185 NA
HETATM   33  C   UNL     1     -43.377  56.553 -59.847  1.00  0.00     0.147 A 
ENDBRANCH  27  28
ENDBRANCH  26  27
ENDBRANCH   3  26
TORSDOF 5
ENDMDL
MODEL 6
REMARK VINA RESULT:      -8.1      2.129      5.935
REMARK  5 active torsions:
REMARK  status: ('A' for Active; 'I' for Inactive)
REMARK    1  A    between atoms: C_3  and  O_4 
REMARK    2  A    between atoms: C_8  and  C_9 
REMARK       I    between atoms: N_10  and  C_11 
REMARK    3  A    between atoms: C_11  and  C_12 
REMARK    4  A    between atoms: C_12  and  C_13 
REMARK    5  A    between atoms: C_13  and  C_14 
ROOT
HETATM    1  C   UNL     1     -43.140  55.291 -52.610  1.00  0.00     0.171 C 
HETATM    2  N   UNL     1     -43.155  56.538 -51.802  1.00  0.00    -0.338 N 
HETATM    3  C   UNL     1     -41.947  57.218 -51.592  1.00  0.00     0.221 C 
HETATM    4  O   UNL     1     -40.845  56.711 -51.801  1.00  0.00    -0.273 OA
HETATM    5  C   UNL     1     -44.418  57.287 -51.974  1.00  0.00     0.131 C 
HETATM    6  C   UNL     1     -44.529  57.874 -53.405  1.00  0.00     0.061 C 
HETATM    7  C   UNL     1     -43.972  56.914 -54.414  1.00  0.00    -0.019 A 
HETATM    8  C   UNL     1     -43.320  55.747 -54.039  1.00  0.00     0.044 A 
HETATM    9  N   UNL     1     -42.959  55.085 -55.179  1.00  0.00    -0.356 N 
HETATM   10  H   UNL     1     -42.497  54.186 -55.218  1.00  0.00     0.166 HD
HETATM   11  C   UNL     1     -43.267  55.854 -56.284  1.00  0.00     0.043 A 
HETATM   12  C   UNL     1     -43.920  57.002 -55.829  1.00  0.00    -0.001 A 
HETATM   13  C   UNL     1     -43.017  55.619 -57.641  1.00  0.00     0.030 A 
HETATM   14  C   UNL     1     -43.452  56.584 -58.557  1.00  0.00     0.002 A 
HETATM   15  C   UNL     1     -44.114  57.733 -58.132  1.00  0.00     0.001 A 
HETATM   16  C   UNL     1     -44.357  57.954 -56.772  1.00  0.00     0.014 A 
ENDROOT
BRANCH   1  17
HETATM   17  C   UNL     1     -42.103  54.234 -52.268  1.00  0.00    -0.029 A 
HETATM   18  C   UNL     1     -41.815  53.813 -50.963  1.00  0.00     0.012 A 
HETATM   19  C   UNL     1     -40.832  52.847 -50.714  1.00  0.00     0.038 A 
HETATM   20  C   UNL     1     -40.127  52.266 -51.769  1.00  0.00     0.074 A 
HETATM   21  C   UNL     1     -40.434  52.626 -53.088  1.00  0.00    -0.028 A 
HETATM   22  C   UNL     1     -39.758  51.950 -54.249  1.00  0.00     0.051 C 
HETATM   23  C   UNL     1     -41.414  53.604 -53.323  1.00  0.00     0.019 A 
BRANCH  20  24
HETATM   24  O   UNL     1     -39.165  51.302 -51.611  1.00  0.00    -0.355 OA
HETATM   25  C   UNL     1     -39.589  50.107 -50.965  1.00  0.00     0.210 C 
ENDBRANCH  20  24
ENDBRANCH   1  17
BRANCH   3  26
HETATM   26  C   UNL     1     -42.018  58.629 -51.012  1.00  0.00     0.108 C 
BRANCH  26  27
HETATM   27  C   UNL     1     -41.544  59.692 -52.011  1.00  0.00     0.051 C 
BRANCH  27  28
HETATM   28  C   UNL     1     -42.604  60.691 -52.358  1.00  0.00    -0.021 A 
HETATM   29  C   UNL     1     -42.798  61.373 -53.543  1.00  0.00     0.120 A 
HETATM   30  N   UNL     1     -43.898  62.159 -53.367  1.00  0.00    -0.285 N 
HETATM   31  C   UNL     1     -44.492  63.044 -54.337  1.00  0.00     0.179 C 
HETATM   32  N   UNL     1     -44.436  62.053 -52.139  1.00  0.00    -0.185 NA
HETATM   33  C   UNL     1     -43.641  61.174 -51.523  1.00  0.00     0.147 A 
ENDBRANCH  27  28
ENDBRANCH  26  27
ENDBRANCH   3  26
TORSDOF 5
ENDMDL
MODEL 7
REMARK VINA RESULT:      -8.1      2.381      6.275
REMARK  5 active torsions:
REMARK  status: ('A' for Active; 'I' for Inactive)
REMARK    1  A    between atoms: C_3  and  O_4 
REMARK    2  A    between atoms: C_8  and  C_9 
REMARK       I    between atoms: N_10  and  C_11 
REMARK    3  A    between atoms: C_11  and  C_12 
REMARK    4  A    between atoms: C_12  and  C_13 
REMARK    5  A    between atoms: C_13  and  C_14 
ROOT
HETATM    1  C   UNL     1     -43.803  56.277 -54.137  1.00  0.00     0.171 C 
HETATM    2  N   UNL     1     -43.870  57.629 -53.525  1.00  0.00    -0.338 N 
HETATM    3  C   UNL     1     -42.672  58.290 -53.219  1.00  0.00     0.221 C 
HETATM    4  O   UNL     1     -41.582  57.719 -53.172  1.00  0.00    -0.273 OA
HETATM    5  C   UNL     1     -45.044  58.389 -54.005  1.00  0.00     0.131 C 
HETATM    6  C   UNL     1     -44.896  58.761 -55.503  1.00  0.00     0.061 C 
HETATM    7  C   UNL     1     -44.246  57.643 -56.263  1.00  0.00    -0.019 A 
HETATM    8  C   UNL     1     -43.730  56.523 -55.625  1.00  0.00     0.044 A 
HETATM    9  N   UNL     1     -43.235  55.686 -56.587  1.00  0.00    -0.356 N 
HETATM   10  H   UNL     1     -42.826  54.776 -56.424  1.00  0.00     0.166 HD
HETATM   11  C   UNL     1     -43.320  56.293 -57.824  1.00  0.00     0.043 A 
HETATM   12  C   UNL     1     -43.968  57.519 -57.649  1.00  0.00    -0.001 A 
HETATM   13  C   UNL     1     -42.876  55.851 -59.076  1.00  0.00     0.030 A 
HETATM   14  C   UNL     1     -43.105  56.684 -60.178  1.00  0.00     0.002 A 
HETATM   15  C   UNL     1     -43.757  57.906 -60.032  1.00  0.00     0.001 A 
HETATM   16  C   UNL     1     -44.195  58.335 -58.774  1.00  0.00     0.014 A 
ENDROOT
BRANCH   1  17
HETATM   17  C   UNL     1     -42.896  55.246 -53.485  1.00  0.00    -0.029 A 
HETATM   18  C   UNL     1     -42.988  54.860 -52.141  1.00  0.00     0.012 A 
HETATM   19  C   UNL     1     -42.109  53.917 -51.596  1.00  0.00     0.038 A 
HETATM   20  C   UNL     1     -41.125  53.325 -52.390  1.00  0.00     0.074 A 
HETATM   21  C   UNL     1     -41.046  53.649 -53.752  1.00  0.00    -0.028 A 
HETATM   22  C   UNL     1     -40.060  52.959 -54.653  1.00  0.00     0.051 C 
HETATM   23  C   UNL     1     -41.928  54.605 -54.282  1.00  0.00     0.019 A 
BRANCH  20  24
HETATM   24  O   UNL     1     -40.238  52.381 -51.938  1.00  0.00    -0.355 OA
HETATM   25  C   UNL     1     -40.310  52.084 -50.549  1.00  0.00     0.210 C 
ENDBRANCH  20  24
ENDBRANCH   1  17
BRANCH   3  26
HETATM   26  C   UNL     1     -42.750  59.773 -52.863  1.00  0.00     0.108 C 
BRANCH  26  27
HETATM   27  C   UNL     1     -42.529  60.023 -51.365  1.00  0.00     0.051 C 
BRANCH  27  28
HETATM   28  C   UNL     1     -43.794  60.329 -50.625  1.00  0.00    -0.021 A 
HETATM   29  C   UNL     1     -44.068  61.384 -49.776  1.00  0.00     0.120 A 
HETATM   30  N   UNL     1     -45.357  61.226 -49.360  1.00  0.00    -0.285 N 
HETATM   31  C   UNL     1     -46.090  62.093 -48.471  1.00  0.00     0.179 C 
HETATM   32  N   UNL     1     -45.949  60.130 -49.866  1.00  0.00    -0.185 NA
HETATM   33  C   UNL     1     -44.995  59.579 -50.621  1.00  0.00     0.147 A 
ENDBRANCH  27  28
ENDBRANCH  26  27
ENDBRANCH   3  26
TORSDOF 5
ENDMDL
MODEL 8
REMARK VINA RESULT:      -8.0      2.534      5.421
REMARK  5 active torsions:
REMARK  status: ('A' for Active; 'I' for Inactive)
REMARK    1  A    between atoms: C_3  and  O_4 
REMARK    2  A    between atoms: C_8  and  C_9 
REMARK       I    between atoms: N_10  and  C_11 
REMARK    3  A    between atoms: C_11  and  C_12 
REMARK    4  A    between atoms: C_12  and  C_13 
REMARK    5  A    between atoms: C_13  and  C_14 
ROOT
HETATM    1  C   UNL     1     -43.274  56.100 -53.368  1.00  0.00     0.171 C 
HETATM    2  N   UNL     1     -43.363  56.307 -54.836  1.00  0.00    -0.338 N 
HETATM    3  C   UNL     1     -42.432  57.153 -55.454  1.00  0.00     0.221 C 
HETATM    4  O   UNL     1     -41.722  57.942 -54.830  1.00  0.00    -0.273 OA
HETATM    5  C   UNL     1     -43.854  55.098 -55.530  1.00  0.00     0.131 C 
HETATM    6  C   UNL     1     -42.809  53.953 -55.468  1.00  0.00     0.061 C 
HETATM    7  C   UNL     1     -42.120  53.940 -54.135  1.00  0.00    -0.019 A 
HETATM    8  C   UNL     1     -42.323  54.939 -53.192  1.00  0.00     0.044 A 
HETATM    9  N   UNL     1     -41.580  54.627 -52.088  1.00  0.00    -0.356 N 
HETATM   10  H   UNL     1     -41.554  55.155 -51.226  1.00  0.00     0.166 HD
HETATM   11  C   UNL     1     -40.814  53.506 -52.340  1.00  0.00     0.043 A 
HETATM   12  C   UNL     1     -41.149  53.045 -53.617  1.00  0.00    -0.001 A 
HETATM   13  C   UNL     1     -39.858  52.870 -51.539  1.00  0.00     0.030 A 
HETATM   14  C   UNL     1     -39.232  51.731 -52.057  1.00  0.00     0.002 A 
HETATM   15  C   UNL     1     -39.554  51.245 -53.322  1.00  0.00     0.001 A 
HETATM   16  C   UNL     1     -40.511  51.891 -54.112  1.00  0.00     0.014 A 
ENDROOT
BRANCH   1  17
HETATM   17  C   UNL     1     -43.153  57.329 -52.482  1.00  0.00    -0.029 A 
HETATM   18  C   UNL     1     -44.224  58.177 -52.171  1.00  0.00     0.012 A 
HETATM   19  C   UNL     1     -44.042  59.307 -51.363  1.00  0.00     0.038 A 
HETATM   20  C   UNL     1     -42.786  59.602 -50.832  1.00  0.00     0.074 A 
HETATM   21  C   UNL     1     -41.709  58.740 -51.079  1.00  0.00    -0.028 A 
HETATM   22  C   UNL     1     -40.368  58.980 -50.445  1.00  0.00     0.051 C 
HETATM   23  C   UNL     1     -41.903  57.617 -51.900  1.00  0.00     0.019 A 
BRANCH  20  24
HETATM   24  O   UNL     1     -42.529  60.676 -50.019  1.00  0.00    -0.355 OA
HETATM   25  C   UNL     1     -43.002  61.933 -50.490  1.00  0.00     0.210 C 
ENDBRANCH  20  24
ENDBRANCH   1  17
BRANCH   3  26
HETATM   26  C   UNL     1     -42.356  57.133 -56.980  1.00  0.00     0.108 C 
BRANCH  26  27
HETATM   27  C   UNL     1     -43.233  58.216 -57.619  1.00  0.00     0.051 C 
BRANCH  27  28
HETATM   28  C   UNL     1     -42.455  59.406 -58.087  1.00  0.00    -0.021 A 
HETATM   29  C   UNL     1     -42.352  59.929 -59.362  1.00  0.00     0.120 A 
HETATM   30  N   UNL     1     -41.535  61.017 -59.274  1.00  0.00    -0.285 N 
HETATM   31  C   UNL     1     -41.145  61.893 -60.350  1.00  0.00     0.179 C 
HETATM   32  N   UNL     1     -41.079  61.240 -58.029  1.00  0.00    -0.185 NA
HETATM   33  C   UNL     1     -41.626  60.254 -57.313  1.00  0.00     0.147 A 
ENDBRANCH  27  28
ENDBRANCH  26  27
ENDBRANCH   3  26
TORSDOF 5
ENDMDL
MODEL 9
REMARK VINA RESULT:      -7.8      2.108      7.180
REMARK  5 active torsions:
REMARK  status: ('A' for Active; 'I' for Inactive)
REMARK    1  A    between atoms: C_3  and  O_4 
REMARK    2  A    between atoms: C_8  and  C_9 
REMARK       I    between atoms: N_10  and  C_11 
REMARK    3  A    between atoms: C_11  and  C_12 
REMARK    4  A    between atoms: C_12  and  C_13 
REMARK    5  A    between atoms: C_13  and  C_14 
ROOT
HETATM    1  C   UNL     1     -42.373  57.730 -54.496  1.00  0.00     0.171 C 
HETATM    2  N   UNL     1     -42.010  56.429 -53.877  1.00  0.00    -0.338 N 
HETATM    3  C   UNL     1     -42.977  55.747 -53.127  1.00  0.00     0.221 C 
HETATM    4  O   UNL     1     -44.012  56.278 -52.723  1.00  0.00    -0.273 OA
HETATM    5  C   UNL     1     -41.038  55.682 -54.704  1.00  0.00     0.131 C 
HETATM    6  C   UNL     1     -41.686  55.197 -56.027  1.00  0.00     0.061 C 
HETATM    7  C   UNL     1     -42.631  56.232 -56.563  1.00  0.00    -0.019 A 
HETATM    8  C   UNL     1     -42.955  57.374 -55.844  1.00  0.00     0.044 A 
HETATM    9  N   UNL     1     -43.810  58.120 -56.608  1.00  0.00    -0.356 N 
HETATM   10  H   UNL     1     -44.189  59.023 -56.358  1.00  0.00     0.166 HD
HETATM   11  C   UNL     1     -44.132  57.428 -57.759  1.00  0.00     0.043 A 
HETATM   12  C   UNL     1     -43.390  56.244 -57.761  1.00  0.00    -0.001 A 
HETATM   13  C   UNL     1     -45.019  57.761 -58.790  1.00  0.00     0.030 A 
HETATM   14  C   UNL     1     -45.145  56.860 -59.853  1.00  0.00     0.002 A 
HETATM   15  C   UNL     1     -44.410  55.677 -59.885  1.00  0.00     0.001 A 
HETATM   16  C   UNL     1     -43.528  55.357 -58.847  1.00  0.00     0.014 A 
ENDROOT
BRANCH   1  17
HETATM   17  C   UNL     1     -43.051  58.770 -53.619  1.00  0.00    -0.029 A 
HETATM   18  C   UNL     1     -44.354  59.242 -53.830  1.00  0.00     0.012 A 
HETATM   19  C   UNL     1     -44.915  60.217 -52.996  1.00  0.00     0.038 A 
HETATM   20  C   UNL     1     -44.189  60.730 -51.920  1.00  0.00     0.074 A 
HETATM   21  C   UNL     1     -42.905  60.235 -51.651  1.00  0.00    -0.028 A 
HETATM   22  C   UNL     1     -42.137  60.700 -50.445  1.00  0.00     0.051 C 
HETATM   23  C   UNL     1     -42.351  59.265 -52.502  1.00  0.00     0.019 A 
BRANCH  20  24
HETATM   24  O   UNL     1     -44.672  61.672 -51.047  1.00  0.00    -0.355 OA
HETATM   25  C   UNL     1     -45.841  61.301 -50.326  1.00  0.00     0.210 C 
ENDBRANCH  20  24
ENDBRANCH   1  17
BRANCH   3  26
HETATM   26  C   UNL     1     -42.687  54.298 -52.742  1.00  0.00     0.108 C 
BRANCH  26  27
HETATM   27  C   UNL     1     -41.373  54.155 -51.965  1.00  0.00     0.051 C 
BRANCH  27  28
HETATM   28  C   UNL     1     -40.639  52.887 -52.274  1.00  0.00    -0.021 A 
HETATM   29  C   UNL     1     -40.564  52.197 -53.468  1.00  0.00     0.120 A 
HETATM   30  N   UNL     1     -39.771  51.111 -53.244  1.00  0.00    -0.285 N 
HETATM   31  C   UNL     1     -39.394  50.104 -54.203  1.00  0.00     0.179 C 
HETATM   32  N   UNL     1     -39.328  51.029 -51.977  1.00  0.00    -0.185 NA
HETATM   33  C   UNL     1     -39.868  52.098 -51.386  1.00  0.00     0.147 A 
ENDBRANCH  27  28
ENDBRANCH  26  27
ENDBRANCH   3  26
TORSDOF 5
ENDMDL
MODEL 10
REMARK VINA RESULT:      -7.6      2.931      5.859
REMARK  5 active torsions:
REMARK  status: ('A' for Active; 'I' for Inactive)
REMARK    1  A    between atoms: C_3  and  O_4 
REMARK    2  A    between atoms: C_8  and  C_9 
REMARK       I    between atoms: N_10  and  C_11 
REMARK    3  A    between atoms: C_11  and  C_12 
REMARK    4  A    between atoms: C_12  and  C_13 
REMARK    5  A    between atoms: C_13  and  C_14 
ROOT
HETATM    1  C   UNL     1     -43.928  57.010 -52.609  1.00  0.00     0.171 C 
HETATM    2  N   UNL     1     -43.630  56.643 -54.017  1.00  0.00    -0.338 N 
HETATM    3  C   UNL     1     -42.567  57.283 -54.669  1.00  0.00     0.221 C 
HETATM    4  O   UNL     1     -42.042  58.313 -54.247  1.00  0.00    -0.273 OA
HETATM    5  C   UNL     1     -43.928  55.220 -54.286  1.00  0.00     0.131 C 
HETATM    6  C   UNL     1     -42.939  54.290 -53.535  1.00  0.00     0.061 C 
HETATM    7  C   UNL     1     -42.622  54.844 -52.177  1.00  0.00    -0.019 A 
HETATM    8  C   UNL     1     -43.060  56.098 -51.774  1.00  0.00     0.044 A 
HETATM    9  N   UNL     1     -42.632  56.297 -50.491  1.00  0.00    -0.356 N 
HETATM   10  H   UNL     1     -42.830  57.110 -49.922  1.00  0.00     0.166 HD
HETATM   11  C   UNL     1     -41.831  55.244 -50.096  1.00  0.00     0.043 A 
HETATM   12  C   UNL     1     -41.823  54.309 -51.135  1.00  0.00    -0.001 A 
HETATM   13  C   UNL     1     -41.120  55.051 -48.906  1.00  0.00     0.030 A 
HETATM   14  C   UNL     1     -40.384  53.868 -48.774  1.00  0.00     0.002 A 
HETATM   15  C   UNL     1     -40.366  52.915 -49.790  1.00  0.00     0.001 A 
HETATM   16  C   UNL     1     -41.082  53.121 -50.975  1.00  0.00     0.014 A 
ENDROOT
BRANCH   1  17
HETATM   17  C   UNL     1     -44.039  58.487 -52.267  1.00  0.00    -0.029 A 
HETATM   18  C   UNL     1     -43.174  59.153 -51.389  1.00  0.00     0.012 A 
HETATM   19  C   UNL     1     -43.341  60.514 -51.101  1.00  0.00     0.038 A 
HETATM   20  C   UNL     1     -44.370  61.242 -51.699  1.00  0.00     0.074 A 
HETATM   21  C   UNL     1     -45.216  60.615 -52.625  1.00  0.00    -0.028 A 
HETATM   22  C   UNL     1     -46.272  61.395 -53.356  1.00  0.00     0.051 C 
HETATM   23  C   UNL     1     -45.042  59.248 -52.896  1.00  0.00     0.019 A 
BRANCH  20  24
HETATM   24  O   UNL     1     -44.591  62.579 -51.484  1.00  0.00    -0.355 OA
HETATM   25  C   UNL     1     -43.424  63.387 -51.384  1.00  0.00     0.210 C 
ENDBRANCH  20  24
ENDBRANCH   1  17
BRANCH   3  26
HETATM   26  C   UNL     1     -42.096  56.701 -56.001  1.00  0.00     0.108 C 
BRANCH  26  27
HETATM   27  C   UNL     1     -42.305  57.674 -57.167  1.00  0.00     0.051 C 
BRANCH  27  28
HETATM   28  C   UNL     1     -43.611  57.479 -57.873  1.00  0.00    -0.021 A 
HETATM   29  C   UNL     1     -44.816  58.121 -57.662  1.00  0.00     0.120 A 
HETATM   30  N   UNL     1     -45.700  57.600 -58.559  1.00  0.00    -0.285 N 
HETATM   31  C   UNL     1     -47.083  57.970 -58.725  1.00  0.00     0.179 C 
HETATM   32  N   UNL     1     -45.164  56.645 -59.340  1.00  0.00    -0.185 NA
HETATM   33  C   UNL     1     -43.901  56.562 -58.912  1.00  0.00     0.147 A 
ENDBRANCH  27  28
ENDBRANCH  26  27
ENDBRANCH   3  26
TORSDOF 5
ENDMDL
