MODEL 1
REMARK VINA RESULT:      -8.8      0.000      0.000
REMARK  8 active torsions:
REMARK  status: ('A' for Active; 'I' for Inactive)
REMARK    1  A    between atoms: C_2  and  N_3 
REMARK    2  A    between atoms: N_3  and  C_4 
REMARK    3  A    between atoms: C_4  and  N_5 
REMARK    4  A    between atoms: N_5  and  C_6 
REMARK    5  A    between atoms: N_5  and  C_21 
REMARK    6  A    between atoms: C_6  and  C_7 
REMARK    7  A    between atoms: C_21  and  C_22 
REMARK    8  A    between atoms: C_22  and  N_23 
ROOT
HETATM    1  N   UNL     1     -42.225  57.074 -51.413  1.00  0.00    -0.352 N 
ENDROOT
BRANCH   1   2
HETATM    2  C   UNL     1     -43.569  56.851 -51.650  1.00  0.00     0.174 C 
HETATM    3  S   UNL     1     -44.772  57.874 -51.077  1.00  0.00    -0.041 SA
BRANCH   2   4
HETATM    4  N   UNL     1     -43.958  55.930 -52.572  1.00  0.00    -0.333 N 
HETATM    5  H   UNL     1     -44.300  55.068 -52.151  1.00  0.00     0.168 HD
BRANCH   4   6
HETATM    6  C   UNL     1     -43.608  55.777 -53.931  1.00  0.00     0.034 A 
HETATM    7  C   UNL     1     -43.110  54.592 -54.478  1.00  0.00     0.032 A 
HETATM    8  C   UNL     1     -42.818  54.514 -55.843  1.00  0.00     0.044 A 
HETATM    9  C   UNL     1     -43.043  55.615 -56.659  1.00  0.00     0.116 A 
HETATM   10  C   UNL     1     -43.566  56.791 -56.140  1.00  0.00     0.044 A 
HETATM   11  F   UNL     1     -42.764  55.538 -57.966  1.00  0.00    -0.206 F 
HETATM   12  C   UNL     1     -43.858  56.867 -54.776  1.00  0.00     0.032 A 
ENDBRANCH   4   6
ENDBRANCH   2   4
ENDBRANCH   1   2
BRANCH   1  13
HETATM   13  C   UNL     1     -41.537  56.488 -50.235  1.00  0.00     0.169 C 
BRANCH  13  14
HETATM   14  C   UNL     1     -41.000  55.115 -50.524  1.00  0.00     0.029 A 
HETATM   15  C   UNL     1     -40.836  54.187 -49.363  1.00  0.00     0.253 A 
HETATM   16  O   UNL     1     -41.063  54.561 -48.215  1.00  0.00    -0.268 OA
HETATM   17  N   UNL     1     -40.424  52.910 -49.626  1.00  0.00    -0.322 N 
HETATM   18  C   UNL     1     -40.216  52.410 -50.918  1.00  0.00     0.048 A 
HETATM   19  H   UNL     1     -40.324  52.295 -48.829  1.00  0.00     0.169 HD
HETATM   20  C   UNL     1     -40.400  53.271 -52.022  1.00  0.00    -0.006 A 
HETATM   21  C   UNL     1     -39.864  51.070 -51.090  1.00  0.00     0.070 A 
HETATM   22  C   UNL     1     -40.239  52.782 -53.322  1.00  0.00     0.053 A 
HETATM   23  C   UNL     1     -40.798  54.658 -51.774  1.00  0.00     0.028 A 
HETATM   24  C   UNL     1     -39.907  51.449 -53.469  1.00  0.00     0.106 A 
HETATM   25  C   UNL     1     -39.724  50.621 -52.386  1.00  0.00     0.107 A 
HETATM   26  O   UNL     1     -39.738  50.800 -54.652  1.00  0.00    -0.323 OA
HETATM   27  O   UNL     1     -39.415  49.349 -52.754  1.00  0.00    -0.323 OA
HETATM   28  C   UNL     1     -39.463  49.459 -54.193  1.00  0.00     0.352 A 
ENDBRANCH  13  14
ENDBRANCH   1  13
BRANCH   1  29
HETATM   29  C   UNL     1     -41.440  58.035 -52.227  1.00  0.00     0.153 C 
BRANCH  29  30
HETATM   30  C   UNL     1     -41.743  59.525 -51.955  1.00  0.00     0.254 C 
BRANCH  30  31
HETATM   31  N   UNL     1     -42.127  60.271 -53.222  1.00  0.00    -0.066 N 
HETATM   32  H   UNL     1     -41.596  61.155 -53.218  1.00  0.00     0.280 HD
HETATM   33  C   UNL     1     -41.763  59.542 -54.512  1.00  0.00     0.261 C 
HETATM   34  C   UNL     1     -42.173  60.405 -55.711  1.00  0.00     0.195 C 
HETATM   35  O   UNL     1     -43.576  60.689 -55.678  1.00  0.00    -0.388 OA
HETATM   36  C   UNL     1     -43.939  61.424 -54.504  1.00  0.00     0.195 C 
HETATM   37  C   UNL     1     -43.608  60.630 -53.235  1.00  0.00     0.261 C 
ENDBRANCH  30  31
ENDBRANCH  29  30
ENDBRANCH   1  29
TORSDOF 8
ENDMDL
MODEL 2
REMARK VINA RESULT:      -8.6      3.277      6.181
REMARK  8 active torsions:
REMARK  status: ('A' for Active; 'I' for Inactive)
REMARK    1  A    between atoms: C_2  and  N_3 
REMARK    2  A    between atoms: N_3  and  C_4 
REMARK    3  A    between atoms: C_4  and  N_5 
REMARK    4  A    between atoms: N_5  and  C_6 
REMARK    5  A    between atoms: N_5  and  C_21 
REMARK    6  A    between atoms: C_6  and  C_7 
REMARK    7  A    between atoms: C_21  and  C_22 
REMARK    8  A    between atoms: C_22  and  N_23 
ROOT
HETATM    1  N   UNL     1     -41.947  56.491 -52.105  1.00  0.00    -0.352 N 
ENDROOT
BRANCH   1   2
HETATM    2  C   UNL     1     -41.893  55.178 -51.674  1.00  0.00     0.174 C 
HETATM    3  S   UNL     1     -43.272  54.257 -51.401  1.00  0.00    -0.041 SA
BRANCH   2   4
HETATM    4  N   UNL     1     -40.716  54.497 -51.698  1.00  0.00    -0.333 N 
HETATM    5  H   UNL     1     -39.916  55.081 -51.459  1.00  0.00     0.168 HD
BRANCH   4   6
HETATM    6  C   UNL     1     -40.348  53.307 -52.361  1.00  0.00     0.034 A 
HETATM    7  C   UNL     1     -39.858  52.173 -51.711  1.00  0.00     0.032 A 
HETATM    8  C   UNL     1     -39.546  51.022 -52.440  1.00  0.00     0.044 A 
HETATM    9  C   UNL     1     -39.745  51.003 -53.815  1.00  0.00     0.116 A 
HETATM   10  C   UNL     1     -40.259  52.110 -54.475  1.00  0.00     0.044 A 
HETATM   11  F   UNL     1     -39.447  49.898 -54.511  1.00  0.00    -0.206 F 
HETATM   12  C   UNL     1     -40.571  53.259 -53.745  1.00  0.00     0.032 A 
ENDBRANCH   4   6
ENDBRANCH   2   4
ENDBRANCH   1   2
BRANCH   1  13
HETATM   13  C   UNL     1     -41.016  57.005 -53.142  1.00  0.00     0.169 C 
BRANCH  13  14
HETATM   14  C   UNL     1     -41.710  57.235 -54.455  1.00  0.00     0.029 A 
HETATM   15  C   UNL     1     -41.750  58.638 -54.969  1.00  0.00     0.253 A 
HETATM   16  O   UNL     1     -41.299  59.570 -54.307  1.00  0.00    -0.268 OA
HETATM   17  N   UNL     1     -42.309  58.846 -56.200  1.00  0.00    -0.322 N 
HETATM   18  C   UNL     1     -42.777  57.816 -57.026  1.00  0.00     0.048 A 
HETATM   19  H   UNL     1     -42.323  59.801 -56.534  1.00  0.00     0.169 HD
HETATM   20  C   UNL     1     -42.712  56.484 -56.561  1.00  0.00    -0.006 A 
HETATM   21  C   UNL     1     -43.266  58.120 -58.298  1.00  0.00     0.070 A 
HETATM   22  C   UNL     1     -43.135  55.436 -57.385  1.00  0.00     0.053 A 
HETATM   23  C   UNL     1     -42.161  56.230 -55.228  1.00  0.00     0.028 A 
HETATM   24  C   UNL     1     -43.598  55.759 -58.645  1.00  0.00     0.106 A 
HETATM   25  C   UNL     1     -43.663  57.061 -59.086  1.00  0.00     0.107 A 
HETATM   26  O   UNL     1     -44.022  54.873 -59.585  1.00  0.00    -0.323 OA
HETATM   27  O   UNL     1     -44.137  57.154 -60.357  1.00  0.00    -0.323 OA
HETATM   28  C   UNL     1     -44.328  55.760 -60.683  1.00  0.00     0.352 A 
ENDBRANCH  13  14
ENDBRANCH   1  13
BRANCH   1  29
HETATM   29  C   UNL     1     -42.821  57.492 -51.444  1.00  0.00     0.153 C 
BRANCH  29  30
HETATM   30  C   UNL     1     -42.115  58.796 -51.014  1.00  0.00     0.254 C 
BRANCH  30  31
HETATM   31  N   UNL     1     -42.726  60.021 -51.673  1.00  0.00    -0.066 N 
HETATM   32  H   UNL     1     -42.108  60.273 -52.460  1.00  0.00     0.280 HD
HETATM   33  C   UNL     1     -44.116  59.790 -52.257  1.00  0.00     0.261 C 
HETATM   34  C   UNL     1     -44.608  61.084 -52.915  1.00  0.00     0.195 C 
HETATM   35  O   UNL     1     -44.638  62.157 -51.967  1.00  0.00    -0.388 OA
HETATM   36  C   UNL     1     -43.335  62.436 -51.443  1.00  0.00     0.195 C 
HETATM   37  C   UNL     1     -42.760  61.212 -50.722  1.00  0.00     0.261 C 
ENDBRANCH  30  31
ENDBRANCH  29  30
ENDBRANCH   1  29
TORSDOF 8
ENDMDL
MODEL 3
REMARK VINA RESULT:      -8.6      3.014      5.212
REMARK  8 active torsions:
REMARK  status: ('A' for Active; 'I' for Inactive)
REMARK    1  A    between atoms: C_2  and  N_3 
REMARK    2  A    between atoms: N_3  and  C_4 
REMARK    3  A    between atoms: C_4  and  N_5 
REMARK    4  A    between atoms: N_5  and  C_6 
REMARK    5  A    between atoms: N_5  and  C_21 
REMARK    6  A    between atoms: C_6  and  C_7 
REMARK    7  A    between atoms: C_21  and  C_22 
REMARK    8  A    between atoms: C_22  and  N_23 
ROOT
HETATM    1  N   UNL     1     -44.582  58.690 -55.052  1.00  0.00    -0.352 N 
ENDROOT
BRANCH   1   2
HETATM    2  C   UNL     1     -44.376  59.875 -54.370  1.00  0.00     0.174 C 
HETATM    3  S   UNL     1     -45.604  60.673 -53.548  1.00  0.00    -0.041 SA
BRANCH   2   4
HETATM    4  N   UNL     1     -43.111  60.312 -54.124  1.00  0.00    -0.333 N 
HETATM    5  H   UNL     1     -42.697  60.795 -54.920  1.00  0.00     0.168 HD
BRANCH   4   6
HETATM    6  C   UNL     1     -42.152  59.887 -53.180  1.00  0.00     0.034 A 
HETATM    7  C   UNL     1     -42.187  60.228 -51.827  1.00  0.00     0.032 A 
HETATM    8  C   UNL     1     -41.214  59.738 -50.951  1.00  0.00     0.044 A 
HETATM    9  C   UNL     1     -40.221  58.893 -51.428  1.00  0.00     0.116 A 
HETATM   10  C   UNL     1     -40.187  58.519 -52.764  1.00  0.00     0.044 A 
HETATM   11  F   UNL     1     -39.290  58.423 -50.587  1.00  0.00    -0.206 F 
HETATM   12  C   UNL     1     -41.160  59.008 -53.638  1.00  0.00     0.032 A 
ENDBRANCH   4   6
ENDBRANCH   2   4
ENDBRANCH   1   2
BRANCH   1  13
HETATM   13  C   UNL     1     -45.110  57.483 -54.366  1.00  0.00     0.169 C 
BRANCH  13  14
HETATM   14  C   UNL     1     -44.011  56.652 -53.766  1.00  0.00     0.029 A 
HETATM   15  C   UNL     1     -43.773  56.793 -52.297  1.00  0.00     0.253 A 
HETATM   16  O   UNL     1     -44.401  57.609 -51.627  1.00  0.00    -0.268 OA
HETATM   17  N   UNL     1     -42.830  55.983 -51.728  1.00  0.00    -0.322 N 
HETATM   18  C   UNL     1     -42.132  54.989 -52.427  1.00  0.00     0.048 A 
HETATM   19  H   UNL     1     -42.685  56.088 -50.732  1.00  0.00     0.169 HD
HETATM   20  C   UNL     1     -42.376  54.827 -53.809  1.00  0.00    -0.006 A 
HETATM   21  C   UNL     1     -41.238  54.163 -51.744  1.00  0.00     0.070 A 
HETATM   22  C   UNL     1     -41.721  53.816 -54.519  1.00  0.00     0.053 A 
HETATM   23  C   UNL     1     -43.347  55.709 -54.460  1.00  0.00     0.028 A 
HETATM   24  C   UNL     1     -40.855  52.999 -53.818  1.00  0.00     0.106 A 
HETATM   25  C   UNL     1     -40.620  53.169 -52.474  1.00  0.00     0.107 A 
HETATM   26  O   UNL     1     -40.158  51.953 -54.337  1.00  0.00    -0.323 OA
HETATM   27  O   UNL     1     -39.745  52.253 -51.981  1.00  0.00    -0.323 OA
HETATM   28  C   UNL     1     -39.484  51.460 -53.159  1.00  0.00     0.352 A 
ENDBRANCH  13  14
ENDBRANCH   1  13
BRANCH   1  29
HETATM   29  C   UNL     1     -44.138  58.512 -56.457  1.00  0.00     0.153 C 
BRANCH  29  30
HETATM   30  C   UNL     1     -45.238  58.054 -57.438  1.00  0.00     0.254 C 
BRANCH  30  31
HETATM   31  N   UNL     1     -44.772  56.912 -58.326  1.00  0.00    -0.066 N 
HETATM   32  H   UNL     1     -44.878  56.046 -57.774  1.00  0.00     0.280 HD
HETATM   33  C   UNL     1     -45.597  56.731 -59.596  1.00  0.00     0.261 C 
HETATM   34  C   UNL     1     -45.050  55.537 -60.386  1.00  0.00     0.195 C 
HETATM   35  O   UNL     1     -43.669  55.731 -60.712  1.00  0.00    -0.388 OA
HETATM   36  C   UNL     1     -42.860  55.847 -59.536  1.00  0.00     0.195 C 
HETATM   37  C   UNL     1     -43.297  57.044 -58.685  1.00  0.00     0.261 C 
ENDBRANCH  30  31
ENDBRANCH  29  30
ENDBRANCH   1  29
TORSDOF 8
ENDMDL
MODEL 4
REMARK VINA RESULT:      -8.4      3.222      5.906
REMARK  8 active torsions:
REMARK  status: ('A' for Active; 'I' for Inactive)
REMARK    1  A    between atoms: C_2  and  N_3 
REMARK    2  A    between atoms: N_3  and  C_4 
REMARK    3  A    between atoms: C_4  and  N_5 
REMARK    4  A    between atoms: N_5  and  C_6 
REMARK    5  A    between atoms: N_5  and  C_21 
REMARK    6  A    between atoms: C_6  and  C_7 
REMARK    7  A    between atoms: C_21  and  C_22 
REMARK    8  A    between atoms: C_22  and  N_23 
ROOT
HETATM    1  N   UNL     1     -43.436  57.951 -55.510  1.00  0.00    -0.352 N 
ENDROOT
BRANCH   1   2
HETATM    2  C   UNL     1     -43.478  59.263 -55.072  1.00  0.00     0.174 C 
HETATM    3  S   UNL     1     -44.909  60.135 -54.962  1.00  0.00    -0.041 SA
BRANCH   2   4
HETATM    4  N   UNL     1     -42.392  59.820 -54.472  1.00  0.00    -0.333 N 
HETATM    5  H   UNL     1     -41.647  60.045 -55.130  1.00  0.00     0.168 HD
BRANCH   4   6
HETATM    6  C   UNL     1     -41.944  59.765 -53.135  1.00  0.00     0.034 A 
HETATM    7  C   UNL     1     -42.628  60.337 -52.061  1.00  0.00     0.032 A 
HETATM    8  C   UNL     1     -42.131  60.211 -50.760  1.00  0.00     0.044 A 
HETATM    9  C   UNL     1     -40.961  59.496 -50.537  1.00  0.00     0.116 A 
HETATM   10  C   UNL     1     -40.283  58.896 -51.588  1.00  0.00     0.044 A 
HETATM   11  F   UNL     1     -40.488  59.375 -49.290  1.00  0.00    -0.206 F 
HETATM   12  C   UNL     1     -40.781  59.022 -52.886  1.00  0.00     0.032 A 
ENDBRANCH   4   6
ENDBRANCH   2   4
ENDBRANCH   1   2
BRANCH   1  13
HETATM   13  C   UNL     1     -44.366  56.926 -54.973  1.00  0.00     0.169 C 
BRANCH  13  14
HETATM   14  C   UNL     1     -43.692  56.021 -53.980  1.00  0.00     0.029 A 
HETATM   15  C   UNL     1     -43.174  54.714 -54.490  1.00  0.00     0.253 A 
HETATM   16  O   UNL     1     -43.359  54.368 -55.653  1.00  0.00    -0.268 OA
HETATM   17  N   UNL     1     -42.489  53.920 -53.612  1.00  0.00    -0.322 N 
HETATM   18  C   UNL     1     -42.189  54.292 -52.296  1.00  0.00     0.048 A 
HETATM   19  H   UNL     1     -42.140  53.042 -53.976  1.00  0.00     0.169 HD
HETATM   20  C   UNL     1     -42.646  55.539 -51.817  1.00  0.00    -0.006 A 
HETATM   21  C   UNL     1     -41.422  53.443 -51.496  1.00  0.00     0.070 A 
HETATM   22  C   UNL     1     -42.324  55.949 -50.519  1.00  0.00     0.053 A 
HETATM   23  C   UNL     1     -43.423  56.397 -52.716  1.00  0.00     0.028 A 
HETATM   24  C   UNL     1     -41.550  55.100 -49.753  1.00  0.00     0.106 A 
HETATM   25  C   UNL     1     -41.114  53.885 -50.227  1.00  0.00     0.107 A 
HETATM   26  O   UNL     1     -41.120  55.347 -48.487  1.00  0.00    -0.323 OA
HETATM   27  O   UNL     1     -40.358  53.215 -49.317  1.00  0.00    -0.323 OA
HETATM   28  C   UNL     1     -40.333  54.164 -48.228  1.00  0.00     0.352 A 
ENDBRANCH  13  14
ENDBRANCH   1  13
BRANCH   1  29
HETATM   29  C   UNL     1     -42.362  57.465 -56.411  1.00  0.00     0.153 C 
BRANCH  29  30
HETATM   30  C   UNL     1     -42.615  57.698 -57.916  1.00  0.00     0.254 C 
BRANCH  30  31
HETATM   31  N   UNL     1     -43.727  56.812 -58.453  1.00  0.00    -0.066 N 
HETATM   32  H   UNL     1     -44.168  56.363 -57.636  1.00  0.00     0.280 HD
HETATM   33  C   UNL     1     -44.827  57.568 -59.191  1.00  0.00     0.261 C 
HETATM   34  C   UNL     1     -45.898  56.573 -59.655  1.00  0.00     0.195 C 
HETATM   35  O   UNL     1     -45.327  55.570 -60.503  1.00  0.00    -0.388 OA
HETATM   36  C   UNL     1     -44.328  54.805 -59.818  1.00  0.00     0.195 C 
HETATM   37  C   UNL     1     -43.180  55.702 -59.342  1.00  0.00     0.261 C 
ENDBRANCH  30  31
ENDBRANCH  29  30
ENDBRANCH   1  29
TORSDOF 8
ENDMDL
MODEL 5
REMARK VINA RESULT:      -8.3      2.915      6.264
REMARK  8 active torsions:
REMARK  status: ('A' for Active; 'I' for Inactive)
REMARK    1  A    between atoms: C_2  and  N_3 
REMARK    2  A    between atoms: N_3  and  C_4 
REMARK    3  A    between atoms: C_4  and  N_5 
REMARK    4  A    between atoms: N_5  and  C_6 
REMARK    5  A    between atoms: N_5  and  C_21 
REMARK    6  A    between atoms: C_6  and  C_7 
REMARK    7  A    between atoms: C_21  and  C_22 
REMARK    8  A    between atoms: C_22  and  N_23 
ROOT
HETATM    1  N   UNL     1     -42.270  56.572 -52.063  1.00  0.00    -0.352 N 
ENDROOT
BRANCH   1   2
HETATM    2  C   UNL     1     -41.942  55.318 -51.581  1.00  0.00     0.174 C 
HETATM    3  S   UNL     1     -43.059  54.318 -50.825  1.00  0.00    -0.041 SA
BRANCH   2   4
HETATM    4  N   UNL     1     -40.760  54.740 -51.927  1.00  0.00    -0.333 N 
HETATM    5  H   UNL     1     -40.016  55.419 -52.078  1.00  0.00     0.168 HD
BRANCH   4   6
HETATM    6  C   UNL     1     -40.479  53.480 -52.498  1.00  0.00     0.034 A 
HETATM    7  C   UNL     1     -40.728  53.157 -53.833  1.00  0.00     0.032 A 
HETATM    8  C   UNL     1     -40.390  51.894 -54.328  1.00  0.00     0.044 A 
HETATM    9  C   UNL     1     -39.785  50.966 -53.490  1.00  0.00     0.116 A 
HETATM   10  C   UNL     1     -39.501  51.279 -52.168  1.00  0.00     0.044 A 
HETATM   11  F   UNL     1     -39.460  49.757 -53.967  1.00  0.00    -0.206 F 
HETATM   12  C   UNL     1     -39.839  52.541 -51.675  1.00  0.00     0.032 A 
ENDBRANCH   4   6
ENDBRANCH   2   4
ENDBRANCH   1   2
BRANCH   1  13
HETATM   13  C   UNL     1     -43.487  56.792 -52.886  1.00  0.00     0.169 C 
BRANCH  13  14
HETATM   14  C   UNL     1     -43.203  56.659 -54.355  1.00  0.00     0.029 A 
HETATM   15  C   UNL     1     -43.544  55.353 -55.000  1.00  0.00     0.253 A 
HETATM   16  O   UNL     1     -43.968  54.410 -54.338  1.00  0.00    -0.268 OA
HETATM   17  N   UNL     1     -43.364  55.250 -56.352  1.00  0.00    -0.322 N 
HETATM   18  C   UNL     1     -42.949  56.311 -57.166  1.00  0.00     0.048 A 
HETATM   19  H   UNL     1     -43.605  54.361 -56.772  1.00  0.00     0.169 HD
HETATM   20  C   UNL     1     -42.656  57.557 -56.569  1.00  0.00    -0.006 A 
HETATM   21  C   UNL     1     -42.862  56.128 -58.547  1.00  0.00     0.070 A 
HETATM   22  C   UNL     1     -42.280  58.642 -57.366  1.00  0.00     0.053 A 
HETATM   23  C   UNL     1     -42.795  57.691 -55.117  1.00  0.00     0.028 A 
HETATM   24  C   UNL     1     -42.218  58.442 -58.731  1.00  0.00     0.106 A 
HETATM   25  C   UNL     1     -42.498  57.223 -59.303  1.00  0.00     0.107 A 
HETATM   26  O   UNL     1     -41.899  59.386 -59.656  1.00  0.00    -0.323 OA
HETATM   27  O   UNL     1     -42.388  57.249 -60.657  1.00  0.00    -0.323 OA
HETATM   28  C   UNL     1     -42.045  58.634 -60.880  1.00  0.00     0.352 A 
ENDBRANCH  13  14
ENDBRANCH   1  13
BRANCH   1  29
HETATM   29  C   UNL     1     -41.348  57.726 -51.923  1.00  0.00     0.153 C 
BRANCH  29  30
HETATM   30  C   UNL     1     -41.686  58.700 -50.774  1.00  0.00     0.254 C 
BRANCH  30  31
HETATM   31  N   UNL     1     -42.369  59.961 -51.275  1.00  0.00    -0.066 N 
HETATM   32  H   UNL     1     -41.946  60.751 -50.763  1.00  0.00     0.280 HD
HETATM   33  C   UNL     1     -42.161  60.236 -52.761  1.00  0.00     0.261 C 
HETATM   34  C   UNL     1     -42.869  61.543 -53.136  1.00  0.00     0.195 C 
HETATM   35  O   UNL     1     -44.267  61.469 -52.833  1.00  0.00    -0.388 OA
HETATM   36  C   UNL     1     -44.495  61.268 -51.434  1.00  0.00     0.195 C 
HETATM   37  C   UNL     1     -43.859  59.958 -50.956  1.00  0.00     0.261 C 
ENDBRANCH  30  31
ENDBRANCH  29  30
ENDBRANCH   1  29
TORSDOF 8
ENDMDL
MODEL 6
REMARK VINA RESULT:      -8.1      3.260      7.864
REMARK  8 active torsions:
REMARK  status: ('A' for Active; 'I' for Inactive)
REMARK    1  A    between atoms: C_2  and  N_3 
REMARK    2  A    between atoms: N_3  and  C_4 
REMARK    3  A    between atoms: C_4  and  N_5 
REMARK    4  A    between atoms: N_5  and  C_6 
REMARK    5  A    between atoms: N_5  and  C_21 
REMARK    6  A    between atoms: C_6  and  C_7 
REMARK    7  A    between atoms: C_21  and  C_22 
REMARK    8  A    between atoms: C_22  and  N_23 
ROOT
HETATM    1  N   UNL     1     -42.226  56.264 -52.325  1.00  0.00    -0.352 N 
ENDROOT
BRANCH   1   2
HETATM    2  C   UNL     1     -42.006  55.172 -51.505  1.00  0.00     0.174 C 
HETATM    3  S   UNL     1     -43.230  54.449 -50.610  1.00  0.00    -0.041 SA
BRANCH   2   4
HETATM    4  N   UNL     1     -40.837  54.481 -51.585  1.00  0.00    -0.333 N 
HETATM    5  H   UNL     1     -40.026  55.043 -51.333  1.00  0.00     0.168 HD
BRANCH   4   6
HETATM    6  C   UNL     1     -40.496  53.322 -52.314  1.00  0.00     0.034 A 
HETATM    7  C   UNL     1     -40.688  53.182 -53.690  1.00  0.00     0.032 A 
HETATM    8  C   UNL     1     -40.292  52.011 -54.342  1.00  0.00     0.044 A 
HETATM    9  C   UNL     1     -39.688  50.990 -53.619  1.00  0.00     0.116 A 
HETATM   10  C   UNL     1     -39.462  51.123 -52.256  1.00  0.00     0.044 A 
HETATM   11  F   UNL     1     -39.308  49.870 -54.245  1.00  0.00    -0.206 F 
HETATM   12  C   UNL     1     -39.856  52.294 -51.606  1.00  0.00     0.032 A 
ENDBRANCH   4   6
ENDBRANCH   2   4
ENDBRANCH   1   2
BRANCH   1  13
HETATM   13  C   UNL     1     -41.310  57.433 -52.322  1.00  0.00     0.169 C 
BRANCH  13  14
HETATM   14  C   UNL     1     -42.052  58.727 -52.140  1.00  0.00     0.029 A 
HETATM   15  C   UNL     1     -41.830  59.791 -53.167  1.00  0.00     0.253 A 
HETATM   16  O   UNL     1     -41.019  59.637 -54.076  1.00  0.00    -0.268 OA
HETATM   17  N   UNL     1     -42.561  60.941 -53.054  1.00  0.00    -0.322 N 
HETATM   18  C   UNL     1     -43.547  61.146 -52.080  1.00  0.00     0.048 A 
HETATM   19  H   UNL     1     -42.402  61.648 -53.761  1.00  0.00     0.169 HD
HETATM   20  C   UNL     1     -43.786  60.131 -51.127  1.00  0.00    -0.006 A 
HETATM   21  C   UNL     1     -44.291  62.326 -52.089  1.00  0.00     0.070 A 
HETATM   22  C   UNL     1     -44.793  60.296 -50.170  1.00  0.00     0.053 A 
HETATM   23  C   UNL     1     -42.990  58.904 -51.190  1.00  0.00     0.028 A 
HETATM   24  C   UNL     1     -45.528  61.465 -50.210  1.00  0.00     0.106 A 
HETATM   25  C   UNL     1     -45.283  62.449 -51.139  1.00  0.00     0.107 A 
HETATM   26  O   UNL     1     -46.558  61.781 -49.380  1.00  0.00    -0.323 OA
HETATM   27  O   UNL     1     -46.127  63.506 -51.007  1.00  0.00    -0.323 OA
HETATM   28  C   UNL     1     -46.959  63.061 -49.914  1.00  0.00     0.352 A 
ENDBRANCH  13  14
ENDBRANCH   1  13
BRANCH   1  29
HETATM   29  C   UNL     1     -43.467  56.396 -53.127  1.00  0.00     0.153 C 
BRANCH  29  30
HETATM   30  C   UNL     1     -43.650  55.334 -54.232  1.00  0.00     0.254 C 
BRANCH  30  31
HETATM   31  N   UNL     1     -43.746  55.957 -55.615  1.00  0.00    -0.066 N 
HETATM   32  H   UNL     1     -44.726  55.853 -55.919  1.00  0.00     0.280 HD
HETATM   33  C   UNL     1     -43.425  57.447 -55.653  1.00  0.00     0.261 C 
HETATM   34  C   UNL     1     -43.584  57.961 -57.088  1.00  0.00     0.195 C 
HETATM   35  O   UNL     1     -42.727  57.243 -57.983  1.00  0.00    -0.388 OA
HETATM   36  C   UNL     1     -43.042  55.847 -58.012  1.00  0.00     0.195 C 
HETATM   37  C   UNL     1     -42.876  55.217 -56.625  1.00  0.00     0.261 C 
ENDBRANCH  30  31
ENDBRANCH  29  30
ENDBRANCH   1  29
TORSDOF 8
ENDMDL
MODEL 7
REMARK VINA RESULT:      -7.8      2.317      2.988
REMARK  8 active torsions:
REMARK  status: ('A' for Active; 'I' for Inactive)
REMARK    1  A    between atoms: C_2  and  N_3 
REMARK    2  A    between atoms: N_3  and  C_4 
REMARK    3  A    between atoms: C_4  and  N_5 
REMARK    4  A    between atoms: N_5  and  C_6 
REMARK    5  A    between atoms: N_5  and  C_21 
REMARK    6  A    between atoms: C_6  and  C_7 
REMARK    7  A    between atoms: C_21  and  C_22 
REMARK    8  A    between atoms: C_22  and  N_23 
ROOT
HETATM    1  N   UNL     1     -43.255  57.675 -53.039  1.00  0.00    -0.352 N 
ENDROOT
BRANCH   1   2
HETATM    2  C   UNL     1     -43.558  57.881 -54.373  1.00  0.00     0.174 C 
HETATM    3  S   UNL     1     -45.041  58.485 -54.882  1.00  0.00    -0.041 SA
BRANCH   2   4
HETATM    4  N   UNL     1     -42.576  57.841 -55.313  1.00  0.00    -0.333 N 
HETATM    5  H   UNL     1     -41.802  58.469 -55.102  1.00  0.00     0.168 HD
BRANCH   4   6
HETATM    6  C   UNL     1     -42.603  57.437 -56.664  1.00  0.00     0.034 A 
HETATM    7  C   UNL     1     -42.994  56.166 -57.089  1.00  0.00     0.032 A 
HETATM    8  C   UNL     1     -43.023  55.856 -58.452  1.00  0.00     0.044 A 
HETATM    9  C   UNL     1     -42.680  56.825 -59.386  1.00  0.00     0.116 A 
HETATM   10  C   UNL     1     -42.318  58.103 -58.985  1.00  0.00     0.044 A 
HETATM   11  F   UNL     1     -42.710  56.527 -60.691  1.00  0.00    -0.206 F 
HETATM   12  C   UNL     1     -42.290  58.411 -57.623  1.00  0.00     0.032 A 
ENDBRANCH   4   6
ENDBRANCH   2   4
ENDBRANCH   1   2
BRANCH   1  13
HETATM   13  C   UNL     1     -41.856  57.735 -52.545  1.00  0.00     0.169 C 
BRANCH  13  14
HETATM   14  C   UNL     1     -41.285  56.365 -52.309  1.00  0.00     0.029 A 
HETATM   15  C   UNL     1     -41.085  55.944 -50.889  1.00  0.00     0.253 A 
HETATM   16  O   UNL     1     -41.310  56.717 -49.960  1.00  0.00    -0.268 OA
HETATM   17  N   UNL     1     -40.642  54.671 -50.662  1.00  0.00    -0.322 N 
HETATM   18  C   UNL     1     -40.434  53.726 -51.676  1.00  0.00     0.048 A 
HETATM   19  H   UNL     1     -40.517  54.401 -49.695  1.00  0.00     0.169 HD
HETATM   20  C   UNL     1     -40.653  54.106 -53.019  1.00  0.00    -0.006 A 
HETATM   21  C   UNL     1     -40.048  52.428 -51.341  1.00  0.00     0.070 A 
HETATM   22  C   UNL     1     -40.492  53.169 -54.044  1.00  0.00     0.053 A 
HETATM   23  C   UNL     1     -41.085  55.477 -53.301  1.00  0.00     0.028 A 
HETATM   24  C   UNL     1     -40.127  51.886 -53.687  1.00  0.00     0.106 A 
HETATM   25  C   UNL     1     -39.910  51.528 -52.376  1.00  0.00     0.107 A 
HETATM   26  O   UNL     1     -39.953  50.844 -54.543  1.00  0.00    -0.323 OA
HETATM   27  O   UNL     1     -39.572  50.218 -52.247  1.00  0.00    -0.323 OA
HETATM   28  C   UNL     1     -39.638  49.778 -53.621  1.00  0.00     0.352 A 
ENDBRANCH  13  14
ENDBRANCH   1  13
BRANCH   1  29
HETATM   29  C   UNL     1     -44.283  57.228 -52.067  1.00  0.00     0.153 C 
BRANCH  29  30
HETATM   30  C   UNL     1     -44.473  58.150 -50.844  1.00  0.00     0.254 C 
BRANCH  30  31
HETATM   31  N   UNL     1     -44.818  59.574 -51.250  1.00  0.00    -0.066 N 
HETATM   32  H   UNL     1     -44.346  59.748 -52.151  1.00  0.00     0.280 HD
HETATM   33  C   UNL     1     -46.307  59.817 -51.474  1.00  0.00     0.261 C 
HETATM   34  C   UNL     1     -46.521  61.272 -51.905  1.00  0.00     0.195 C 
HETATM   35  O   UNL     1     -46.012  62.176 -50.917  1.00  0.00    -0.388 OA
HETATM   36  C   UNL     1     -44.603  62.010 -50.724  1.00  0.00     0.195 C 
HETATM   37  C   UNL     1     -44.277  60.589 -50.250  1.00  0.00     0.261 C 
ENDBRANCH  30  31
ENDBRANCH  29  30
ENDBRANCH   1  29
TORSDOF 8
ENDMDL
MODEL 8
REMARK VINA RESULT:      -7.8      2.921      3.783
REMARK  8 active torsions:
REMARK  status: ('A' for Active; 'I' for Inactive)
REMARK    1  A    between atoms: C_2  and  N_3 
REMARK    2  A    between atoms: N_3  and  C_4 
REMARK    3  A    between atoms: C_4  and  N_5 
REMARK    4  A    between atoms: N_5  and  C_6 
REMARK    5  A    between atoms: N_5  and  C_21 
REMARK    6  A    between atoms: C_6  and  C_7 
REMARK    7  A    between atoms: C_21  and  C_22 
REMARK    8  A    between atoms: C_22  and  N_23 
ROOT
HETATM    1  N   UNL     1     -42.719  56.670 -55.019  1.00  0.00    -0.352 N 
ENDROOT
BRANCH   1   2
HETATM    2  C   UNL     1     -42.809  55.771 -56.065  1.00  0.00     0.174 C 
HETATM    3  S   UNL     1     -43.335  54.189 -55.856  1.00  0.00    -0.041 SA
BRANCH   2   4
HETATM    4  N   UNL     1     -42.718  56.204 -57.351  1.00  0.00    -0.333 N 
HETATM    5  H   UNL     1     -42.040  56.956 -57.467  1.00  0.00     0.168 HD
BRANCH   4   6
HETATM    6  C   UNL     1     -43.628  56.113 -58.425  1.00  0.00     0.034 A 
HETATM    7  C   UNL     1     -43.637  55.069 -59.352  1.00  0.00     0.032 A 
HETATM    8  C   UNL     1     -44.594  55.038 -60.370  1.00  0.00     0.044 A 
HETATM    9  C   UNL     1     -45.551  56.042 -60.446  1.00  0.00     0.116 A 
HETATM   10  C   UNL     1     -45.577  57.072 -59.517  1.00  0.00     0.044 A 
HETATM   11  F   UNL     1     -46.468  56.010 -61.421  1.00  0.00    -0.206 F 
HETATM   12  C   UNL     1     -44.620  57.102 -58.500  1.00  0.00     0.032 A 
ENDBRANCH   4   6
ENDBRANCH   2   4
ENDBRANCH   1   2
BRANCH   1  13
HETATM   13  C   UNL     1     -41.426  56.940 -54.339  1.00  0.00     0.169 C 
BRANCH  13  14
HETATM   14  C   UNL     1     -41.069  55.856 -53.362  1.00  0.00     0.029 A 
HETATM   15  C   UNL     1     -41.364  56.112 -51.919  1.00  0.00     0.253 A 
HETATM   16  O   UNL     1     -41.812  57.193 -51.545  1.00  0.00    -0.268 OA
HETATM   17  N   UNL     1     -41.117  55.101 -51.033  1.00  0.00    -0.322 N 
HETATM   18  C   UNL     1     -40.672  53.827 -51.409  1.00  0.00     0.048 A 
HETATM   19  H   UNL     1     -41.328  55.290 -50.061  1.00  0.00     0.169 HD
HETATM   20  C   UNL     1     -40.422  53.566 -52.775  1.00  0.00    -0.006 A 
HETATM   21  C   UNL     1     -40.515  52.836 -50.439  1.00  0.00     0.070 A 
HETATM   22  C   UNL     1     -40.017  52.290 -53.179  1.00  0.00     0.053 A 
HETATM   23  C   UNL     1     -40.634  54.642 -53.747  1.00  0.00     0.028 A 
HETATM   24  C   UNL     1     -39.885  51.322 -52.203  1.00  0.00     0.106 A 
HETATM   25  C   UNL     1     -40.125  51.587 -50.875  1.00  0.00     0.107 A 
HETATM   26  O   UNL     1     -39.530  50.026 -52.416  1.00  0.00    -0.323 OA
HETATM   27  O   UNL     1     -39.949  50.493 -50.088  1.00  0.00    -0.323 OA
HETATM   28  C   UNL     1     -39.608  49.496 -51.075  1.00  0.00     0.352 A 
ENDBRANCH  13  14
ENDBRANCH   1  13
BRANCH   1  29
HETATM   29  C   UNL     1     -43.926  57.289 -54.417  1.00  0.00     0.153 C 
BRANCH  29  30
HETATM   30  C   UNL     1     -43.894  58.829 -54.319  1.00  0.00     0.254 C 
BRANCH  30  31
HETATM   31  N   UNL     1     -44.483  59.332 -53.012  1.00  0.00    -0.066 N 
HETATM   32  H   UNL     1     -43.734  59.854 -52.531  1.00  0.00     0.280 HD
HETATM   33  C   UNL     1     -45.654  60.293 -53.182  1.00  0.00     0.261 C 
HETATM   34  C   UNL     1     -46.138  60.749 -51.801  1.00  0.00     0.195 C 
HETATM   35  O   UNL     1     -46.527  59.626 -51.002  1.00  0.00    -0.388 OA
HETATM   36  C   UNL     1     -45.431  58.732 -50.777  1.00  0.00     0.195 C 
HETATM   37  C   UNL     1     -44.891  58.180 -52.101  1.00  0.00     0.261 C 
ENDBRANCH  30  31
ENDBRANCH  29  30
ENDBRANCH   1  29
TORSDOF 8
ENDMDL
MODEL 9
REMARK VINA RESULT:      -7.8     15.433     17.669
REMARK  8 active torsions:
REMARK  status: ('A' for Active; 'I' for Inactive)
REMARK    1  A    between atoms: C_2  and  N_3 
REMARK    2  A    between atoms: N_3  and  C_4 
REMARK    3  A    between atoms: C_4  and  N_5 
REMARK    4  A    between atoms: N_5  and  C_6 
REMARK    5  A    between atoms: N_5  and  C_21 
REMARK    6  A    between atoms: C_6  and  C_7 
REMARK    7  A    between atoms: C_21  and  C_22 
REMARK    8  A    between atoms: C_22  and  N_23 
ROOT
HETATM    1  N   UNL     1     -36.274  38.983 -50.912  1.00  0.00    -0.352 N 
ENDROOT
BRANCH   1   2
HETATM    2  C   UNL     1     -34.922  38.696 -50.926  1.00  0.00     0.174 C 
HETATM    3  S   UNL     1     -33.977  38.716 -49.537  1.00  0.00    -0.041 SA
BRANCH   2   4
HETATM    4  N   UNL     1     -34.352  38.138 -52.028  1.00  0.00    -0.333 N 
HETATM    5  H   UNL     1     -33.903  37.245 -51.831  1.00  0.00     0.168 HD
BRANCH   4   6
HETATM    6  C   UNL     1     -33.916  38.717 -53.239  1.00  0.00     0.034 A 
HETATM    7  C   UNL     1     -34.525  38.488 -54.474  1.00  0.00     0.032 A 
HETATM    8  C   UNL     1     -34.049  39.127 -55.624  1.00  0.00     0.044 A 
HETATM    9  C   UNL     1     -32.979  40.007 -55.529  1.00  0.00     0.116 A 
HETATM   10  C   UNL     1     -32.381  40.270 -54.305  1.00  0.00     0.044 A 
HETATM   11  F   UNL     1     -32.527  40.619 -56.631  1.00  0.00    -0.206 F 
HETATM   12  C   UNL     1     -32.857  39.632 -53.158  1.00  0.00     0.032 A 
ENDBRANCH   4   6
ENDBRANCH   2   4
ENDBRANCH   1   2
BRANCH   1  13
HETATM   13  C   UNL     1     -36.770  40.382 -50.969  1.00  0.00     0.169 C 
BRANCH  13  14
HETATM   14  C   UNL     1     -36.661  40.960 -52.352  1.00  0.00     0.029 A 
HETATM   15  C   UNL     1     -35.552  41.932 -52.599  1.00  0.00     0.253 A 
HETATM   16  O   UNL     1     -34.812  42.296 -51.689  1.00  0.00    -0.268 OA
HETATM   17  N   UNL     1     -35.395  42.402 -53.874  1.00  0.00    -0.322 N 
HETATM   18  C   UNL     1     -36.165  41.972 -54.963  1.00  0.00     0.048 A 
HETATM   19  H   UNL     1     -34.637  43.055 -54.024  1.00  0.00     0.169 HD
HETATM   20  C   UNL     1     -37.192  41.029 -54.743  1.00  0.00    -0.006 A 
HETATM   21  C   UNL     1     -35.883  42.457 -56.241  1.00  0.00     0.070 A 
HETATM   22  C   UNL     1     -37.946  40.554 -55.821  1.00  0.00     0.053 A 
HETATM   23  C   UNL     1     -37.418  40.538 -53.382  1.00  0.00     0.028 A 
HETATM   24  C   UNL     1     -37.637  41.035 -57.079  1.00  0.00     0.106 A 
HETATM   25  C   UNL     1     -36.639  41.959 -57.281  1.00  0.00     0.107 A 
HETATM   26  O   UNL     1     -38.244  40.666 -58.239  1.00  0.00    -0.323 OA
HETATM   27  O   UNL     1     -36.494  42.287 -58.592  1.00  0.00    -0.323 OA
HETATM   28  C   UNL     1     -37.490  41.435 -59.201  1.00  0.00     0.352 A 
ENDBRANCH  13  14
ENDBRANCH   1  13
BRANCH   1  29
HETATM   29  C   UNL     1     -37.291  37.929 -50.677  1.00  0.00     0.153 C 
BRANCH  29  30
HETATM   30  C   UNL     1     -37.964  37.965 -49.288  1.00  0.00     0.254 C 
BRANCH  30  31
HETATM   31  N   UNL     1     -39.479  37.883 -49.383  1.00  0.00    -0.066 N 
HETATM   32  H   UNL     1     -39.718  36.880 -49.430  1.00  0.00     0.280 HD
HETATM   33  C   UNL     1     -40.214  38.459 -48.178  1.00  0.00     0.261 C 
HETATM   34  C   UNL     1     -41.724  38.290 -48.380  1.00  0.00     0.195 C 
HETATM   35  O   UNL     1     -42.152  38.941 -49.583  1.00  0.00    -0.388 OA
HETATM   36  C   UNL     1     -41.520  38.382 -50.740  1.00  0.00     0.195 C 
HETATM   37  C   UNL     1     -39.997  38.533 -50.661  1.00  0.00     0.261 C 
ENDBRANCH  30  31
ENDBRANCH  29  30
ENDBRANCH   1  29
TORSDOF 8
ENDMDL
MODEL 10
REMARK VINA RESULT:      -7.8      3.265      4.927
REMARK  8 active torsions:
REMARK  status: ('A' for Active; 'I' for Inactive)
REMARK    1  A    between atoms: C_2  and  N_3 
REMARK    2  A    between atoms: N_3  and  C_4 
REMARK    3  A    between atoms: C_4  and  N_5 
REMARK    4  A    between atoms: N_5  and  C_6 
REMARK    5  A    between atoms: N_5  and  C_21 
REMARK    6  A    between atoms: C_6  and  C_7 
REMARK    7  A    between atoms: C_21  and  C_22 
REMARK    8  A    between atoms: C_22  and  N_23 
ROOT
HETATM    1  N   UNL     1     -42.376  58.003 -53.797  1.00  0.00    -0.352 N 
ENDROOT
BRANCH   1   2
HETATM    2  C   UNL     1     -41.868  58.948 -52.924  1.00  0.00     0.174 C 
HETATM    3  S   UNL     1     -40.257  58.971 -52.451  1.00  0.00    -0.041 SA
BRANCH   2   4
HETATM    4  N   UNL     1     -42.598  60.053 -52.611  1.00  0.00    -0.333 N 
HETATM    5  H   UNL     1     -42.272  60.891 -53.090  1.00  0.00     0.168 HD
BRANCH   4   6
HETATM    6  C   UNL     1     -43.408  60.340 -51.492  1.00  0.00     0.034 A 
HETATM    7  C   UNL     1     -43.134  61.354 -50.572  1.00  0.00     0.032 A 
HETATM    8  C   UNL     1     -44.008  61.594 -49.506  1.00  0.00     0.044 A 
HETATM    9  C   UNL     1     -45.161  60.831 -49.376  1.00  0.00     0.116 A 
HETATM   10  C   UNL     1     -45.465  59.839 -50.297  1.00  0.00     0.044 A 
HETATM   11  F   UNL     1     -45.997  61.064 -48.356  1.00  0.00    -0.206 F 
HETATM   12  C   UNL     1     -44.593  59.601 -51.362  1.00  0.00     0.032 A 
ENDBRANCH   4   6
ENDBRANCH   2   4
ENDBRANCH   1   2
BRANCH   1  13
HETATM   13  C   UNL     1     -43.162  56.841 -53.308  1.00  0.00     0.169 C 
BRANCH  13  14
HETATM   14  C   UNL     1     -42.280  55.682 -52.939  1.00  0.00     0.029 A 
HETATM   15  C   UNL     1     -41.894  55.549 -51.501  1.00  0.00     0.253 A 
HETATM   16  O   UNL     1     -42.225  56.395 -50.674  1.00  0.00    -0.268 OA
HETATM   17  N   UNL     1     -41.158  54.454 -51.142  1.00  0.00    -0.322 N 
HETATM   18  C   UNL     1     -40.811  53.425 -52.026  1.00  0.00     0.048 A 
HETATM   19  H   UNL     1     -40.911  54.377 -50.163  1.00  0.00     0.169 HD
HETATM   20  C   UNL     1     -41.201  53.527 -53.380  1.00  0.00    -0.006 A 
HETATM   21  C   UNL     1     -40.118  52.310 -51.551  1.00  0.00     0.070 A 
HETATM   22  C   UNL     1     -40.901  52.493 -54.273  1.00  0.00     0.053 A 
HETATM   23  C   UNL     1     -41.952  54.709 -53.809  1.00  0.00     0.028 A 
HETATM   24  C   UNL     1     -40.231  51.392 -53.775  1.00  0.00     0.106 A 
HETATM   25  C   UNL     1     -39.850  51.306 -52.456  1.00  0.00     0.107 A 
HETATM   26  O   UNL     1     -39.884  50.288 -54.488  1.00  0.00    -0.323 OA
HETATM   27  O   UNL     1     -39.215  50.137 -52.177  1.00  0.00    -0.323 OA
HETATM   28  C   UNL     1     -39.272  49.478 -53.460  1.00  0.00     0.352 A 
ENDBRANCH  13  14
ENDBRANCH   1  13
BRANCH   1  29
HETATM   29  C   UNL     1     -42.030  58.010 -55.239  1.00  0.00     0.153 C 
BRANCH  29  30
HETATM   30  C   UNL     1     -43.121  57.450 -56.177  1.00  0.00     0.254 C 
BRANCH  30  31
HETATM   31  N   UNL     1     -42.573  57.115 -57.555  1.00  0.00    -0.066 N 
HETATM   32  H   UNL     1     -41.637  56.707 -57.410  1.00  0.00     0.280 HD
HETATM   33  C   UNL     1     -43.394  56.082 -58.320  1.00  0.00     0.261 C 
HETATM   34  C   UNL     1     -42.726  55.809 -59.673  1.00  0.00     0.195 C 
HETATM   35  O   UNL     1     -42.609  57.017 -60.435  1.00  0.00    -0.388 OA
HETATM   36  C   UNL     1     -41.795  57.987 -59.766  1.00  0.00     0.195 C 
HETATM   37  C   UNL     1     -42.396  58.366 -58.408  1.00  0.00     0.261 C 
ENDBRANCH  30  31
ENDBRANCH  29  30
ENDBRANCH   1  29
TORSDOF 8
ENDMDL
