MODEL 1
REMARK VINA RESULT:      -9.0      0.000      0.000
REMARK  3 active torsions:
REMARK  status: ('A' for Active; 'I' for Inactive)
REMARK    1  A    between atoms: C_7  and  C_8 
REMARK    2  A    between atoms: N_11  and  C_13 
REMARK    3  A    between atoms: C_13  and  C_14 
ROOT
HETATM    1  C   UNL     1     -43.082  55.540 -57.124  1.00  0.00     0.080 A 
HETATM    2  O   UNL     1     -43.631  54.914 -58.206  1.00  0.00    -0.302 OA
HETATM    3  C   UNL     1     -43.786  55.864 -59.172  1.00  0.00     0.155 A 
HETATM    4  C   UNL     1     -44.340  55.454 -60.412  1.00  0.00     0.125 C 
HETATM    5  N   UNL     1     -44.778  55.101 -61.426  1.00  0.00    -0.189 NA
HETATM    6  C   UNL     1     -43.337  57.086 -58.726  1.00  0.00     0.051 A 
HETATM    7  C   UNL     1     -42.882  56.878 -57.400  1.00  0.00     0.038 A 
ENDROOT
BRANCH   1   8
HETATM    8  C   UNL     1     -42.813  54.696 -55.935  1.00  0.00     0.299 C 
BRANCH   8   9
HETATM    9  N   UNL     1     -42.703  55.466 -54.626  1.00  0.00    -0.065 N 
HETATM   10  C   UNL     1     -43.305  54.706 -53.467  1.00  0.00     0.236 C 
HETATM   11  C   UNL     1     -43.103  55.479 -52.172  1.00  0.00     0.037 C 
HETATM   12  C   UNL     1     -41.604  55.693 -51.883  1.00  0.00     0.024 C 
HETATM   13  C   UNL     1     -41.056  56.523 -53.045  1.00  0.00     0.037 C 
HETATM   14  C   UNL     1     -41.267  55.868 -54.403  1.00  0.00     0.236 C 
HETATM   15  H   UNL     1     -43.270  56.315 -54.756  1.00  0.00     0.280 HD
BRANCH  12  16
HETATM   16  C   UNL     1     -40.908  54.372 -51.583  1.00  0.00    -0.026 A 
HETATM   17  C   UNL     1     -40.464  53.298 -52.443  1.00  0.00    -0.001 A 
HETATM   18  C   UNL     1     -40.018  52.260 -51.614  1.00  0.00     0.045 A 
HETATM   19  C   UNL     1     -40.407  53.070 -53.840  1.00  0.00     0.017 A 
HETATM   20  C   UNL     1     -39.602  51.013 -52.094  1.00  0.00     0.072 A 
HETATM   21  N   UNL     1     -40.051  52.720 -50.322  1.00  0.00    -0.365 N 
HETATM   22  C   UNL     1     -39.614  50.818 -53.470  1.00  0.00     0.118 A 
HETATM   23  C   UNL     1     -39.994  51.827 -54.339  1.00  0.00     0.043 A 
HETATM   24  F   UNL     1     -39.240  49.633 -53.967  1.00  0.00    -0.206 F 
HETATM   25  C   UNL     1     -40.568  53.983 -50.294  1.00  0.00     0.096 A 
HETATM   26  H   UNL     1     -39.726  52.199 -49.517  1.00  0.00     0.165 HD
ENDBRANCH  12  16
ENDBRANCH   8   9
ENDBRANCH   1   8
TORSDOF 3
ENDMDL
MODEL 2
REMARK VINA RESULT:      -8.9      2.382      3.442
REMARK  3 active torsions:
REMARK  status: ('A' for Active; 'I' for Inactive)
REMARK    1  A    between atoms: C_7  and  C_8 
REMARK    2  A    between atoms: N_11  and  C_13 
REMARK    3  A    between atoms: C_13  and  C_14 
ROOT
HETATM    1  C   UNL     1     -44.365  57.571 -52.915  1.00  0.00     0.080 A 
HETATM    2  O   UNL     1     -43.942  56.515 -53.670  1.00  0.00    -0.302 OA
HETATM    3  C   UNL     1     -43.733  56.992 -54.930  1.00  0.00     0.155 A 
HETATM    4  C   UNL     1     -43.277  56.075 -55.912  1.00  0.00     0.125 C 
HETATM    5  N   UNL     1     -42.888  55.317 -56.699  1.00  0.00    -0.189 NA
HETATM    6  C   UNL     1     -44.010  58.339 -54.991  1.00  0.00     0.051 A 
HETATM    7  C   UNL     1     -44.420  58.715 -53.686  1.00  0.00     0.038 A 
ENDROOT
BRANCH   1   8
HETATM    8  C   UNL     1     -44.654  57.293 -51.487  1.00  0.00     0.299 C 
BRANCH   8   9
HETATM    9  N   UNL     1     -43.461  56.786 -50.688  1.00  0.00    -0.065 N 
HETATM   10  C   UNL     1     -43.457  55.279 -50.567  1.00  0.00     0.236 C 
HETATM   11  C   UNL     1     -42.209  54.817 -49.829  1.00  0.00     0.037 C 
HETATM   12  C   UNL     1     -40.931  55.246 -50.578  1.00  0.00     0.024 C 
HETATM   13  C   UNL     1     -40.946  56.775 -50.615  1.00  0.00     0.037 C 
HETATM   14  C   UNL     1     -42.192  57.348 -51.276  1.00  0.00     0.236 C 
HETATM   15  H   UNL     1     -43.584  57.164 -49.739  1.00  0.00     0.280 HD
BRANCH  12  16
HETATM   16  C   UNL     1     -40.807  54.520 -51.911  1.00  0.00    -0.026 A 
HETATM   17  C   UNL     1     -40.407  53.170 -52.241  1.00  0.00    -0.001 A 
HETATM   18  C   UNL     1     -40.335  53.089 -53.638  1.00  0.00     0.045 A 
HETATM   19  C   UNL     1     -40.073  52.000 -51.514  1.00  0.00     0.017 A 
HETATM   20  C   UNL     1     -39.885  51.953 -54.323  1.00  0.00     0.072 A 
HETATM   21  N   UNL     1     -40.801  54.275 -54.145  1.00  0.00    -0.365 N 
HETATM   22  C   UNL     1     -39.517  50.850 -53.564  1.00  0.00     0.118 A 
HETATM   23  C   UNL     1     -39.619  50.855 -52.183  1.00  0.00     0.043 A 
HETATM   24  F   UNL     1     -39.064  49.752 -54.182  1.00  0.00    -0.206 F 
HETATM   25  C   UNL     1     -41.096  55.130 -53.124  1.00  0.00     0.096 A 
HETATM   26  H   UNL     1     -40.916  54.473 -55.131  1.00  0.00     0.165 HD
ENDBRANCH  12  16
ENDBRANCH   8   9
ENDBRANCH   1   8
TORSDOF 3
ENDMDL
MODEL 3
REMARK VINA RESULT:      -8.9      3.171      4.217
REMARK  3 active torsions:
REMARK  status: ('A' for Active; 'I' for Inactive)
REMARK    1  A    between atoms: C_7  and  C_8 
REMARK    2  A    between atoms: N_11  and  C_13 
REMARK    3  A    between atoms: C_13  and  C_14 
ROOT
HETATM    1  C   UNL     1     -41.606  59.749 -53.137  1.00  0.00     0.080 A 
HETATM    2  O   UNL     1     -41.362  59.306 -54.405  1.00  0.00    -0.302 OA
HETATM    3  C   UNL     1     -42.139  60.056 -55.238  1.00  0.00     0.155 A 
HETATM    4  C   UNL     1     -42.057  59.789 -56.629  1.00  0.00     0.125 C 
HETATM    5  N   UNL     1     -41.967  59.570 -57.764  1.00  0.00    -0.189 NA
HETATM    6  C   UNL     1     -42.870  60.976 -54.522  1.00  0.00     0.051 A 
HETATM    7  C   UNL     1     -42.527  60.777 -53.161  1.00  0.00     0.038 A 
ENDROOT
BRANCH   1   8
HETATM    8  C   UNL     1     -40.861  59.077 -52.044  1.00  0.00     0.299 C 
BRANCH   8   9
HETATM    9  N   UNL     1     -41.699  58.127 -51.199  1.00  0.00    -0.065 N 
HETATM   10  C   UNL     1     -42.914  57.624 -51.944  1.00  0.00     0.236 C 
HETATM   11  C   UNL     1     -43.675  56.622 -51.088  1.00  0.00     0.037 C 
HETATM   12  C   UNL     1     -42.790  55.411 -50.733  1.00  0.00     0.024 C 
HETATM   13  C   UNL     1     -41.614  55.960 -49.924  1.00  0.00     0.037 C 
HETATM   14  C   UNL     1     -40.819  57.026 -50.666  1.00  0.00     0.236 C 
HETATM   15  H   UNL     1     -42.042  58.691 -50.409  1.00  0.00     0.280 HD
BRANCH  12  16
HETATM   16  C   UNL     1     -42.458  54.591 -51.973  1.00  0.00    -0.026 A 
HETATM   17  C   UNL     1     -41.468  53.566 -52.216  1.00  0.00    -0.001 A 
HETATM   18  C   UNL     1     -41.515  53.260 -53.582  1.00  0.00     0.045 A 
HETATM   19  C   UNL     1     -40.512  52.869 -51.436  1.00  0.00     0.017 A 
HETATM   20  C   UNL     1     -40.628  52.373 -54.205  1.00  0.00     0.072 A 
HETATM   21  N   UNL     1     -42.568  53.950 -54.125  1.00  0.00    -0.365 N 
HETATM   22  C   UNL     1     -39.673  51.755 -53.408  1.00  0.00     0.118 A 
HETATM   23  C   UNL     1     -39.615  51.979 -52.043  1.00  0.00     0.043 A 
HETATM   24  F   UNL     1     -38.795  50.915 -53.971  1.00  0.00    -0.206 F 
HETATM   25  C   UNL     1     -43.144  54.738 -53.171  1.00  0.00     0.096 A 
HETATM   26  H   UNL     1     -42.873  53.873 -55.087  1.00  0.00     0.165 HD
ENDBRANCH  12  16
ENDBRANCH   8   9
ENDBRANCH   1   8
TORSDOF 3
ENDMDL
MODEL 4
REMARK VINA RESULT:      -8.8      2.346      3.408
REMARK  3 active torsions:
REMARK  status: ('A' for Active; 'I' for Inactive)
REMARK    1  A    between atoms: C_7  and  C_8 
REMARK    2  A    between atoms: N_11  and  C_13 
REMARK    3  A    between atoms: C_13  and  C_14 
ROOT
HETATM    1  C   UNL     1     -43.463  57.059 -57.465  1.00  0.00     0.080 A 
HETATM    2  O   UNL     1     -43.425  56.178 -58.507  1.00  0.00    -0.302 OA
HETATM    3  C   UNL     1     -44.488  56.475 -59.310  1.00  0.00     0.155 A 
HETATM    4  C   UNL     1     -44.664  55.693 -60.480  1.00  0.00     0.125 C 
HETATM    5  N   UNL     1     -44.786  55.055 -61.441  1.00  0.00    -0.189 NA
HETATM    6  C   UNL     1     -45.199  57.537 -58.799  1.00  0.00     0.051 A 
HETATM    7  C   UNL     1     -44.536  57.915 -57.604  1.00  0.00     0.038 A 
ENDROOT
BRANCH   1   8
HETATM    8  C   UNL     1     -42.389  56.932 -56.450  1.00  0.00     0.299 C 
BRANCH   8   9
HETATM    9  N   UNL     1     -41.975  55.499 -56.142  1.00  0.00    -0.065 N 
HETATM   10  C   UNL     1     -40.828  55.437 -55.160  1.00  0.00     0.236 C 
HETATM   11  C   UNL     1     -40.503  53.988 -54.827  1.00  0.00     0.037 C 
HETATM   12  C   UNL     1     -41.718  53.278 -54.197  1.00  0.00     0.024 C 
HETATM   13  C   UNL     1     -42.827  53.307 -55.250  1.00  0.00     0.037 C 
HETATM   14  C   UNL     1     -43.186  54.714 -55.707  1.00  0.00     0.236 C 
HETATM   15  H   UNL     1     -41.631  55.114 -57.033  1.00  0.00     0.280 HD
BRANCH  12  16
HETATM   16  C   UNL     1     -42.045  53.860 -52.828  1.00  0.00    -0.026 A 
HETATM   17  C   UNL     1     -41.269  53.961 -51.612  1.00  0.00    -0.001 A 
HETATM   18  C   UNL     1     -42.122  54.458 -50.617  1.00  0.00     0.045 A 
HETATM   19  C   UNL     1     -39.938  53.667 -51.226  1.00  0.00     0.017 A 
HETATM   20  C   UNL     1     -41.743  54.599 -49.276  1.00  0.00     0.072 A 
HETATM   21  N   UNL     1     -43.312  54.780 -51.215  1.00  0.00    -0.365 N 
HETATM   22  C   UNL     1     -40.443  54.246 -48.936  1.00  0.00     0.118 A 
HETATM   23  C   UNL     1     -39.542  53.801 -49.888  1.00  0.00     0.043 A 
HETATM   24  F   UNL     1     -40.049  54.350 -47.661  1.00  0.00    -0.206 F 
HETATM   25  C   UNL     1     -43.273  54.439 -52.536  1.00  0.00     0.096 A 
HETATM   26  H   UNL     1     -44.095  55.216 -50.743  1.00  0.00     0.165 HD
ENDBRANCH  12  16
ENDBRANCH   8   9
ENDBRANCH   1   8
TORSDOF 3
ENDMDL
MODEL 5
REMARK VINA RESULT:      -8.7      3.251      6.013
REMARK  3 active torsions:
REMARK  status: ('A' for Active; 'I' for Inactive)
REMARK    1  A    between atoms: C_7  and  C_8 
REMARK    2  A    between atoms: N_11  and  C_13 
REMARK    3  A    between atoms: C_13  and  C_14 
ROOT
HETATM    1  C   UNL     1     -40.233  53.160 -52.075  1.00  0.00     0.080 A 
HETATM    2  O   UNL     1     -40.022  51.842 -52.362  1.00  0.00    -0.302 OA
HETATM    3  C   UNL     1     -40.057  51.727 -53.721  1.00  0.00     0.155 A 
HETATM    4  C   UNL     1     -39.854  50.437 -54.275  1.00  0.00     0.125 C 
HETATM    5  N   UNL     1     -39.670  49.379 -54.714  1.00  0.00    -0.189 NA
HETATM    6  C   UNL     1     -40.280  52.953 -54.306  1.00  0.00     0.051 A 
HETATM    7  C   UNL     1     -40.395  53.882 -53.241  1.00  0.00     0.038 A 
ENDROOT
BRANCH   1   8
HETATM    8  C   UNL     1     -40.233  53.535 -50.640  1.00  0.00     0.299 C 
BRANCH   8   9
HETATM    9  N   UNL     1     -41.257  54.599 -50.265  1.00  0.00    -0.065 N 
HETATM   10  C   UNL     1     -40.731  55.998 -50.489  1.00  0.00     0.236 C 
HETATM   11  C   UNL     1     -41.813  57.020 -50.173  1.00  0.00     0.037 C 
HETATM   12  C   UNL     1     -43.046  56.817 -51.076  1.00  0.00     0.024 C 
HETATM   13  C   UNL     1     -43.582  55.419 -50.765  1.00  0.00     0.037 C 
HETATM   14  C   UNL     1     -42.552  54.318 -50.983  1.00  0.00     0.236 C 
HETATM   15  H   UNL     1     -41.407  54.492 -49.252  1.00  0.00     0.280 HD
BRANCH  12  16
HETATM   16  C   UNL     1     -42.720  57.129 -52.530  1.00  0.00    -0.026 A 
HETATM   17  C   UNL     1     -42.949  56.388 -53.751  1.00  0.00    -0.001 A 
HETATM   18  C   UNL     1     -42.312  57.087 -54.785  1.00  0.00     0.045 A 
HETATM   19  C   UNL     1     -43.608  55.185 -54.103  1.00  0.00     0.017 A 
HETATM   20  C   UNL     1     -42.237  56.617 -56.102  1.00  0.00     0.072 A 
HETATM   21  N   UNL     1     -41.840  58.262 -54.260  1.00  0.00    -0.365 N 
HETATM   22  C   UNL     1     -42.853  55.405 -56.387  1.00  0.00     0.118 A 
HETATM   23  C   UNL     1     -43.543  54.699 -55.416  1.00  0.00     0.043 A 
HETATM   24  F   UNL     1     -42.788  54.914 -57.631  1.00  0.00    -0.206 F 
HETATM   25  C   UNL     1     -42.089  58.303 -52.920  1.00  0.00     0.096 A 
HETATM   26  H   UNL     1     -41.386  58.992 -54.797  1.00  0.00     0.165 HD
ENDBRANCH  12  16
ENDBRANCH   8   9
ENDBRANCH   1   8
TORSDOF 3
ENDMDL
MODEL 6
REMARK VINA RESULT:      -8.6      4.133      6.226
REMARK  3 active torsions:
REMARK  status: ('A' for Active; 'I' for Inactive)
REMARK    1  A    between atoms: C_7  and  C_8 
REMARK    2  A    between atoms: N_11  and  C_13 
REMARK    3  A    between atoms: C_13  and  C_14 
ROOT
HETATM    1  C   UNL     1     -45.273  59.022 -51.310  1.00  0.00     0.080 A 
HETATM    2  O   UNL     1     -44.911  59.454 -50.066  1.00  0.00    -0.302 OA
HETATM    3  C   UNL     1     -45.470  60.687 -49.901  1.00  0.00     0.155 A 
HETATM    4  C   UNL     1     -45.241  61.351 -48.668  1.00  0.00     0.125 C 
HETATM    5  N   UNL     1     -45.059  61.874 -47.650  1.00  0.00    -0.189 NA
HETATM    6  C   UNL     1     -46.191  61.046 -51.017  1.00  0.00     0.051 A 
HETATM    7  C   UNL     1     -46.064  59.969 -51.930  1.00  0.00     0.038 A 
ENDROOT
BRANCH   1   8
HETATM    8  C   UNL     1     -44.780  57.685 -51.718  1.00  0.00     0.299 C 
BRANCH   8   9
HETATM    9  N   UNL     1     -43.596  57.173 -50.908  1.00  0.00    -0.065 N 
HETATM   10  C   UNL     1     -43.635  55.673 -50.729  1.00  0.00     0.236 C 
HETATM   11  C   UNL     1     -42.396  55.203 -49.982  1.00  0.00     0.037 C 
HETATM   12  C   UNL     1     -41.112  55.564 -50.756  1.00  0.00     0.024 C 
HETATM   13  C   UNL     1     -41.083  57.090 -50.852  1.00  0.00     0.037 C 
HETATM   14  C   UNL     1     -42.316  57.675 -51.527  1.00  0.00     0.236 C 
HETATM   15  H   UNL     1     -43.700  57.591 -49.973  1.00  0.00     0.280 HD
BRANCH  12  16
HETATM   16  C   UNL     1     -41.020  54.784 -52.061  1.00  0.00    -0.026 A 
HETATM   17  C   UNL     1     -40.530  53.457 -52.360  1.00  0.00    -0.001 A 
HETATM   18  C   UNL     1     -40.550  53.311 -53.753  1.00  0.00     0.045 A 
HETATM   19  C   UNL     1     -40.047  52.357 -51.608  1.00  0.00     0.017 A 
HETATM   20  C   UNL     1     -40.054  52.183 -54.419  1.00  0.00     0.072 A 
HETATM   21  N   UNL     1     -41.150  54.427 -54.277  1.00  0.00    -0.365 N 
HETATM   22  C   UNL     1     -39.540  51.153 -53.641  1.00  0.00     0.118 A 
HETATM   23  C   UNL     1     -39.545  51.221 -52.258  1.00  0.00     0.043 A 
HETATM   24  F   UNL     1     -39.039  50.067 -54.241  1.00  0.00    -0.206 F 
HETATM   25  C   UNL     1     -41.445  55.306 -53.276  1.00  0.00     0.096 A 
HETATM   26  H   UNL     1     -41.351  54.565 -55.260  1.00  0.00     0.165 HD
ENDBRANCH  12  16
ENDBRANCH   8   9
ENDBRANCH   1   8
TORSDOF 3
ENDMDL
MODEL 7
REMARK VINA RESULT:      -8.5      3.837      6.995
REMARK  3 active torsions:
REMARK  status: ('A' for Active; 'I' for Inactive)
REMARK    1  A    between atoms: C_7  and  C_8 
REMARK    2  A    between atoms: N_11  and  C_13 
REMARK    3  A    between atoms: C_13  and  C_14 
ROOT
HETATM    1  C   UNL     1     -40.053  52.443 -52.537  1.00  0.00     0.080 A 
HETATM    2  O   UNL     1     -40.369  53.474 -51.699  1.00  0.00    -0.302 OA
HETATM    3  C   UNL     1     -40.441  52.948 -50.442  1.00  0.00     0.155 A 
HETATM    4  C   UNL     1     -40.753  53.834 -49.379  1.00  0.00     0.125 C 
HETATM    5  N   UNL     1     -40.993  54.572 -48.517  1.00  0.00    -0.189 NA
HETATM    6  C   UNL     1     -40.169  51.600 -50.464  1.00  0.00     0.051 A 
HETATM    7  C   UNL     1     -39.918  51.271 -51.821  1.00  0.00     0.038 A 
ENDROOT
BRANCH   1   8
HETATM    8  C   UNL     1     -39.913  52.777 -53.976  1.00  0.00     0.299 C 
BRANCH   8   9
HETATM    9  N   UNL     1     -41.049  53.617 -54.543  1.00  0.00    -0.065 N 
HETATM   10  C   UNL     1     -42.264  53.613 -53.643  1.00  0.00     0.236 C 
HETATM   11  C   UNL     1     -43.340  54.525 -54.213  1.00  0.00     0.037 C 
HETATM   12  C   UNL     1     -42.831  55.976 -54.333  1.00  0.00     0.024 C 
HETATM   13  C   UNL     1     -41.650  55.939 -55.303  1.00  0.00     0.037 C 
HETATM   14  C   UNL     1     -40.537  54.998 -54.861  1.00  0.00     0.236 C 
HETATM   15  H   UNL     1     -41.323  53.154 -55.420  1.00  0.00     0.280 HD
BRANCH  12  16
HETATM   16  C   UNL     1     -42.583  56.586 -52.960  1.00  0.00    -0.026 A 
HETATM   17  C   UNL     1     -41.605  57.542 -52.491  1.00  0.00    -0.001 A 
HETATM   18  C   UNL     1     -41.748  57.633 -51.100  1.00  0.00     0.045 A 
HETATM   19  C   UNL     1     -40.590  58.334 -53.083  1.00  0.00     0.017 A 
HETATM   20  C   UNL     1     -40.902  58.395 -50.285  1.00  0.00     0.072 A 
HETATM   21  N   UNL     1     -42.843  56.886 -50.747  1.00  0.00    -0.365 N 
HETATM   22  C   UNL     1     -39.887  59.112 -50.906  1.00  0.00     0.118 A 
HETATM   23  C   UNL     1     -39.733  59.102 -52.282  1.00  0.00     0.043 A 
HETATM   24  F   UNL     1     -39.046  59.838 -50.159  1.00  0.00    -0.206 F 
HETATM   25  C   UNL     1     -43.355  56.268 -51.850  1.00  0.00     0.096 A 
HETATM   26  H   UNL     1     -43.216  56.819 -49.808  1.00  0.00     0.165 HD
ENDBRANCH  12  16
ENDBRANCH   8   9
ENDBRANCH   1   8
TORSDOF 3
ENDMDL
MODEL 8
REMARK VINA RESULT:      -8.5      3.167      5.683
REMARK  3 active torsions:
REMARK  status: ('A' for Active; 'I' for Inactive)
REMARK    1  A    between atoms: C_7  and  C_8 
REMARK    2  A    between atoms: N_11  and  C_13 
REMARK    3  A    between atoms: C_13  and  C_14 
ROOT
HETATM    1  C   UNL     1     -41.281  58.708 -52.662  1.00  0.00     0.080 A 
HETATM    2  O   UNL     1     -40.125  59.330 -52.288  1.00  0.00    -0.302 OA
HETATM    3  C   UNL     1     -39.952  59.069 -50.960  1.00  0.00     0.155 A 
HETATM    4  C   UNL     1     -38.800  59.608 -50.331  1.00  0.00     0.125 C 
HETATM    5  N   UNL     1     -37.846  60.042 -49.834  1.00  0.00    -0.189 NA
HETATM    6  C   UNL     1     -40.975  58.283 -50.483  1.00  0.00     0.051 A 
HETATM    7  C   UNL     1     -41.838  58.049 -51.584  1.00  0.00     0.038 A 
ENDROOT
BRANCH   1   8
HETATM    8  C   UNL     1     -41.680  58.847 -54.083  1.00  0.00     0.299 C 
BRANCH   8   9
HETATM    9  N   UNL     1     -42.237  57.576 -54.711  1.00  0.00    -0.065 N 
HETATM   10  C   UNL     1     -41.174  56.515 -54.885  1.00  0.00     0.236 C 
HETATM   11  C   UNL     1     -41.793  55.242 -55.443  1.00  0.00     0.037 C 
HETATM   12  C   UNL     1     -42.876  54.691 -54.495  1.00  0.00     0.024 C 
HETATM   13  C   UNL     1     -43.958  55.768 -54.405  1.00  0.00     0.037 C 
HETATM   14  C   UNL     1     -43.431  57.111 -53.919  1.00  0.00     0.236 C 
HETATM   15  H   UNL     1     -42.548  57.848 -55.654  1.00  0.00     0.280 HD
BRANCH  12  16
HETATM   16  C   UNL     1     -42.267  54.208 -53.185  1.00  0.00    -0.026 A 
HETATM   17  C   UNL     1     -41.241  53.229 -52.900  1.00  0.00    -0.001 A 
HETATM   18  C   UNL     1     -41.181  53.084 -51.508  1.00  0.00     0.045 A 
HETATM   19  C   UNL     1     -40.362  52.423 -53.666  1.00  0.00     0.017 A 
HETATM   20  C   UNL     1     -40.365  52.147 -50.864  1.00  0.00     0.072 A 
HETATM   21  N   UNL     1     -42.018  54.021 -50.959  1.00  0.00    -0.365 N 
HETATM   22  C   UNL     1     -39.560  51.342 -51.661  1.00  0.00     0.118 A 
HETATM   23  C   UNL     1     -39.539  51.478 -53.038  1.00  0.00     0.043 A 
HETATM   24  F   UNL     1     -38.779  50.421 -51.083  1.00  0.00    -0.206 F 
HETATM   25  C   UNL     1     -42.661  54.704 -51.950  1.00  0.00     0.096 A 
HETATM   26  H   UNL     1     -42.128  54.183 -49.965  1.00  0.00     0.165 HD
ENDBRANCH  12  16
ENDBRANCH   8   9
ENDBRANCH   1   8
TORSDOF 3
ENDMDL
MODEL 9
REMARK VINA RESULT:      -8.5      3.174      4.972
REMARK  3 active torsions:
REMARK  status: ('A' for Active; 'I' for Inactive)
REMARK    1  A    between atoms: C_7  and  C_8 
REMARK    2  A    between atoms: N_11  and  C_13 
REMARK    3  A    between atoms: C_13  and  C_14 
ROOT
HETATM    1  C   UNL     1     -42.438  57.999 -54.770  1.00  0.00     0.080 A 
HETATM    2  O   UNL     1     -43.327  57.429 -53.905  1.00  0.00    -0.302 OA
HETATM    3  C   UNL     1     -43.405  58.254 -52.822  1.00  0.00     0.155 A 
HETATM    4  C   UNL     1     -44.281  57.877 -51.771  1.00  0.00     0.125 C 
HETATM    5  N   UNL     1     -45.013  57.564 -50.929  1.00  0.00    -0.189 NA
HETATM    6  C   UNL     1     -42.585  59.347 -52.985  1.00  0.00     0.051 A 
HETATM    7  C   UNL     1     -41.958  59.183 -54.246  1.00  0.00     0.038 A 
ENDROOT
BRANCH   1   8
HETATM    8  C   UNL     1     -42.190  57.275 -56.040  1.00  0.00     0.299 C 
BRANCH   8   9
HETATM    9  N   UNL     1     -41.810  55.810 -55.869  1.00  0.00    -0.065 N 
HETATM   10  C   UNL     1     -40.692  55.626 -54.868  1.00  0.00     0.236 C 
HETATM   11  C   UNL     1     -40.402  54.144 -54.675  1.00  0.00     0.037 C 
HETATM   12  C   UNL     1     -41.647  53.400 -54.152  1.00  0.00     0.024 C 
HETATM   13  C   UNL     1     -42.725  53.557 -55.226  1.00  0.00     0.037 C 
HETATM   14  C   UNL     1     -43.047  55.010 -55.547  1.00  0.00     0.236 C 
HETATM   15  H   UNL     1     -41.448  55.510 -56.784  1.00  0.00     0.280 HD
BRANCH  12  16
HETATM   16  C   UNL     1     -42.002  53.847 -52.740  1.00  0.00    -0.026 A 
HETATM   17  C   UNL     1     -41.214  53.946 -51.532  1.00  0.00    -0.001 A 
HETATM   18  C   UNL     1     -42.091  54.279 -50.491  1.00  0.00     0.045 A 
HETATM   19  C   UNL     1     -39.850  53.770 -51.189  1.00  0.00     0.017 A 
HETATM   20  C   UNL     1     -41.699  54.367 -49.150  1.00  0.00     0.072 A 
HETATM   21  N   UNL     1     -43.323  54.512 -51.047  1.00  0.00    -0.365 N 
HETATM   22  C   UNL     1     -40.361  54.133 -48.856  1.00  0.00     0.118 A 
HETATM   23  C   UNL     1     -39.440  53.854 -49.851  1.00  0.00     0.043 A 
HETATM   24  F   UNL     1     -39.952  54.190 -47.583  1.00  0.00    -0.206 F 
HETATM   25  C   UNL     1     -43.277  54.269 -52.389  1.00  0.00     0.096 A 
HETATM   26  H   UNL     1     -44.136  54.828 -50.533  1.00  0.00     0.165 HD
ENDBRANCH  12  16
ENDBRANCH   8   9
ENDBRANCH   1   8
TORSDOF 3
ENDMDL
MODEL 10
REMARK VINA RESULT:      -8.4      3.401      5.320
REMARK  3 active torsions:
REMARK  status: ('A' for Active; 'I' for Inactive)
REMARK    1  A    between atoms: C_7  and  C_8 
REMARK    2  A    between atoms: N_11  and  C_13 
REMARK    3  A    between atoms: C_13  and  C_14 
ROOT
HETATM    1  C   UNL     1     -41.451  59.620 -51.879  1.00  0.00     0.080 A 
HETATM    2  O   UNL     1     -42.342  60.374 -52.588  1.00  0.00    -0.302 OA
HETATM    3  C   UNL     1     -42.936  61.219 -51.696  1.00  0.00     0.155 A 
HETATM    4  C   UNL     1     -43.910  62.121 -52.197  1.00  0.00     0.125 C 
HETATM    5  N   UNL     1     -44.691  62.865 -52.624  1.00  0.00    -0.189 NA
HETATM    6  C   UNL     1     -42.433  61.020 -50.431  1.00  0.00     0.051 A 
HETATM    7  C   UNL     1     -41.472  59.985 -50.548  1.00  0.00     0.038 A 
ENDROOT
BRANCH   1   8
HETATM    8  C   UNL     1     -40.670  58.620 -52.647  1.00  0.00     0.299 C 
BRANCH   8   9
HETATM    9  N   UNL     1     -41.516  57.606 -53.406  1.00  0.00    -0.065 N 
HETATM   10  C   UNL     1     -40.669  56.663 -54.230  1.00  0.00     0.236 C 
HETATM   11  C   UNL     1     -41.551  55.624 -54.907  1.00  0.00     0.037 C 
HETATM   12  C   UNL     1     -42.327  54.793 -53.867  1.00  0.00     0.024 C 
HETATM   13  C   UNL     1     -43.217  55.777 -53.106  1.00  0.00     0.037 C 
HETATM   14  C   UNL     1     -42.437  56.904 -52.442  1.00  0.00     0.236 C 
HETATM   15  H   UNL     1     -42.081  58.157 -54.066  1.00  0.00     0.280 HD
BRANCH  12  16
HETATM   16  C   UNL     1     -41.383  53.928 -53.041  1.00  0.00    -0.026 A 
HETATM   17  C   UNL     1     -40.783  52.638 -53.297  1.00  0.00    -0.001 A 
HETATM   18  C   UNL     1     -40.116  52.252 -52.127  1.00  0.00     0.045 A 
HETATM   19  C   UNL     1     -40.743  51.732 -54.386  1.00  0.00     0.017 A 
HETATM   20  C   UNL     1     -39.493  51.007 -51.969  1.00  0.00     0.072 A 
HETATM   21  N   UNL     1     -40.179  53.303 -51.249  1.00  0.00    -0.365 N 
HETATM   22  C   UNL     1     -39.527  50.131 -53.046  1.00  0.00     0.118 A 
HETATM   23  C   UNL     1     -40.126  50.481 -54.245  1.00  0.00     0.043 A 
HETATM   24  F   UNL     1     -38.959  48.925 -52.926  1.00  0.00    -0.206 F 
HETATM   25  C   UNL     1     -40.922  54.312 -51.789  1.00  0.00     0.096 A 
HETATM   26  H   UNL     1     -39.728  53.324 -50.342  1.00  0.00     0.165 HD
ENDBRANCH  12  16
ENDBRANCH   8   9
ENDBRANCH   1   8
TORSDOF 3
ENDMDL
