MODEL 1
REMARK VINA RESULT:      -7.9      0.000      0.000
REMARK  7 active torsions:
REMARK  status: ('A' for Active; 'I' for Inactive)
REMARK    1  A    between atoms: O_2  and  C_3 
REMARK    2  A    between atoms: C_3  and  C_4 
REMARK    3  A    between atoms: C_5  and  N_6 
REMARK       I    between atoms: N_6  and  C_7 
REMARK    4  A    between atoms: C_7  and  C_8 
REMARK    5  A    between atoms: C_8  and  N_9 
REMARK    6  A    between atoms: C_11  and  C_12 
REMARK    7  A    between atoms: C_20  and  O_21 
ROOT
HETATM    1  N   UNL     1     -44.162  58.528 -55.072  1.00  0.00    -0.054 N 
HETATM    2  H   UNL     1     -44.224  58.062 -54.148  1.00  0.00     0.281 HD
HETATM    3  C   UNL     1     -42.973  57.923 -55.823  1.00  0.00     0.228 C 
HETATM    4  C   UNL     1     -43.058  58.274 -57.338  1.00  0.00     0.055 C 
HETATM    5  C   UNL     1     -44.431  57.994 -57.978  1.00  0.00     0.065 C 
HETATM    6  C   UNL     1     -45.527  58.692 -57.168  1.00  0.00     0.066 C 
HETATM    7  C   UNL     1     -45.502  58.263 -55.712  1.00  0.00     0.239 C 
HETATM    8  C   UNL     1     -41.916  57.673 -58.177  1.00  0.00     0.010 C 
HETATM    9  C   UNL     1     -41.951  58.208 -59.609  1.00  0.00     0.001 C 
HETATM   10  C   UNL     1     -43.298  57.961 -60.279  1.00  0.00     0.003 C 
HETATM   11  C   UNL     1     -44.466  58.486 -59.440  1.00  0.00     0.038 C 
ENDROOT
BRANCH   1  12
HETATM   12  C   UNL     1     -43.880  59.998 -54.677  1.00  0.00     0.338 C 
BRANCH  12  13
HETATM   13  C   UNL     1     -44.483  60.536 -53.374  1.00  0.00     0.248 C 
HETATM   14  N   UNL     1     -44.051  60.082 -52.165  1.00  0.00    -0.319 N 
HETATM   15  H   UNL     1     -44.103  60.769 -51.418  1.00  0.00     0.169 HD
HETATM   16  O   UNL     1     -45.224  61.523 -53.394  1.00  0.00    -0.271 OA
BRANCH  14  17
HETATM   17  C   UNL     1     -43.449  58.891 -51.849  1.00  0.00     0.094 A 
HETATM   18  C   UNL     1     -42.144  58.426 -51.859  1.00  0.00     0.080 A 
HETATM   19  C   UNL     1     -42.125  57.013 -51.505  1.00  0.00    -0.026 A 
HETATM   20  C   UNL     1     -43.395  56.530 -51.244  1.00  0.00    -0.008 A 
HETATM   21  C   UNL     1     -40.921  56.110 -51.395  1.00  0.00     0.041 C 
HETATM   22  S   UNL     1     -44.602  57.679 -51.547  1.00  0.00    -0.075 SA
HETATM   23  C   UNL     1     -43.738  55.128 -50.835  1.00  0.00     0.047 C 
HETATM   24  C   UNL     1     -42.480  54.379 -50.378  1.00  0.00     0.005 C 
HETATM   25  C   UNL     1     -41.310  54.623 -51.336  1.00  0.00     0.005 C 
BRANCH  18  26
HETATM   26  C   UNL     1     -40.994  59.221 -52.294  1.00  0.00     0.296 C 
HETATM   27  O   UNL     1     -40.594  59.245 -53.454  1.00  0.00    -0.259 OA
BRANCH  26  28
HETATM   28  O   UNL     1     -40.404  59.880 -51.263  1.00  0.00    -0.322 OA
HETATM   29  C   UNL     1     -39.152  59.349 -50.827  1.00  0.00     0.213 C 
ENDBRANCH  26  28
ENDBRANCH  18  26
ENDBRANCH  14  17
ENDBRANCH  12  13
ENDBRANCH   1  12
BRANCH   3  30
HETATM   30  C   UNL     1     -42.598  56.491 -55.449  1.00  0.00    -0.027 A 
HETATM   31  C   UNL     1     -41.288  55.992 -55.443  1.00  0.00     0.012 A 
HETATM   32  C   UNL     1     -41.011  54.688 -55.014  1.00  0.00     0.043 A 
HETATM   33  C   UNL     1     -42.042  53.865 -54.587  1.00  0.00     0.116 A 
HETATM   34  F   UNL     1     -41.771  52.626 -54.161  1.00  0.00    -0.206 F 
HETATM   35  C   UNL     1     -43.350  54.321 -54.583  1.00  0.00     0.043 A 
HETATM   36  C   UNL     1     -43.626  55.622 -55.014  1.00  0.00     0.012 A 
ENDBRANCH   3  30
BRANCH   5  37
HETATM   37  O   UNL     1     -44.720  56.599 -57.942  1.00  0.00    -0.389 OA
HETATM   38  H   UNL     1     -45.641  56.440 -58.219  1.00  0.00     0.210 HD
ENDBRANCH   5  37
TORSDOF 7
ENDMDL
MODEL 2
REMARK VINA RESULT:      -7.5      2.618      6.124
REMARK  7 active torsions:
REMARK  status: ('A' for Active; 'I' for Inactive)
REMARK    1  A    between atoms: O_2  and  C_3 
REMARK    2  A    between atoms: C_3  and  C_4 
REMARK    3  A    between atoms: C_5  and  N_6 
REMARK       I    between atoms: N_6  and  C_7 
REMARK    4  A    between atoms: C_7  and  C_8 
REMARK    5  A    between atoms: C_8  and  N_9 
REMARK    6  A    between atoms: C_11  and  C_12 
REMARK    7  A    between atoms: C_20  and  O_21 
ROOT
HETATM    1  N   UNL     1     -43.579  57.365 -52.301  1.00  0.00    -0.054 N 
HETATM    2  H   UNL     1     -43.659  58.184 -51.670  1.00  0.00     0.281 HD
HETATM    3  C   UNL     1     -42.197  57.412 -52.958  1.00  0.00     0.228 C 
HETATM    4  C   UNL     1     -41.857  56.031 -53.592  1.00  0.00     0.055 C 
HETATM    5  C   UNL     1     -42.082  54.830 -52.655  1.00  0.00     0.065 C 
HETATM    6  C   UNL     1     -43.511  54.867 -52.105  1.00  0.00     0.066 C 
HETATM    7  C   UNL     1     -43.798  56.179 -51.396  1.00  0.00     0.239 C 
HETATM    8  C   UNL     1     -40.465  55.978 -54.247  1.00  0.00     0.010 C 
HETATM    9  C   UNL     1     -40.271  54.668 -55.011  1.00  0.00     0.001 C 
HETATM   10  C   UNL     1     -40.494  53.449 -54.123  1.00  0.00     0.003 C 
HETATM   11  C   UNL     1     -41.843  53.500 -53.400  1.00  0.00     0.038 C 
ENDROOT
BRANCH   1  12
HETATM   12  C   UNL     1     -44.697  57.643 -53.335  1.00  0.00     0.338 C 
BRANCH  12  13
HETATM   13  C   UNL     1     -44.971  59.094 -53.747  1.00  0.00     0.248 C 
HETATM   14  N   UNL     1     -44.947  59.464 -55.057  1.00  0.00    -0.319 N 
HETATM   15  H   UNL     1     -45.578  60.227 -55.288  1.00  0.00     0.169 HD
HETATM   16  O   UNL     1     -45.408  59.901 -52.922  1.00  0.00    -0.271 OA
BRANCH  14  17
HETATM   17  C   UNL     1     -44.297  58.879 -56.114  1.00  0.00     0.094 A 
HETATM   18  C   UNL     1     -43.041  59.014 -56.681  1.00  0.00     0.080 A 
HETATM   19  C   UNL     1     -42.950  58.181 -57.873  1.00  0.00    -0.026 A 
HETATM   20  C   UNL     1     -44.121  57.482 -58.104  1.00  0.00    -0.008 A 
HETATM   21  C   UNL     1     -41.765  58.024 -58.795  1.00  0.00     0.041 C 
HETATM   22  S   UNL     1     -45.352  57.902 -57.020  1.00  0.00    -0.075 SA
HETATM   23  C   UNL     1     -44.366  56.522 -59.230  1.00  0.00     0.047 C 
HETATM   24  C   UNL     1     -43.042  56.119 -59.891  1.00  0.00     0.005 C 
HETATM   25  C   UNL     1     -42.143  57.338 -60.119  1.00  0.00     0.005 C 
BRANCH  18  26
HETATM   26  C   UNL     1     -42.025  59.957 -56.209  1.00  0.00     0.296 C 
HETATM   27  O   UNL     1     -41.776  60.135 -55.019  1.00  0.00    -0.259 OA
BRANCH  26  28
HETATM   28  O   UNL     1     -41.437  60.635 -57.228  1.00  0.00    -0.322 OA
HETATM   29  C   UNL     1     -42.099  61.833 -57.636  1.00  0.00     0.213 C 
ENDBRANCH  26  28
ENDBRANCH  18  26
ENDBRANCH  14  17
ENDBRANCH  12  13
ENDBRANCH   1  12
BRANCH   3  30
HETATM   30  C   UNL     1     -41.099  58.117 -52.167  1.00  0.00    -0.027 A 
HETATM   31  C   UNL     1     -39.885  58.556 -52.716  1.00  0.00     0.012 A 
HETATM   32  C   UNL     1     -38.955  59.264 -51.946  1.00  0.00     0.043 A 
HETATM   33  C   UNL     1     -39.226  59.543 -50.615  1.00  0.00     0.116 A 
HETATM   34  F   UNL     1     -38.342  60.236 -49.888  1.00  0.00    -0.206 F 
HETATM   35  C   UNL     1     -40.412  59.121 -50.036  1.00  0.00     0.043 A 
HETATM   36  C   UNL     1     -41.339  58.411 -50.804  1.00  0.00     0.012 A 
ENDBRANCH   3  30
BRANCH   5  37
HETATM   37  O   UNL     1     -41.208  54.905 -51.533  1.00  0.00    -0.389 OA
HETATM   38  H   UNL     1     -41.503  55.608 -50.923  1.00  0.00     0.210 HD
ENDBRANCH   5  37
TORSDOF 7
ENDMDL
MODEL 3
REMARK VINA RESULT:      -7.4      1.552      2.545
REMARK  7 active torsions:
REMARK  status: ('A' for Active; 'I' for Inactive)
REMARK    1  A    between atoms: O_2  and  C_3 
REMARK    2  A    between atoms: C_3  and  C_4 
REMARK    3  A    between atoms: C_5  and  N_6 
REMARK       I    between atoms: N_6  and  C_7 
REMARK    4  A    between atoms: C_7  and  C_8 
REMARK    5  A    between atoms: C_8  and  N_9 
REMARK    6  A    between atoms: C_11  and  C_12 
REMARK    7  A    between atoms: C_20  and  O_21 
ROOT
HETATM    1  N   UNL     1     -43.460  59.130 -54.804  1.00  0.00    -0.054 N 
HETATM    2  H   UNL     1     -43.460  58.734 -53.846  1.00  0.00     0.281 HD
HETATM    3  C   UNL     1     -42.618  58.209 -55.691  1.00  0.00     0.228 C 
HETATM    4  C   UNL     1     -42.897  58.508 -57.194  1.00  0.00     0.055 C 
HETATM    5  C   UNL     1     -44.391  58.564 -57.563  1.00  0.00     0.065 C 
HETATM    6  C   UNL     1     -45.112  59.553 -56.642  1.00  0.00     0.066 C 
HETATM    7  C   UNL     1     -44.919  59.191 -55.180  1.00  0.00     0.239 C 
HETATM    8  C   UNL     1     -42.115  57.599 -58.160  1.00  0.00     0.010 C 
HETATM    9  C   UNL     1     -42.286  58.066 -59.606  1.00  0.00     0.001 C 
HETATM   10  C   UNL     1     -43.753  58.146 -60.012  1.00  0.00     0.003 C 
HETATM   11  C   UNL     1     -44.579  58.987 -59.035  1.00  0.00     0.038 C 
ENDROOT
BRANCH   1  12
HETATM   12  C   UNL     1     -42.757  60.493 -54.593  1.00  0.00     0.338 C 
BRANCH  12  13
HETATM   13  C   UNL     1     -42.897  61.188 -53.233  1.00  0.00     0.248 C 
HETATM   14  N   UNL     1     -42.680  60.506 -52.075  1.00  0.00    -0.319 N 
HETATM   15  H   UNL     1     -42.314  61.076 -51.317  1.00  0.00     0.169 HD
HETATM   16  O   UNL     1     -43.016  62.415 -53.173  1.00  0.00    -0.271 OA
BRANCH  14  17
HETATM   17  C   UNL     1     -42.765  59.159 -51.831  1.00  0.00     0.094 A 
HETATM   18  C   UNL     1     -43.786  58.296 -51.470  1.00  0.00     0.080 A 
HETATM   19  C   UNL     1     -43.245  56.960 -51.253  1.00  0.00    -0.026 A 
HETATM   20  C   UNL     1     -41.880  56.915 -51.477  1.00  0.00    -0.008 A 
HETATM   21  C   UNL     1     -44.000  55.718 -50.849  1.00  0.00     0.041 C 
HETATM   22  S   UNL     1     -41.224  58.442 -51.799  1.00  0.00    -0.075 SA
HETATM   23  C   UNL     1     -41.009  55.699 -51.363  1.00  0.00     0.047 C 
HETATM   24  C   UNL     1     -41.864  54.426 -51.329  1.00  0.00     0.005 C 
HETATM   25  C   UNL     1     -43.062  54.589 -50.389  1.00  0.00     0.005 C 
BRANCH  18  26
HETATM   26  C   UNL     1     -45.166  58.717 -51.222  1.00  0.00     0.296 C 
HETATM   27  O   UNL     1     -45.791  58.406 -50.212  1.00  0.00    -0.259 OA
BRANCH  26  28
HETATM   28  O   UNL     1     -45.677  59.442 -52.251  1.00  0.00    -0.322 OA
HETATM   29  C   UNL     1     -46.455  60.580 -51.878  1.00  0.00     0.213 C 
ENDBRANCH  26  28
ENDBRANCH  18  26
ENDBRANCH  14  17
ENDBRANCH  12  13
ENDBRANCH   1  12
BRANCH   3  30
HETATM   30  C   UNL     1     -42.543  56.746 -55.263  1.00  0.00    -0.027 A 
HETATM   31  C   UNL     1     -43.652  55.970 -54.897  1.00  0.00     0.012 A 
HETATM   32  C   UNL     1     -43.515  54.611 -54.588  1.00  0.00     0.043 A 
HETATM   33  C   UNL     1     -42.267  54.010 -54.642  1.00  0.00     0.116 A 
HETATM   34  F   UNL     1     -42.145  52.707 -54.365  1.00  0.00    -0.206 F 
HETATM   35  C   UNL     1     -41.147  54.745 -54.994  1.00  0.00     0.043 A 
HETATM   36  C   UNL     1     -41.283  56.103 -55.299  1.00  0.00     0.012 A 
ENDBRANCH   3  30
BRANCH   5  37
HETATM   37  O   UNL     1     -45.001  57.293 -57.356  1.00  0.00    -0.389 OA
HETATM   38  H   UNL     1     -44.664  56.648 -58.006  1.00  0.00     0.210 HD
ENDBRANCH   5  37
TORSDOF 7
ENDMDL
MODEL 4
REMARK VINA RESULT:      -7.2      2.972      5.618
REMARK  7 active torsions:
REMARK  status: ('A' for Active; 'I' for Inactive)
REMARK    1  A    between atoms: O_2  and  C_3 
REMARK    2  A    between atoms: C_3  and  C_4 
REMARK    3  A    between atoms: C_5  and  N_6 
REMARK       I    between atoms: N_6  and  C_7 
REMARK    4  A    between atoms: C_7  and  C_8 
REMARK    5  A    between atoms: C_8  and  N_9 
REMARK    6  A    between atoms: C_11  and  C_12 
REMARK    7  A    between atoms: C_20  and  O_21 
ROOT
HETATM    1  N   UNL     1     -42.342  58.566 -54.492  1.00  0.00    -0.054 N 
HETATM    2  H   UNL     1     -41.320  58.503 -54.651  1.00  0.00     0.281 HD
HETATM    3  C   UNL     1     -42.588  58.464 -52.984  1.00  0.00     0.228 C 
HETATM    4  C   UNL     1     -44.029  58.946 -52.640  1.00  0.00     0.055 C 
HETATM    5  C   UNL     1     -44.409  60.302 -53.262  1.00  0.00     0.065 C 
HETATM    6  C   UNL     1     -44.168  60.261 -54.774  1.00  0.00     0.066 C 
HETATM    7  C   UNL     1     -42.730  59.892 -55.096  1.00  0.00     0.239 C 
HETATM    8  C   UNL     1     -44.350  58.909 -51.135  1.00  0.00     0.010 C 
HETATM    9  C   UNL     1     -45.829  59.209 -50.886  1.00  0.00     0.001 C 
HETATM   10  C   UNL     1     -46.253  60.542 -51.494  1.00  0.00     0.003 C 
HETATM   11  C   UNL     1     -45.887  60.642 -52.977  1.00  0.00     0.038 C 
ENDROOT
BRANCH   1  12
HETATM   12  C   UNL     1     -42.864  57.308 -55.227  1.00  0.00     0.338 C 
BRANCH  12  13
HETATM   13  C   UNL     1     -44.195  56.694 -54.777  1.00  0.00     0.248 C 
HETATM   14  N   UNL     1     -44.228  55.710 -53.837  1.00  0.00    -0.319 N 
HETATM   15  H   UNL     1     -45.066  55.709 -53.261  1.00  0.00     0.169 HD
HETATM   16  O   UNL     1     -45.263  57.215 -55.112  1.00  0.00    -0.271 OA
BRANCH  14  17
HETATM   17  C   UNL     1     -43.251  54.816 -53.480  1.00  0.00     0.094 A 
HETATM   18  C   UNL     1     -42.686  54.416 -52.280  1.00  0.00     0.080 A 
HETATM   19  C   UNL     1     -41.596  53.485 -52.538  1.00  0.00    -0.026 A 
HETATM   20  C   UNL     1     -41.433  53.244 -53.891  1.00  0.00    -0.008 A 
HETATM   21  C   UNL     1     -40.711  52.803 -51.523  1.00  0.00     0.041 C 
HETATM   22  S   UNL     1     -42.449  54.204 -54.848  1.00  0.00    -0.075 SA
HETATM   23  C   UNL     1     -40.419  52.327 -54.506  1.00  0.00     0.047 C 
HETATM   24  C   UNL     1     -39.822  51.396 -53.444  1.00  0.00     0.005 C 
HETATM   25  C   UNL     1     -39.468  52.166 -52.168  1.00  0.00     0.005 C 
BRANCH  18  26
HETATM   26  C   UNL     1     -43.061  54.965 -50.976  1.00  0.00     0.296 C 
HETATM   27  O   UNL     1     -44.036  54.576 -50.338  1.00  0.00    -0.259 OA
BRANCH  26  28
HETATM   28  O   UNL     1     -42.238  55.974 -50.585  1.00  0.00    -0.322 OA
HETATM   29  C   UNL     1     -41.390  55.682 -49.473  1.00  0.00     0.213 C 
ENDBRANCH  26  28
ENDBRANCH  18  26
ENDBRANCH  14  17
ENDBRANCH  12  13
ENDBRANCH   1  12
BRANCH   3  30
HETATM   30  C   UNL     1     -41.451  58.936 -52.082  1.00  0.00    -0.027 A 
HETATM   31  C   UNL     1     -41.621  59.397 -50.769  1.00  0.00     0.012 A 
HETATM   32  C   UNL     1     -40.522  59.743 -49.974  1.00  0.00     0.043 A 
HETATM   33  C   UNL     1     -39.237  59.631 -50.482  1.00  0.00     0.116 A 
HETATM   34  F   UNL     1     -38.188  59.945 -49.712  1.00  0.00    -0.206 F 
HETATM   35  C   UNL     1     -39.028  59.185 -51.776  1.00  0.00     0.043 A 
HETATM   36  C   UNL     1     -40.127  58.843 -52.571  1.00  0.00     0.012 A 
ENDBRANCH   3  30
BRANCH   5  37
HETATM   37  O   UNL     1     -43.579  61.337 -52.742  1.00  0.00    -0.389 OA
HETATM   38  H   UNL     1     -42.639  61.113 -52.877  1.00  0.00     0.210 HD
ENDBRANCH   5  37
TORSDOF 7
ENDMDL
MODEL 5
REMARK VINA RESULT:      -7.1      3.271      5.026
REMARK  7 active torsions:
REMARK  status: ('A' for Active; 'I' for Inactive)
REMARK    1  A    between atoms: O_2  and  C_3 
REMARK    2  A    between atoms: C_3  and  C_4 
REMARK    3  A    between atoms: C_5  and  N_6 
REMARK       I    between atoms: N_6  and  C_7 
REMARK    4  A    between atoms: C_7  and  C_8 
REMARK    5  A    between atoms: C_8  and  N_9 
REMARK    6  A    between atoms: C_11  and  C_12 
REMARK    7  A    between atoms: C_20  and  O_21 
ROOT
HETATM    1  N   UNL     1     -42.934  56.965 -57.669  1.00  0.00    -0.054 N 
HETATM    2  H   UNL     1     -41.969  57.317 -57.530  1.00  0.00     0.281 HD
HETATM    3  C   UNL     1     -43.745  58.075 -58.343  1.00  0.00     0.228 C 
HETATM    4  C   UNL     1     -45.061  57.493 -58.939  1.00  0.00     0.055 C 
HETATM    5  C   UNL     1     -44.864  56.230 -59.798  1.00  0.00     0.065 C 
HETATM    6  C   UNL     1     -44.087  55.180 -58.998  1.00  0.00     0.066 C 
HETATM    7  C   UNL     1     -42.757  55.726 -58.511  1.00  0.00     0.239 C 
HETATM    8  C   UNL     1     -45.924  58.538 -59.668  1.00  0.00     0.010 C 
HETATM    9  C   UNL     1     -47.280  57.949 -60.059  1.00  0.00     0.001 C 
HETATM   10  C   UNL     1     -47.133  56.689 -60.905  1.00  0.00     0.003 C 
HETATM   11  C   UNL     1     -46.224  55.650 -60.242  1.00  0.00     0.038 C 
ENDROOT
BRANCH   1  12
HETATM   12  C   UNL     1     -43.409  56.734 -56.214  1.00  0.00     0.338 C 
BRANCH  12  13
HETATM   13  C   UNL     1     -42.981  57.735 -55.135  1.00  0.00     0.248 C 
HETATM   14  N   UNL     1     -42.033  57.407 -54.214  1.00  0.00    -0.319 N 
HETATM   15  H   UNL     1     -41.475  58.192 -53.891  1.00  0.00     0.169 HD
HETATM   16  O   UNL     1     -43.343  58.913 -55.203  1.00  0.00    -0.271 OA
BRANCH  14  17
HETATM   17  C   UNL     1     -41.648  56.169 -53.767  1.00  0.00     0.094 A 
HETATM   18  C   UNL     1     -41.634  55.539 -52.534  1.00  0.00     0.080 A 
HETATM   19  C   UNL     1     -41.007  54.229 -52.659  1.00  0.00    -0.026 A 
HETATM   20  C   UNL     1     -40.614  53.969 -53.960  1.00  0.00    -0.008 A 
HETATM   21  C   UNL     1     -40.784  53.210 -51.569  1.00  0.00     0.041 C 
HETATM   22  S   UNL     1     -40.850  55.294 -54.987  1.00  0.00    -0.075 SA
HETATM   23  C   UNL     1     -39.955  52.713 -54.446  1.00  0.00     0.047 C 
HETATM   24  C   UNL     1     -40.099  51.593 -53.407  1.00  0.00     0.005 C 
HETATM   25  C   UNL     1     -39.801  52.106 -51.995  1.00  0.00     0.005 C 
BRANCH  18  26
HETATM   26  C   UNL     1     -42.070  56.170 -51.286  1.00  0.00     0.296 C 
HETATM   27  O   UNL     1     -43.248  56.252 -50.951  1.00  0.00    -0.259 OA
BRANCH  26  28
HETATM   28  O   UNL     1     -41.031  56.687 -50.580  1.00  0.00    -0.322 OA
HETATM   29  C   UNL     1     -40.873  58.104 -50.664  1.00  0.00     0.213 C 
ENDBRANCH  26  28
ENDBRANCH  18  26
ENDBRANCH  14  17
ENDBRANCH  12  13
ENDBRANCH   1  12
BRANCH   3  30
HETATM   30  C   UNL     1     -42.956  59.061 -59.200  1.00  0.00    -0.027 A 
HETATM   31  C   UNL     1     -42.368  58.743 -60.434  1.00  0.00     0.012 A 
HETATM   32  C   UNL     1     -41.723  59.720 -61.202  1.00  0.00     0.043 A 
HETATM   33  C   UNL     1     -41.658  61.028 -60.747  1.00  0.00     0.116 A 
HETATM   34  F   UNL     1     -41.057  61.962 -61.493  1.00  0.00    -0.206 F 
HETATM   35  C   UNL     1     -42.222  61.379 -59.531  1.00  0.00     0.043 A 
HETATM   36  C   UNL     1     -42.863  60.403 -58.763  1.00  0.00     0.012 A 
ENDBRANCH   3  30
BRANCH   5  37
HETATM   37  O   UNL     1     -44.081  56.531 -60.950  1.00  0.00    -0.389 OA
HETATM   38  H   UNL     1     -44.661  56.718 -61.711  1.00  0.00     0.210 HD
ENDBRANCH   5  37
TORSDOF 7
ENDMDL
MODEL 6
REMARK VINA RESULT:      -6.9      2.302      3.334
REMARK  7 active torsions:
REMARK  status: ('A' for Active; 'I' for Inactive)
REMARK    1  A    between atoms: O_2  and  C_3 
REMARK    2  A    between atoms: C_3  and  C_4 
REMARK    3  A    between atoms: C_5  and  N_6 
REMARK       I    between atoms: N_6  and  C_7 
REMARK    4  A    between atoms: C_7  and  C_8 
REMARK    5  A    between atoms: C_8  and  N_9 
REMARK    6  A    between atoms: C_11  and  C_12 
REMARK    7  A    between atoms: C_20  and  O_21 
ROOT
HETATM    1  N   UNL     1     -44.839  59.661 -56.666  1.00  0.00    -0.054 N 
HETATM    2  H   UNL     1     -45.306  58.838 -56.244  1.00  0.00     0.281 HD
HETATM    3  C   UNL     1     -43.736  59.147 -57.596  1.00  0.00     0.228 C 
HETATM    4  C   UNL     1     -43.268  60.283 -58.554  1.00  0.00     0.055 C 
HETATM    5  C   UNL     1     -44.414  61.023 -59.267  1.00  0.00     0.065 C 
HETATM    6  C   UNL     1     -45.422  61.531 -58.230  1.00  0.00     0.066 C 
HETATM    7  C   UNL     1     -45.951  60.397 -57.369  1.00  0.00     0.239 C 
HETATM    8  C   UNL     1     -42.181  59.842 -59.550  1.00  0.00     0.010 C 
HETATM    9  C   UNL     1     -41.634  61.040 -60.326  1.00  0.00     0.001 C 
HETATM   10  C   UNL     1     -42.738  61.811 -61.042  1.00  0.00     0.003 C 
HETATM   11  C   UNL     1     -43.873  62.208 -60.094  1.00  0.00     0.038 C 
ENDROOT
BRANCH   1  12
HETATM   12  C   UNL     1     -44.237  60.366 -55.426  1.00  0.00     0.338 C 
BRANCH  12  13
HETATM   13  C   UNL     1     -44.851  60.080 -54.051  1.00  0.00     0.248 C 
HETATM   14  N   UNL     1     -44.316  59.136 -53.229  1.00  0.00    -0.319 N 
HETATM   15  H   UNL     1     -44.426  59.332 -52.238  1.00  0.00     0.169 HD
HETATM   16  O   UNL     1     -45.714  60.833 -53.588  1.00  0.00    -0.271 OA
BRANCH  14  17
HETATM   17  C   UNL     1     -43.552  58.041 -53.546  1.00  0.00     0.094 A 
HETATM   18  C   UNL     1     -42.192  57.785 -53.604  1.00  0.00     0.080 A 
HETATM   19  C   UNL     1     -41.968  56.438 -54.110  1.00  0.00    -0.026 A 
HETATM   20  C   UNL     1     -43.158  55.783 -54.377  1.00  0.00    -0.008 A 
HETATM   21  C   UNL     1     -40.644  55.749 -54.334  1.00  0.00     0.041 C 
HETATM   22  S   UNL     1     -44.509  56.783 -54.171  1.00  0.00    -0.075 SA
HETATM   23  C   UNL     1     -43.296  54.381 -54.891  1.00  0.00     0.047 C 
HETATM   24  C   UNL     1     -41.973  53.620 -54.738  1.00  0.00     0.005 C 
HETATM   25  C   UNL     1     -40.785  54.477 -55.187  1.00  0.00     0.005 C 
BRANCH  18  26
HETATM   26  C   UNL     1     -41.158  58.782 -53.321  1.00  0.00     0.296 C 
HETATM   27  O   UNL     1     -41.036  59.824 -53.961  1.00  0.00    -0.259 OA
BRANCH  26  28
HETATM   28  O   UNL     1     -40.334  58.399 -52.312  1.00  0.00    -0.322 OA
HETATM   29  C   UNL     1     -40.913  58.406 -51.005  1.00  0.00     0.213 C 
ENDBRANCH  26  28
ENDBRANCH  18  26
ENDBRANCH  14  17
ENDBRANCH  12  13
ENDBRANCH   1  12
BRANCH   3  30
HETATM   30  C   UNL     1     -43.951  57.760 -58.195  1.00  0.00    -0.027 A 
HETATM   31  C   UNL     1     -44.992  57.432 -59.076  1.00  0.00     0.012 A 
HETATM   32  C   UNL     1     -45.083  56.156 -59.646  1.00  0.00     0.043 A 
HETATM   33  C   UNL     1     -44.133  55.192 -59.344  1.00  0.00     0.116 A 
HETATM   34  F   UNL     1     -44.214  53.981 -59.906  1.00  0.00    -0.206 F 
HETATM   35  C   UNL     1     -43.093  55.478 -58.474  1.00  0.00     0.043 A 
HETATM   36  C   UNL     1     -43.005  56.750 -57.902  1.00  0.00     0.012 A 
ENDBRANCH   3  30
BRANCH   5  37
HETATM   37  O   UNL     1     -45.122  60.133 -60.125  1.00  0.00    -0.389 OA
HETATM   38  H   UNL     1     -44.539  59.405 -60.409  1.00  0.00     0.210 HD
ENDBRANCH   5  37
TORSDOF 7
ENDMDL
MODEL 7
REMARK VINA RESULT:      -6.8      2.641      5.061
REMARK  7 active torsions:
REMARK  status: ('A' for Active; 'I' for Inactive)
REMARK    1  A    between atoms: O_2  and  C_3 
REMARK    2  A    between atoms: C_3  and  C_4 
REMARK    3  A    between atoms: C_5  and  N_6 
REMARK       I    between atoms: N_6  and  C_7 
REMARK    4  A    between atoms: C_7  and  C_8 
REMARK    5  A    between atoms: C_8  and  N_9 
REMARK    6  A    between atoms: C_11  and  C_12 
REMARK    7  A    between atoms: C_20  and  O_21 
ROOT
HETATM    1  N   UNL     1     -42.239  57.634 -52.393  1.00  0.00    -0.054 N 
HETATM    2  H   UNL     1     -41.731  57.053 -51.701  1.00  0.00     0.281 HD
HETATM    3  C   UNL     1     -41.863  57.135 -53.790  1.00  0.00     0.228 C 
HETATM    4  C   UNL     1     -42.871  57.678 -54.846  1.00  0.00     0.055 C 
HETATM    5  C   UNL     1     -44.351  57.478 -54.470  1.00  0.00     0.065 C 
HETATM    6  C   UNL     1     -44.612  58.061 -53.078  1.00  0.00     0.066 C 
HETATM    7  C   UNL     1     -43.693  57.448 -52.037  1.00  0.00     0.239 C 
HETATM    8  C   UNL     1     -42.586  57.195 -56.279  1.00  0.00     0.010 C 
HETATM    9  C   UNL     1     -43.489  57.910 -57.285  1.00  0.00     0.001 C 
HETATM   10  C   UNL     1     -44.966  57.746 -56.946  1.00  0.00     0.003 C 
HETATM   11  C   UNL     1     -45.277  58.153 -55.503  1.00  0.00     0.038 C 
ENDROOT
BRANCH   1  12
HETATM   12  C   UNL     1     -41.652  59.041 -52.128  1.00  0.00     0.338 C 
BRANCH  12  13
HETATM   13  C   UNL     1     -41.528  59.524 -50.678  1.00  0.00     0.248 C 
HETATM   14  N   UNL     1     -42.552  60.184 -50.072  1.00  0.00    -0.319 N 
HETATM   15  H   UNL     1     -42.611  60.033 -49.068  1.00  0.00     0.169 HD
HETATM   16  O   UNL     1     -40.580  59.152 -49.980  1.00  0.00    -0.271 OA
BRANCH  14  17
HETATM   17  C   UNL     1     -43.573  60.908 -50.633  1.00  0.00     0.094 A 
HETATM   18  C   UNL     1     -44.950  60.928 -50.486  1.00  0.00     0.080 A 
HETATM   19  C   UNL     1     -45.532  61.862 -51.441  1.00  0.00    -0.026 A 
HETATM   20  C   UNL     1     -44.563  62.478 -52.215  1.00  0.00    -0.008 A 
HETATM   21  C   UNL     1     -46.992  62.196 -51.627  1.00  0.00     0.041 C 
HETATM   22  S   UNL     1     -43.012  61.865 -51.921  1.00  0.00    -0.075 SA
HETATM   23  C   UNL     1     -44.809  63.504 -53.280  1.00  0.00     0.047 C 
HETATM   24  C   UNL     1     -46.229  64.071 -53.164  1.00  0.00     0.005 C 
HETATM   25  C   UNL     1     -47.254  62.955 -52.938  1.00  0.00     0.005 C 
BRANCH  18  26
HETATM   26  C   UNL     1     -45.691  60.038 -49.591  1.00  0.00     0.296 C 
HETATM   27  O   UNL     1     -45.944  58.868 -49.865  1.00  0.00    -0.259 OA
BRANCH  26  28
HETATM   28  O   UNL     1     -46.100  60.668 -48.458  1.00  0.00    -0.322 OA
HETATM   29  C   UNL     1     -45.066  61.280 -47.685  1.00  0.00     0.213 C 
ENDBRANCH  26  28
ENDBRANCH  18  26
ENDBRANCH  14  17
ENDBRANCH  12  13
ENDBRANCH   1  12
BRANCH   3  30
HETATM   30  C   UNL     1     -41.452  55.668 -53.894  1.00  0.00    -0.027 A 
HETATM   31  C   UNL     1     -42.047  54.626 -53.168  1.00  0.00     0.012 A 
HETATM   32  C   UNL     1     -41.669  53.294 -53.372  1.00  0.00     0.043 A 
HETATM   33  C   UNL     1     -40.690  52.985 -54.304  1.00  0.00     0.116 A 
HETATM   34  F   UNL     1     -40.346  51.709 -54.508  1.00  0.00    -0.206 F 
HETATM   35  C   UNL     1     -40.076  53.988 -55.037  1.00  0.00     0.043 A 
HETATM   36  C   UNL     1     -40.451  55.319 -54.831  1.00  0.00     0.012 A 
ENDBRANCH   3  30
BRANCH   5  37
HETATM   37  O   UNL     1     -44.661  56.089 -54.397  1.00  0.00    -0.389 OA
HETATM   38  H   UNL     1     -45.431  55.885 -54.960  1.00  0.00     0.210 HD
ENDBRANCH   5  37
TORSDOF 7
ENDMDL
MODEL 8
REMARK VINA RESULT:      -6.8      2.985      5.543
REMARK  7 active torsions:
REMARK  status: ('A' for Active; 'I' for Inactive)
REMARK    1  A    between atoms: O_2  and  C_3 
REMARK    2  A    between atoms: C_3  and  C_4 
REMARK    3  A    between atoms: C_5  and  N_6 
REMARK       I    between atoms: N_6  and  C_7 
REMARK    4  A    between atoms: C_7  and  C_8 
REMARK    5  A    between atoms: C_8  and  N_9 
REMARK    6  A    between atoms: C_11  and  C_12 
REMARK    7  A    between atoms: C_20  and  O_21 
ROOT
HETATM    1  N   UNL     1     -42.561  57.321 -54.791  1.00  0.00    -0.054 N 
HETATM    2  H   UNL     1     -41.704  56.761 -54.632  1.00  0.00     0.281 HD
HETATM    3  C   UNL     1     -42.852  58.108 -53.511  1.00  0.00     0.228 C 
HETATM    4  C   UNL     1     -43.867  59.253 -53.802  1.00  0.00     0.055 C 
HETATM    5  C   UNL     1     -43.509  60.122 -55.022  1.00  0.00     0.065 C 
HETATM    6  C   UNL     1     -43.293  59.227 -56.246  1.00  0.00     0.066 C 
HETATM    7  C   UNL     1     -42.226  58.179 -55.985  1.00  0.00     0.239 C 
HETATM    8  C   UNL     1     -44.190  60.120 -52.572  1.00  0.00     0.010 C 
HETATM    9  C   UNL     1     -45.327  61.097 -52.877  1.00  0.00     0.001 C 
HETATM   10  C   UNL     1     -45.019  61.973 -54.086  1.00  0.00     0.003 C 
HETATM   11  C   UNL     1     -44.626  61.147 -55.313  1.00  0.00     0.038 C 
ENDROOT
BRANCH   1  12
HETATM   12  C   UNL     1     -43.628  56.224 -55.024  1.00  0.00     0.338 C 
BRANCH  12  13
HETATM   13  C   UNL     1     -43.196  54.910 -55.686  1.00  0.00     0.248 C 
HETATM   14  N   UNL     1     -42.751  53.864 -54.937  1.00  0.00    -0.319 N 
HETATM   15  H   UNL     1     -42.954  52.950 -55.332  1.00  0.00     0.169 HD
HETATM   16  O   UNL     1     -43.430  54.711 -56.882  1.00  0.00    -0.271 OA
BRANCH  14  17
HETATM   17  C   UNL     1     -42.189  53.868 -53.685  1.00  0.00     0.094 A 
HETATM   18  C   UNL     1     -41.071  53.282 -53.116  1.00  0.00     0.080 A 
HETATM   19  C   UNL     1     -41.038  53.572 -51.688  1.00  0.00    -0.026 A 
HETATM   20  C   UNL     1     -42.110  54.357 -51.298  1.00  0.00    -0.008 A 
HETATM   21  C   UNL     1     -40.000  53.132 -50.685  1.00  0.00     0.041 C 
HETATM   22  S   UNL     1     -43.209  54.628 -52.557  1.00  0.00    -0.075 SA
HETATM   23  C   UNL     1     -42.375  54.855 -49.909  1.00  0.00     0.047 C 
HETATM   24  C   UNL     1     -41.123  54.706 -49.035  1.00  0.00     0.005 C 
HETATM   25  C   UNL     1     -40.468  53.335 -49.234  1.00  0.00     0.005 C 
BRANCH  18  26
HETATM   26  C   UNL     1     -40.153  52.399 -53.837  1.00  0.00     0.296 C 
HETATM   27  O   UNL     1     -39.599  52.718 -54.886  1.00  0.00    -0.259 OA
BRANCH  26  28
HETATM   28  O   UNL     1     -40.028  51.185 -53.239  1.00  0.00    -0.322 OA
HETATM   29  C   UNL     1     -39.525  50.137 -54.070  1.00  0.00     0.213 C 
ENDBRANCH  26  28
ENDBRANCH  18  26
ENDBRANCH  14  17
ENDBRANCH  12  13
ENDBRANCH   1  12
BRANCH   3  30
HETATM   30  C   UNL     1     -41.647  58.437 -52.634  1.00  0.00    -0.027 A 
HETATM   31  C   UNL     1     -40.379  58.777 -53.126  1.00  0.00     0.012 A 
HETATM   32  C   UNL     1     -39.340  59.141 -52.261  1.00  0.00     0.043 A 
HETATM   33  C   UNL     1     -39.555  59.171 -50.892  1.00  0.00     0.116 A 
HETATM   34  F   UNL     1     -38.565  59.538 -50.072  1.00  0.00    -0.206 F 
HETATM   35  C   UNL     1     -40.793  58.837 -50.368  1.00  0.00     0.043 A 
HETATM   36  C   UNL     1     -41.830  58.470 -51.231  1.00  0.00     0.012 A 
ENDBRANCH   3  30
BRANCH   5  37
HETATM   37  O   UNL     1     -42.283  60.812 -54.797  1.00  0.00    -0.389 OA
HETATM   38  H   UNL     1     -42.145  60.951 -53.842  1.00  0.00     0.210 HD
ENDBRANCH   5  37
TORSDOF 7
ENDMDL
MODEL 9
REMARK VINA RESULT:      -6.7      3.259      5.857
REMARK  7 active torsions:
REMARK  status: ('A' for Active; 'I' for Inactive)
REMARK    1  A    between atoms: O_2  and  C_3 
REMARK    2  A    between atoms: C_3  and  C_4 
REMARK    3  A    between atoms: C_5  and  N_6 
REMARK       I    between atoms: N_6  and  C_7 
REMARK    4  A    between atoms: C_7  and  C_8 
REMARK    5  A    between atoms: C_8  and  N_9 
REMARK    6  A    between atoms: C_11  and  C_12 
REMARK    7  A    between atoms: C_20  and  O_21 
ROOT
HETATM    1  N   UNL     1     -42.805  59.186 -51.711  1.00  0.00    -0.054 N 
HETATM    2  H   UNL     1     -42.990  59.706 -50.833  1.00  0.00     0.281 HD
HETATM    3  C   UNL     1     -44.032  59.341 -52.614  1.00  0.00     0.228 C 
HETATM    4  C   UNL     1     -43.678  58.938 -54.077  1.00  0.00     0.055 C 
HETATM    5  C   UNL     1     -42.393  59.590 -54.621  1.00  0.00     0.065 C 
HETATM    6  C   UNL     1     -41.232  59.322 -53.658  1.00  0.00     0.066 C 
HETATM    7  C   UNL     1     -41.548  59.814 -52.257  1.00  0.00     0.239 C 
HETATM    8  C   UNL     1     -44.849  59.098 -55.063  1.00  0.00     0.010 C 
HETATM    9  C   UNL     1     -44.495  58.510 -56.429  1.00  0.00     0.001 C 
HETATM   10  C   UNL     1     -43.222  59.122 -57.003  1.00  0.00     0.003 C 
HETATM   11  C   UNL     1     -42.049  59.042 -56.021  1.00  0.00     0.038 C 
ENDROOT
BRANCH   1  12
HETATM   12  C   UNL     1     -42.670  57.729 -51.204  1.00  0.00     0.338 C 
BRANCH  12  13
HETATM   13  C   UNL     1     -43.929  56.859 -51.127  1.00  0.00     0.248 C 
HETATM   14  N   UNL     1     -43.848  55.503 -51.222  1.00  0.00    -0.319 N 
HETATM   15  H   UNL     1     -44.562  55.004 -50.699  1.00  0.00     0.169 HD
HETATM   16  O   UNL     1     -45.006  57.355 -50.783  1.00  0.00    -0.271 OA
BRANCH  14  17
HETATM   17  C   UNL     1     -42.880  54.730 -51.810  1.00  0.00     0.094 A 
HETATM   18  C   UNL     1     -42.537  54.422 -53.116  1.00  0.00     0.080 A 
HETATM   19  C   UNL     1     -41.455  53.447 -53.122  1.00  0.00    -0.026 A 
HETATM   20  C   UNL     1     -41.058  53.109 -51.840  1.00  0.00    -0.008 A 
HETATM   21  C   UNL     1     -40.775  52.837 -54.324  1.00  0.00     0.041 C 
HETATM   22  S   UNL     1     -42.035  53.817 -50.651  1.00  0.00    -0.075 SA
HETATM   23  C   UNL     1     -39.962  52.151 -51.482  1.00  0.00     0.047 C 
HETATM   24  C   UNL     1     -39.078  51.865 -52.701  1.00  0.00     0.005 C 
HETATM   25  C   UNL     1     -39.924  51.611 -53.953  1.00  0.00     0.005 C 
BRANCH  18  26
HETATM   26  C   UNL     1     -43.259  54.916 -54.290  1.00  0.00     0.296 C 
HETATM   27  O   UNL     1     -44.453  54.704 -54.483  1.00  0.00    -0.259 OA
BRANCH  26  28
HETATM   28  O   UNL     1     -42.448  55.585 -55.151  1.00  0.00    -0.322 OA
HETATM   29  C   UNL     1     -42.691  55.347 -56.538  1.00  0.00     0.213 C 
ENDBRANCH  26  28
ENDBRANCH  18  26
ENDBRANCH  14  17
ENDBRANCH  12  13
ENDBRANCH   1  12
BRANCH   3  30
HETATM   30  C   UNL     1     -44.863  60.605 -52.411  1.00  0.00    -0.027 A 
HETATM   31  C   UNL     1     -44.332  61.903 -52.367  1.00  0.00     0.012 A 
HETATM   32  C   UNL     1     -45.165  63.023 -52.253  1.00  0.00     0.043 A 
HETATM   33  C   UNL     1     -46.539  62.860 -52.182  1.00  0.00     0.116 A 
HETATM   34  F   UNL     1     -47.332  63.934 -52.092  1.00  0.00    -0.206 F 
HETATM   35  C   UNL     1     -47.101  61.594 -52.217  1.00  0.00     0.043 A 
HETATM   36  C   UNL     1     -46.269  60.476 -52.327  1.00  0.00     0.012 A 
ENDBRANCH   3  30
BRANCH   5  37
HETATM   37  O   UNL     1     -42.547  61.005 -54.693  1.00  0.00    -0.389 OA
HETATM   38  H   UNL     1     -41.736  61.448 -54.381  1.00  0.00     0.210 HD
ENDBRANCH   5  37
TORSDOF 7
ENDMDL
MODEL 10
REMARK VINA RESULT:      -6.7      2.720      4.722
REMARK  7 active torsions:
REMARK  status: ('A' for Active; 'I' for Inactive)
REMARK    1  A    between atoms: O_2  and  C_3 
REMARK    2  A    between atoms: C_3  and  C_4 
REMARK    3  A    between atoms: C_5  and  N_6 
REMARK       I    between atoms: N_6  and  C_7 
REMARK    4  A    between atoms: C_7  and  C_8 
REMARK    5  A    between atoms: C_8  and  N_9 
REMARK    6  A    between atoms: C_11  and  C_12 
REMARK    7  A    between atoms: C_20  and  O_21 
ROOT
HETATM    1  N   UNL     1     -43.243  57.039 -55.029  1.00  0.00    -0.054 N 
HETATM    2  H   UNL     1     -42.690  57.444 -54.251  1.00  0.00     0.281 HD
HETATM    3  C   UNL     1     -44.423  57.977 -55.301  1.00  0.00     0.228 C 
HETATM    4  C   UNL     1     -45.055  57.656 -56.688  1.00  0.00     0.055 C 
HETATM    5  C   UNL     1     -44.039  57.554 -57.840  1.00  0.00     0.065 C 
HETATM    6  C   UNL     1     -42.941  56.552 -57.470  1.00  0.00     0.066 C 
HETATM    7  C   UNL     1     -42.259  56.933 -56.167  1.00  0.00     0.239 C 
HETATM    8  C   UNL     1     -46.231  58.578 -57.059  1.00  0.00     0.010 C 
HETATM    9  C   UNL     1     -46.923  58.094 -58.333  1.00  0.00     0.001 C 
HETATM   10  C   UNL     1     -45.950  57.968 -59.500  1.00  0.00     0.003 C 
HETATM   11  C   UNL     1     -44.731  57.112 -59.147  1.00  0.00     0.038 C 
ENDROOT
BRANCH   1  12
HETATM   12  C   UNL     1     -43.726  55.699 -54.423  1.00  0.00     0.338 C 
BRANCH  12  13
HETATM   13  C   UNL     1     -42.997  55.146 -53.192  1.00  0.00     0.248 C 
HETATM   14  N   UNL     1     -43.031  55.810 -52.004  1.00  0.00    -0.319 N 
HETATM   15  H   UNL     1     -42.982  55.207 -51.187  1.00  0.00     0.169 HD
HETATM   16  O   UNL     1     -42.537  54.001 -53.207  1.00  0.00    -0.271 OA
BRANCH  14  17
HETATM   17  C   UNL     1     -43.247  57.142 -51.759  1.00  0.00     0.094 A 
HETATM   18  C   UNL     1     -42.458  58.280 -51.791  1.00  0.00     0.080 A 
HETATM   19  C   UNL     1     -43.230  59.425 -51.327  1.00  0.00    -0.026 A 
HETATM   20  C   UNL     1     -44.528  59.073 -50.999  1.00  0.00    -0.008 A 
HETATM   21  C   UNL     1     -42.766  60.856 -51.200  1.00  0.00     0.041 C 
HETATM   22  S   UNL     1     -44.792  57.403 -51.100  1.00  0.00    -0.075 SA
HETATM   23  C   UNL     1     -45.595  60.004 -50.506  1.00  0.00     0.047 C 
HETATM   24  C   UNL     1     -45.194  61.463 -50.757  1.00  0.00     0.005 C 
HETATM   25  C   UNL     1     -43.734  61.711 -50.366  1.00  0.00     0.005 C 
BRANCH  18  26
HETATM   26  C   UNL     1     -41.031  58.278 -52.118  1.00  0.00     0.296 C 
HETATM   27  O   UNL     1     -40.606  58.267 -53.270  1.00  0.00    -0.259 OA
BRANCH  26  28
HETATM   28  O   UNL     1     -40.247  58.242 -51.009  1.00  0.00    -0.322 OA
HETATM   29  C   UNL     1     -39.333  59.330 -50.864  1.00  0.00     0.213 C 
ENDBRANCH  26  28
ENDBRANCH  18  26
ENDBRANCH  14  17
ENDBRANCH  12  13
ENDBRANCH   1  12
BRANCH   3  30
HETATM   30  C   UNL     1     -44.214  59.445 -54.941  1.00  0.00    -0.027 A 
HETATM   31  C   UNL     1     -43.011  60.142 -55.125  1.00  0.00     0.012 A 
HETATM   32  C   UNL     1     -42.915  61.509 -54.842  1.00  0.00     0.043 A 
HETATM   33  C   UNL     1     -44.022  62.199 -54.372  1.00  0.00     0.116 A 
HETATM   34  F   UNL     1     -43.930  63.510 -54.121  1.00  0.00    -0.206 F 
HETATM   35  C   UNL     1     -45.226  61.545 -54.173  1.00  0.00     0.043 A 
HETATM   36  C   UNL     1     -45.321  60.178 -54.452  1.00  0.00     0.012 A 
ENDBRANCH   3  30
BRANCH   5  37
HETATM   37  O   UNL     1     -43.396  58.808 -58.048  1.00  0.00    -0.389 OA
HETATM   38  H   UNL     1     -42.556  58.842 -57.553  1.00  0.00     0.210 HD
ENDBRANCH   5  37
TORSDOF 7
ENDMDL
