MODEL 1
REMARK VINA RESULT:      -8.9      0.000      0.000
REMARK  7 active torsions:
REMARK  status: ('A' for Active; 'I' for Inactive)
REMARK    1  A    between atoms: S_2  and  C_3 
REMARK    2  A    between atoms: C_3  and  C_4 
REMARK    3  A    between atoms: C_4  and  C_5 
REMARK    4  A    between atoms: C_5  and  N_6 
REMARK    5  A    between atoms: C_5  and  C_26 
REMARK       I    between atoms: N_6  and  C_7 
REMARK    6  A    between atoms: C_7  and  C_8 
REMARK    7  A    between atoms: C_8  and  N_9 
ROOT
HETATM    1  N   UNL     1     -42.621  59.038 -53.771  1.00  0.00    -0.348 N 
HETATM    2  C   UNL     1     -41.968  59.117 -52.563  1.00  0.00     0.236 C 
HETATM    3  O   UNL     1     -41.048  59.914 -52.373  1.00  0.00    -0.272 OA
HETATM    4  H   UNL     1     -43.148  58.203 -53.982  1.00  0.00     0.163 HD
ENDROOT
BRANCH   2   5
HETATM    5  C   UNL     1     -42.499  58.236 -51.431  1.00  0.00     0.239 C 
BRANCH   5   6
HETATM    6  N   UNL     1     -42.642  56.832 -51.755  1.00  0.00    -0.259 N 
HETATM    7  C   UNL     1     -43.692  56.057 -51.379  1.00  0.00     0.326 A 
HETATM    8  O   UNL     1     -44.616  56.369 -50.650  1.00  0.00    -0.247 OA
HETATM    9  N   UNL     1     -43.554  54.821 -51.959  1.00  0.00    -0.320 N 
HETATM   10  C   UNL     1     -42.363  54.706 -52.776  1.00  0.00     0.144 A 
HETATM   11  H   UNL     1     -44.208  54.072 -51.773  1.00  0.00     0.165 HD
HETATM   12  C   UNL     1     -41.420  53.636 -52.248  1.00  0.00    -0.014 A 
HETATM   13  C   UNL     1     -42.759  54.511 -54.247  1.00  0.00     0.047 C 
HETATM   14  C   UNL     1     -41.801  56.137 -52.581  1.00  0.00     0.261 A 
HETATM   15  C   UNL     1     -40.706  52.803 -53.137  1.00  0.00    -0.049 A 
HETATM   16  C   UNL     1     -41.226  53.462 -50.862  1.00  0.00     0.011 A 
HETATM   17  C   UNL     1     -39.845  51.818 -52.627  1.00  0.00     0.007 A 
HETATM   18  C   UNL     1     -40.892  52.879 -54.634  1.00  0.00     0.039 C 
HETATM   19  C   UNL     1     -39.674  51.659 -51.254  1.00  0.00     0.001 A 
HETATM   20  C   UNL     1     -40.363  52.481 -50.371  1.00  0.00     0.001 A 
HETATM   21  C   UNL     1     -41.548  54.170 -55.108  1.00  0.00     0.008 C 
HETATM   22  O   UNL     1     -40.774  56.584 -53.074  1.00  0.00    -0.270 OA
ENDBRANCH   5   6
ENDBRANCH   2   5
BRANCH   1  23
HETATM   23  C   UNL     1     -42.295  59.922 -54.879  1.00  0.00     0.155 C 
BRANCH  23  24
HETATM   24  C   UNL     1     -43.263  61.113 -54.950  1.00  0.00     0.043 C 
BRANCH  24  25
HETATM   25  C   UNL     1     -44.733  60.730 -55.142  1.00  0.00     0.076 C 
BRANCH  25  26
HETATM   26  S   UNL     1     -45.419  61.107 -56.790  1.00  0.00    -0.173 SA
HETATM   27  C   UNL     1     -45.922  59.447 -57.303  1.00  0.00     0.089 C 
ENDBRANCH  25  26
ENDBRANCH  24  25
ENDBRANCH  23  24
BRANCH  23  28
HETATM   28  C   UNL     1     -42.331  59.109 -56.142  1.00  0.00     0.128 A 
HETATM   29  N   UNL     1     -41.946  59.461 -57.353  1.00  0.00    -0.231 NA
HETATM   30  C   UNL     1     -42.171  58.358 -58.144  1.00  0.00     0.085 A 
HETATM   31  C   UNL     1     -42.722  57.318 -57.405  1.00  0.00     0.062 A 
HETATM   32  C   UNL     1     -41.932  58.171 -59.514  1.00  0.00     0.034 A 
HETATM   33  N   UNL     1     -42.824  57.823 -56.137  1.00  0.00    -0.341 N 
HETATM   34  C   UNL     1     -43.061  56.079 -57.953  1.00  0.00     0.032 A 
HETATM   35  H   UNL     1     -43.228  57.366 -55.328  1.00  0.00     0.167 HD
HETATM   36  C   UNL     1     -42.814  55.911 -59.320  1.00  0.00     0.002 A 
HETATM   37  C   UNL     1     -42.259  56.936 -60.090  1.00  0.00     0.002 A 
ENDBRANCH  23  28
ENDBRANCH   1  23
TORSDOF 7
ENDMDL
MODEL 2
REMARK VINA RESULT:      -8.8      2.623      4.191
REMARK  7 active torsions:
REMARK  status: ('A' for Active; 'I' for Inactive)
REMARK    1  A    between atoms: S_2  and  C_3 
REMARK    2  A    between atoms: C_3  and  C_4 
REMARK    3  A    between atoms: C_4  and  C_5 
REMARK    4  A    between atoms: C_5  and  N_6 
REMARK    5  A    between atoms: C_5  and  C_26 
REMARK       I    between atoms: N_6  and  C_7 
REMARK    6  A    between atoms: C_7  and  C_8 
REMARK    7  A    between atoms: C_8  and  N_9 
ROOT
HETATM    1  N   UNL     1     -42.944  59.052 -56.241  1.00  0.00    -0.348 N 
HETATM    2  C   UNL     1     -44.029  58.936 -55.405  1.00  0.00     0.236 C 
HETATM    3  O   UNL     1     -45.161  58.711 -55.835  1.00  0.00    -0.272 OA
HETATM    4  H   UNL     1     -42.115  59.514 -55.899  1.00  0.00     0.163 HD
ENDROOT
BRANCH   2   5
HETATM    5  C   UNL     1     -43.752  59.005 -53.902  1.00  0.00     0.239 C 
BRANCH   5   6
HETATM    6  N   UNL     1     -42.664  58.172 -53.434  1.00  0.00    -0.259 N 
HETATM    7  C   UNL     1     -41.365  58.562 -53.374  1.00  0.00     0.326 A 
HETATM    8  O   UNL     1     -40.888  59.607 -53.779  1.00  0.00    -0.247 OA
HETATM    9  N   UNL     1     -40.635  57.567 -52.773  1.00  0.00    -0.320 N 
HETATM   10  C   UNL     1     -41.440  56.425 -52.391  1.00  0.00     0.144 A 
HETATM   11  H   UNL     1     -39.632  57.634 -52.669  1.00  0.00     0.165 HD
HETATM   12  C   UNL     1     -40.999  55.160 -53.110  1.00  0.00    -0.014 A 
HETATM   13  C   UNL     1     -41.459  56.291 -50.860  1.00  0.00     0.047 C 
HETATM   14  C   UNL     1     -42.821  56.931 -52.879  1.00  0.00     0.261 A 
HETATM   15  C   UNL     1     -40.993  53.916 -52.443  1.00  0.00    -0.049 A 
HETATM   16  C   UNL     1     -40.601  55.198 -54.462  1.00  0.00     0.011 A 
HETATM   17  C   UNL     1     -40.576  52.762 -53.125  1.00  0.00     0.007 A 
HETATM   18  C   UNL     1     -41.349  53.787 -50.980  1.00  0.00     0.039 C 
HETATM   19  C   UNL     1     -40.181  52.824 -54.459  1.00  0.00     0.001 A 
HETATM   20  C   UNL     1     -40.193  54.041 -55.129  1.00  0.00     0.001 A 
HETATM   21  C   UNL     1     -42.111  54.984 -50.424  1.00  0.00     0.008 C 
HETATM   22  O   UNL     1     -43.883  56.330 -52.793  1.00  0.00    -0.270 OA
ENDBRANCH   5   6
ENDBRANCH   2   5
BRANCH   1  23
HETATM   23  C   UNL     1     -43.062  58.868 -57.680  1.00  0.00     0.155 C 
BRANCH  23  24
HETATM   24  C   UNL     1     -42.602  57.465 -58.106  1.00  0.00     0.043 C 
BRANCH  24  25
HETATM   25  C   UNL     1     -43.728  56.542 -58.581  1.00  0.00     0.076 C 
BRANCH  25  26
HETATM   26  S   UNL     1     -45.213  57.398 -59.209  1.00  0.00    -0.173 SA
HETATM   27  C   UNL     1     -45.968  56.053 -60.154  1.00  0.00     0.089 C 
ENDBRANCH  25  26
ENDBRANCH  24  25
ENDBRANCH  23  24
BRANCH  23  28
HETATM   28  C   UNL     1     -42.248  59.939 -58.348  1.00  0.00     0.128 A 
HETATM   29  N   UNL     1     -41.359  60.749 -57.807  1.00  0.00    -0.231 NA
HETATM   30  C   UNL     1     -40.893  61.526 -58.842  1.00  0.00     0.085 A 
HETATM   31  C   UNL     1     -41.524  61.197 -60.036  1.00  0.00     0.062 A 
HETATM   32  C   UNL     1     -39.927  62.543 -58.837  1.00  0.00     0.034 A 
HETATM   33  N   UNL     1     -42.388  60.193 -59.695  1.00  0.00    -0.341 N 
HETATM   34  C   UNL     1     -41.252  61.831 -61.250  1.00  0.00     0.032 A 
HETATM   35  H   UNL     1     -43.057  59.731 -60.300  1.00  0.00     0.167 HD
HETATM   36  C   UNL     1     -40.285  62.843 -61.226  1.00  0.00     0.002 A 
HETATM   37  C   UNL     1     -39.631  63.195 -60.043  1.00  0.00     0.002 A 
ENDBRANCH  23  28
ENDBRANCH   1  23
TORSDOF 7
ENDMDL
MODEL 3
REMARK VINA RESULT:      -8.4      1.944      2.384
REMARK  7 active torsions:
REMARK  status: ('A' for Active; 'I' for Inactive)
REMARK    1  A    between atoms: S_2  and  C_3 
REMARK    2  A    between atoms: C_3  and  C_4 
REMARK    3  A    between atoms: C_4  and  C_5 
REMARK    4  A    between atoms: C_5  and  N_6 
REMARK    5  A    between atoms: C_5  and  C_26 
REMARK       I    between atoms: N_6  and  C_7 
REMARK    6  A    between atoms: C_7  and  C_8 
REMARK    7  A    between atoms: C_8  and  N_9 
ROOT
HETATM    1  N   UNL     1     -43.551  59.223 -55.535  1.00  0.00    -0.348 N 
HETATM    2  C   UNL     1     -42.432  59.333 -54.744  1.00  0.00     0.236 C 
HETATM    3  O   UNL     1     -41.376  59.802 -55.172  1.00  0.00    -0.272 OA
HETATM    4  H   UNL     1     -44.282  58.585 -55.255  1.00  0.00     0.163 HD
ENDROOT
BRANCH   2   5
HETATM    5  C   UNL     1     -42.582  58.934 -53.275  1.00  0.00     0.239 C 
BRANCH   5   6
HETATM    6  N   UNL     1     -42.754  57.517 -53.032  1.00  0.00    -0.259 N 
HETATM    7  C   UNL     1     -43.909  56.940 -52.615  1.00  0.00     0.326 A 
HETATM    8  O   UNL     1     -44.941  57.501 -52.291  1.00  0.00    -0.247 OA
HETATM    9  N   UNL     1     -43.742  55.577 -52.607  1.00  0.00    -0.320 N 
HETATM   10  C   UNL     1     -42.419  55.166 -53.030  1.00  0.00     0.144 A 
HETATM   11  H   UNL     1     -44.470  54.955 -52.283  1.00  0.00     0.165 HD
HETATM   12  C   UNL     1     -41.682  54.421 -51.927  1.00  0.00    -0.014 A 
HETATM   13  C   UNL     1     -42.515  54.382 -54.348  1.00  0.00     0.047 C 
HETATM   14  C   UNL     1     -41.810  56.564 -53.307  1.00  0.00     0.261 A 
HETATM   15  C   UNL     1     -40.860  53.314 -52.231  1.00  0.00    -0.049 A 
HETATM   16  C   UNL     1     -41.791  54.828 -50.582  1.00  0.00     0.011 A 
HETATM   17  C   UNL     1     -40.194  52.638 -51.196  1.00  0.00     0.007 A 
HETATM   18  C   UNL     1     -40.727  52.772 -53.634  1.00  0.00     0.039 C 
HETATM   19  C   UNL     1     -40.321  53.054 -49.873  1.00  0.00     0.001 A 
HETATM   20  C   UNL     1     -41.118  54.149 -49.565  1.00  0.00     0.001 A 
HETATM   21  C   UNL     1     -41.180  53.746 -54.716  1.00  0.00     0.008 C 
HETATM   22  O   UNL     1     -40.675  56.793 -53.702  1.00  0.00    -0.270 OA
ENDBRANCH   5   6
ENDBRANCH   2   5
BRANCH   1  23
HETATM   23  C   UNL     1     -43.569  59.698 -56.910  1.00  0.00     0.155 C 
BRANCH  23  24
HETATM   24  C   UNL     1     -44.436  60.957 -57.058  1.00  0.00     0.043 C 
BRANCH  24  25
HETATM   25  C   UNL     1     -43.755  62.118 -57.787  1.00  0.00     0.076 C 
BRANCH  25  26
HETATM   26  S   UNL     1     -41.965  61.907 -58.069  1.00  0.00    -0.173 SA
HETATM   27  C   UNL     1     -41.982  61.414 -59.809  1.00  0.00     0.089 C 
ENDBRANCH  25  26
ENDBRANCH  24  25
ENDBRANCH  23  24
BRANCH  23  28
HETATM   28  C   UNL     1     -44.072  58.579 -57.776  1.00  0.00     0.128 A 
HETATM   29  N   UNL     1     -45.264  58.440 -58.325  1.00  0.00    -0.231 NA
HETATM   30  C   UNL     1     -45.208  57.259 -59.028  1.00  0.00     0.085 A 
HETATM   31  C   UNL     1     -43.964  56.654 -58.891  1.00  0.00     0.062 A 
HETATM   32  C   UNL     1     -46.190  56.632 -59.810  1.00  0.00     0.034 A 
HETATM   33  N   UNL     1     -43.263  57.507 -58.082  1.00  0.00    -0.341 N 
HETATM   34  C   UNL     1     -43.629  55.439 -59.491  1.00  0.00     0.032 A 
HETATM   35  H   UNL     1     -42.325  57.373 -57.721  1.00  0.00     0.167 HD
HETATM   36  C   UNL     1     -44.620  54.829 -60.268  1.00  0.00     0.002 A 
HETATM   37  C   UNL     1     -45.879  55.412 -60.428  1.00  0.00     0.002 A 
ENDBRANCH  23  28
ENDBRANCH   1  23
TORSDOF 7
ENDMDL
MODEL 4
REMARK VINA RESULT:      -8.1      2.577      3.529
REMARK  7 active torsions:
REMARK  status: ('A' for Active; 'I' for Inactive)
REMARK    1  A    between atoms: S_2  and  C_3 
REMARK    2  A    between atoms: C_3  and  C_4 
REMARK    3  A    between atoms: C_4  and  C_5 
REMARK    4  A    between atoms: C_5  and  N_6 
REMARK    5  A    between atoms: C_5  and  C_26 
REMARK       I    between atoms: N_6  and  C_7 
REMARK    6  A    between atoms: C_7  and  C_8 
REMARK    7  A    between atoms: C_8  and  N_9 
ROOT
HETATM    1  N   UNL     1     -42.543  58.959 -56.459  1.00  0.00    -0.348 N 
HETATM    2  C   UNL     1     -43.353  59.073 -55.354  1.00  0.00     0.236 C 
HETATM    3  O   UNL     1     -44.567  59.262 -55.455  1.00  0.00    -0.272 OA
HETATM    4  H   UNL     1     -41.549  59.099 -56.347  1.00  0.00     0.163 HD
ENDROOT
BRANCH   2   5
HETATM    5  C   UNL     1     -42.696  58.860 -53.990  1.00  0.00     0.239 C 
BRANCH   5   6
HETATM    6  N   UNL     1     -42.787  57.515 -53.461  1.00  0.00    -0.259 N 
HETATM    7  C   UNL     1     -43.883  57.000 -52.848  1.00  0.00     0.326 A 
HETATM    8  O   UNL     1     -44.911  57.586 -52.558  1.00  0.00    -0.247 OA
HETATM    9  N   UNL     1     -43.657  55.672 -52.586  1.00  0.00    -0.320 N 
HETATM   10  C   UNL     1     -42.351  55.222 -53.026  1.00  0.00     0.144 A 
HETATM   11  H   UNL     1     -44.331  55.106 -52.090  1.00  0.00     0.165 HD
HETATM   12  C   UNL     1     -41.504  54.732 -51.862  1.00  0.00    -0.014 A 
HETATM   13  C   UNL     1     -42.510  54.190 -54.153  1.00  0.00     0.047 C 
HETATM   14  C   UNL     1     -41.826  56.554 -53.619  1.00  0.00     0.261 A 
HETATM   15  C   UNL     1     -40.659  53.611 -52.008  1.00  0.00    -0.049 A 
HETATM   16  C   UNL     1     -41.532  55.395 -50.618  1.00  0.00     0.011 A 
HETATM   17  C   UNL     1     -39.890  53.173 -50.917  1.00  0.00     0.007 A 
HETATM   18  C   UNL     1     -40.606  52.804 -53.284  1.00  0.00     0.039 C 
HETATM   19  C   UNL     1     -39.938  53.839 -49.695  1.00  0.00     0.001 A 
HETATM   20  C   UNL     1     -40.758  54.950 -49.545  1.00  0.00     0.001 A 
HETATM   21  C   UNL     1     -41.178  53.531 -54.495  1.00  0.00     0.008 C 
HETATM   22  O   UNL     1     -40.734  56.732 -54.142  1.00  0.00    -0.270 OA
ENDBRANCH   5   6
ENDBRANCH   2   5
BRANCH   1  23
HETATM   23  C   UNL     1     -43.077  59.006 -57.812  1.00  0.00     0.155 C 
BRANCH  23  24
HETATM   24  C   UNL     1     -43.011  57.629 -58.490  1.00  0.00     0.043 C 
BRANCH  24  25
HETATM   25  C   UNL     1     -44.353  56.899 -58.582  1.00  0.00     0.076 C 
BRANCH  25  26
HETATM   26  S   UNL     1     -45.668  57.811 -59.460  1.00  0.00    -0.173 SA
HETATM   27  C   UNL     1     -46.865  57.997 -58.117  1.00  0.00     0.089 C 
ENDBRANCH  25  26
ENDBRANCH  24  25
ENDBRANCH  23  24
BRANCH  23  28
HETATM   28  C   UNL     1     -42.297  60.035 -58.578  1.00  0.00     0.128 A 
HETATM   29  N   UNL     1     -42.312  60.275 -59.876  1.00  0.00    -0.231 NA
HETATM   30  C   UNL     1     -41.436  61.319 -60.065  1.00  0.00     0.085 A 
HETATM   31  C   UNL     1     -40.861  61.713 -58.863  1.00  0.00     0.062 A 
HETATM   32  C   UNL     1     -41.077  61.986 -61.245  1.00  0.00     0.034 A 
HETATM   33  N   UNL     1     -41.416  60.875 -57.934  1.00  0.00    -0.341 N 
HETATM   34  C   UNL     1     -39.928  62.747 -58.758  1.00  0.00     0.032 A 
HETATM   35  H   UNL     1     -41.200  60.831 -56.945  1.00  0.00     0.167 HD
HETATM   36  C   UNL     1     -39.583  63.401 -59.945  1.00  0.00     0.002 A 
HETATM   37  C   UNL     1     -40.145  63.031 -61.169  1.00  0.00     0.002 A 
ENDBRANCH  23  28
ENDBRANCH   1  23
TORSDOF 7
ENDMDL
MODEL 5
REMARK VINA RESULT:      -8.1      2.286      3.587
REMARK  7 active torsions:
REMARK  status: ('A' for Active; 'I' for Inactive)
REMARK    1  A    between atoms: S_2  and  C_3 
REMARK    2  A    between atoms: C_3  and  C_4 
REMARK    3  A    between atoms: C_4  and  C_5 
REMARK    4  A    between atoms: C_5  and  N_6 
REMARK    5  A    between atoms: C_5  and  C_26 
REMARK       I    between atoms: N_6  and  C_7 
REMARK    6  A    between atoms: C_7  and  C_8 
REMARK    7  A    between atoms: C_8  and  N_9 
ROOT
HETATM    1  N   UNL     1     -42.269  59.235 -56.185  1.00  0.00    -0.348 N 
HETATM    2  C   UNL     1     -43.514  59.407 -55.627  1.00  0.00     0.236 C 
HETATM    3  O   UNL     1     -44.503  59.672 -56.313  1.00  0.00    -0.272 OA
HETATM    4  H   UNL     1     -41.457  59.312 -55.591  1.00  0.00     0.163 HD
ENDROOT
BRANCH   2   5
HETATM    5  C   UNL     1     -43.637  59.161 -54.123  1.00  0.00     0.239 C 
BRANCH   5   6
HETATM    6  N   UNL     1     -42.645  58.269 -53.558  1.00  0.00    -0.259 N 
HETATM    7  C   UNL     1     -41.358  58.612 -53.298  1.00  0.00     0.326 A 
HETATM    8  O   UNL     1     -40.803  59.662 -53.572  1.00  0.00    -0.247 OA
HETATM    9  N   UNL     1     -40.744  57.563 -52.660  1.00  0.00    -0.320 N 
HETATM   10  C   UNL     1     -41.623  56.429 -52.459  1.00  0.00     0.144 A 
HETATM   11  H   UNL     1     -39.763  57.591 -52.415  1.00  0.00     0.165 HD
HETATM   12  C   UNL     1     -41.117  55.191 -53.184  1.00  0.00    -0.014 A 
HETATM   13  C   UNL     1     -41.858  56.214 -50.957  1.00  0.00     0.047 C 
HETATM   14  C   UNL     1     -42.909  57.005 -53.103  1.00  0.00     0.261 A 
HETATM   15  C   UNL     1     -41.236  53.913 -52.595  1.00  0.00    -0.049 A 
HETATM   16  C   UNL     1     -40.533  55.289 -54.463  1.00  0.00     0.011 A 
HETATM   17  C   UNL     1     -40.756  52.785 -53.279  1.00  0.00     0.007 A 
HETATM   18  C   UNL     1     -41.795  53.717 -51.205  1.00  0.00     0.039 C 
HETATM   19  C   UNL     1     -40.178  52.906 -54.540  1.00  0.00     0.001 A 
HETATM   20  C   UNL     1     -40.066  54.157 -55.133  1.00  0.00     0.001 A 
HETATM   21  C   UNL     1     -42.596  54.907 -50.691  1.00  0.00     0.008 C 
HETATM   22  O   UNL     1     -43.988  56.436 -53.200  1.00  0.00    -0.270 OA
ENDBRANCH   5   6
ENDBRANCH   2   5
BRANCH   1  23
HETATM   23  C   UNL     1     -42.056  59.308 -57.623  1.00  0.00     0.155 C 
BRANCH  23  24
HETATM   24  C   UNL     1     -42.442  60.687 -58.178  1.00  0.00     0.043 C 
BRANCH  24  25
HETATM   25  C   UNL     1     -41.330  61.396 -58.956  1.00  0.00     0.076 C 
BRANCH  25  26
HETATM   26  S   UNL     1     -41.776  61.900 -60.652  1.00  0.00    -0.173 SA
HETATM   27  C   UNL     1     -43.578  61.780 -60.546  1.00  0.00     0.089 C 
ENDBRANCH  25  26
ENDBRANCH  24  25
ENDBRANCH  23  24
BRANCH  23  28
HETATM   28  C   UNL     1     -42.859  58.212 -58.263  1.00  0.00     0.128 A 
HETATM   29  N   UNL     1     -42.631  56.913 -58.247  1.00  0.00    -0.231 NA
HETATM   30  C   UNL     1     -43.662  56.351 -58.964  1.00  0.00     0.085 A 
HETATM   31  C   UNL     1     -44.527  57.327 -59.443  1.00  0.00     0.062 A 
HETATM   32  C   UNL     1     -43.925  55.004 -59.252  1.00  0.00     0.034 A 
HETATM   33  N   UNL     1     -43.990  58.503 -58.993  1.00  0.00    -0.341 N 
HETATM   34  C   UNL     1     -45.659  57.043 -60.209  1.00  0.00     0.032 A 
HETATM   35  H   UNL     1     -44.324  59.440 -59.187  1.00  0.00     0.167 HD
HETATM   36  C   UNL     1     -45.906  55.694 -60.486  1.00  0.00     0.002 A 
HETATM   37  C   UNL     1     -45.057  54.689 -60.017  1.00  0.00     0.002 A 
ENDBRANCH  23  28
ENDBRANCH   1  23
TORSDOF 7
ENDMDL
MODEL 6
REMARK VINA RESULT:      -7.8      2.279      6.669
REMARK  7 active torsions:
REMARK  status: ('A' for Active; 'I' for Inactive)
REMARK    1  A    between atoms: S_2  and  C_3 
REMARK    2  A    between atoms: C_3  and  C_4 
REMARK    3  A    between atoms: C_4  and  C_5 
REMARK    4  A    between atoms: C_5  and  N_6 
REMARK    5  A    between atoms: C_5  and  C_26 
REMARK       I    between atoms: N_6  and  C_7 
REMARK    6  A    between atoms: C_7  and  C_8 
REMARK    7  A    between atoms: C_8  and  N_9 
ROOT
HETATM    1  N   UNL     1     -43.004  57.156 -52.096  1.00  0.00    -0.348 N 
HETATM    2  C   UNL     1     -44.289  57.391 -51.668  1.00  0.00     0.236 C 
HETATM    3  O   UNL     1     -44.674  57.050 -50.549  1.00  0.00    -0.272 OA
HETATM    4  H   UNL     1     -42.811  57.177 -53.087  1.00  0.00     0.163 HD
ENDROOT
BRANCH   2   5
HETATM    5  C   UNL     1     -45.196  58.184 -52.610  1.00  0.00     0.239 C 
BRANCH   5   6
HETATM    6  N   UNL     1     -44.696  58.349 -53.959  1.00  0.00    -0.259 N 
HETATM    7  C   UNL     1     -44.228  59.516 -54.470  1.00  0.00     0.326 A 
HETATM    8  O   UNL     1     -44.234  60.612 -53.937  1.00  0.00    -0.247 OA
HETATM    9  N   UNL     1     -43.729  59.277 -55.726  1.00  0.00    -0.320 N 
HETATM   10  C   UNL     1     -43.848  57.890 -56.129  1.00  0.00     0.144 A 
HETATM   11  H   UNL     1     -43.370  60.023 -56.306  1.00  0.00     0.165 HD
HETATM   12  C   UNL     1     -44.726  57.735 -57.361  1.00  0.00    -0.014 A 
HETATM   13  C   UNL     1     -42.449  57.273 -56.284  1.00  0.00     0.047 C 
HETATM   14  C   UNL     1     -44.519  57.326 -54.850  1.00  0.00     0.261 A 
HETATM   15  C   UNL     1     -44.403  56.792 -58.361  1.00  0.00    -0.049 A 
HETATM   16  C   UNL     1     -45.887  58.516 -57.524  1.00  0.00     0.011 A 
HETATM   17  C   UNL     1     -45.225  56.670 -59.493  1.00  0.00     0.007 A 
HETATM   18  C   UNL     1     -43.150  55.951 -58.299  1.00  0.00     0.039 C 
HETATM   19  C   UNL     1     -46.365  57.457 -59.637  1.00  0.00     0.001 A 
HETATM   20  C   UNL     1     -46.697  58.380 -58.653  1.00  0.00     0.001 A 
HETATM   21  C   UNL     1     -42.520  55.886 -56.913  1.00  0.00     0.008 C 
HETATM   22  O   UNL     1     -44.845  56.163 -54.658  1.00  0.00    -0.270 OA
ENDBRANCH   5   6
ENDBRANCH   2   5
BRANCH   1  23
HETATM   23  C   UNL     1     -42.009  56.533 -51.235  1.00  0.00     0.155 C 
BRANCH  23  24
HETATM   24  C   UNL     1     -40.843  57.488 -50.941  1.00  0.00     0.043 C 
BRANCH  24  25
HETATM   25  C   UNL     1     -41.227  58.736 -50.142  1.00  0.00     0.076 C 
BRANCH  25  26
HETATM   26  S   UNL     1     -41.678  60.189 -51.151  1.00  0.00    -0.173 SA
HETATM   27  C   UNL     1     -43.197  60.692 -50.307  1.00  0.00     0.089 C 
ENDBRANCH  25  26
ENDBRANCH  24  25
ENDBRANCH  23  24
BRANCH  23  28
HETATM   28  C   UNL     1     -41.536  55.279 -51.913  1.00  0.00     0.128 A 
HETATM   29  N   UNL     1     -41.755  54.886 -53.153  1.00  0.00    -0.231 NA
HETATM   30  C   UNL     1     -41.096  53.685 -53.279  1.00  0.00     0.085 A 
HETATM   31  C   UNL     1     -40.477  53.328 -52.086  1.00  0.00     0.062 A 
HETATM   32  C   UNL     1     -40.984  52.834 -54.388  1.00  0.00     0.034 A 
HETATM   33  N   UNL     1     -40.780  54.352 -51.230  1.00  0.00    -0.341 N 
HETATM   34  C   UNL     1     -39.742  52.152 -51.922  1.00  0.00     0.032 A 
HETATM   35  H   UNL     1     -40.538  54.418 -50.248  1.00  0.00     0.167 HD
HETATM   36  C   UNL     1     -39.640  51.316 -53.040  1.00  0.00     0.002 A 
HETATM   37  C   UNL     1     -40.248  51.648 -54.253  1.00  0.00     0.002 A 
ENDBRANCH  23  28
ENDBRANCH   1  23
TORSDOF 7
ENDMDL
MODEL 7
REMARK VINA RESULT:      -7.7      2.578      7.754
REMARK  7 active torsions:
REMARK  status: ('A' for Active; 'I' for Inactive)
REMARK    1  A    between atoms: S_2  and  C_3 
REMARK    2  A    between atoms: C_3  and  C_4 
REMARK    3  A    between atoms: C_4  and  C_5 
REMARK    4  A    between atoms: C_5  and  N_6 
REMARK    5  A    between atoms: C_5  and  C_26 
REMARK       I    between atoms: N_6  and  C_7 
REMARK    6  A    between atoms: C_7  and  C_8 
REMARK    7  A    between atoms: C_8  and  N_9 
ROOT
HETATM    1  N   UNL     1     -42.038  57.122 -53.081  1.00  0.00    -0.348 N 
HETATM    2  C   UNL     1     -43.068  57.886 -53.577  1.00  0.00     0.236 C 
HETATM    3  O   UNL     1     -44.200  57.847 -53.090  1.00  0.00    -0.272 OA
HETATM    4  H   UNL     1     -41.231  56.959 -53.665  1.00  0.00     0.163 HD
ENDROOT
BRANCH   2   5
HETATM    5  C   UNL     1     -42.724  58.863 -54.702  1.00  0.00     0.239 C 
BRANCH   5   6
HETATM    6  N   UNL     1     -43.108  58.437 -56.032  1.00  0.00    -0.259 N 
HETATM    7  C   UNL     1     -42.763  57.248 -56.590  1.00  0.00     0.326 A 
HETATM    8  O   UNL     1     -42.019  56.402 -56.127  1.00  0.00    -0.247 OA
HETATM    9  N   UNL     1     -43.396  57.133 -57.802  1.00  0.00    -0.320 N 
HETATM   10  C   UNL     1     -44.221  58.281 -58.124  1.00  0.00     0.144 A 
HETATM   11  H   UNL     1     -43.242  56.339 -58.409  1.00  0.00     0.165 HD
HETATM   12  C   UNL     1     -43.742  58.981 -59.386  1.00  0.00    -0.014 A 
HETATM   13  C   UNL     1     -45.698  57.862 -58.170  1.00  0.00     0.047 C 
HETATM   14  C   UNL     1     -43.965  59.123 -56.848  1.00  0.00     0.261 A 
HETATM   15  C   UNL     1     -44.668  59.514 -60.308  1.00  0.00    -0.049 A 
HETATM   16  C   UNL     1     -42.366  59.126 -59.656  1.00  0.00     0.011 A 
HETATM   17  C   UNL     1     -44.204  60.151 -61.471  1.00  0.00     0.007 A 
HETATM   18  C   UNL     1     -46.161  59.358 -60.132  1.00  0.00     0.039 C 
HETATM   19  C   UNL     1     -42.840  60.278 -61.720  1.00  0.00     0.001 A 
HETATM   20  C   UNL     1     -41.920  59.766 -60.813  1.00  0.00     0.001 A 
HETATM   21  C   UNL     1     -46.576  58.983 -58.715  1.00  0.00     0.008 C 
HETATM   22  O   UNL     1     -44.441  60.223 -56.601  1.00  0.00    -0.270 OA
ENDBRANCH   5   6
ENDBRANCH   2   5
BRANCH   1  23
HETATM   23  C   UNL     1     -42.212  56.258 -51.923  1.00  0.00     0.155 C 
BRANCH  23  24
HETATM   24  C   UNL     1     -41.640  56.901 -50.651  1.00  0.00     0.043 C 
BRANCH  24  25
HETATM   25  C   UNL     1     -40.587  57.983 -50.902  1.00  0.00     0.076 C 
BRANCH  25  26
HETATM   26  S   UNL     1     -40.852  59.544 -49.994  1.00  0.00    -0.173 SA
HETATM   27  C   UNL     1     -42.070  60.329 -51.077  1.00  0.00     0.089 C 
ENDBRANCH  25  26
ENDBRANCH  24  25
ENDBRANCH  23  24
BRANCH  23  28
HETATM   28  C   UNL     1     -41.545  54.947 -52.224  1.00  0.00     0.128 A 
HETATM   29  N   UNL     1     -40.861  54.169 -51.407  1.00  0.00    -0.231 NA
HETATM   30  C   UNL     1     -40.476  53.088 -52.166  1.00  0.00     0.085 A 
HETATM   31  C   UNL     1     -40.918  53.216 -53.477  1.00  0.00     0.062 A 
HETATM   32  C   UNL     1     -39.738  51.952 -51.801  1.00  0.00     0.034 A 
HETATM   33  N   UNL     1     -41.586  54.411 -53.492  1.00  0.00    -0.341 N 
HETATM   34  C   UNL     1     -40.665  52.269 -54.471  1.00  0.00     0.032 A 
HETATM   35  H   UNL     1     -42.008  54.864 -54.294  1.00  0.00     0.167 HD
HETATM   36  C   UNL     1     -39.929  51.141 -54.088  1.00  0.00     0.002 A 
HETATM   37  C   UNL     1     -39.473  50.982 -52.778  1.00  0.00     0.002 A 
ENDBRANCH  23  28
ENDBRANCH   1  23
TORSDOF 7
ENDMDL
MODEL 8
REMARK VINA RESULT:      -7.7      2.675      4.454
REMARK  7 active torsions:
REMARK  status: ('A' for Active; 'I' for Inactive)
REMARK    1  A    between atoms: S_2  and  C_3 
REMARK    2  A    between atoms: C_3  and  C_4 
REMARK    3  A    between atoms: C_4  and  C_5 
REMARK    4  A    between atoms: C_5  and  N_6 
REMARK    5  A    between atoms: C_5  and  C_26 
REMARK       I    between atoms: N_6  and  C_7 
REMARK    6  A    between atoms: C_7  and  C_8 
REMARK    7  A    between atoms: C_8  and  N_9 
ROOT
HETATM    1  N   UNL     1     -43.421  57.852 -57.937  1.00  0.00    -0.348 N 
HETATM    2  C   UNL     1     -42.870  56.807 -57.235  1.00  0.00     0.236 C 
HETATM    3  O   UNL     1     -42.809  55.668 -57.703  1.00  0.00    -0.272 OA
HETATM    4  H   UNL     1     -43.717  58.674 -57.431  1.00  0.00     0.163 HD
ENDROOT
BRANCH   2   5
HETATM    5  C   UNL     1     -42.246  57.139 -55.879  1.00  0.00     0.239 C 
BRANCH   5   6
HETATM    6  N   UNL     1     -42.336  56.091 -54.882  1.00  0.00    -0.259 N 
HETATM    7  C   UNL     1     -43.484  55.704 -54.271  1.00  0.00     0.326 A 
HETATM    8  O   UNL     1     -44.586  56.214 -54.377  1.00  0.00    -0.247 OA
HETATM    9  N   UNL     1     -43.215  54.614 -53.481  1.00  0.00    -0.320 N 
HETATM   10  C   UNL     1     -41.824  54.210 -53.527  1.00  0.00     0.144 A 
HETATM   11  H   UNL     1     -43.926  54.192 -52.899  1.00  0.00     0.165 HD
HETATM   12  C   UNL     1     -41.164  54.311 -52.161  1.00  0.00    -0.014 A 
HETATM   13  C   UNL     1     -41.709  52.819 -54.169  1.00  0.00     0.047 C 
HETATM   14  C   UNL     1     -41.297  55.278 -54.518  1.00  0.00     0.261 A 
HETATM   15  C   UNL     1     -40.231  53.339 -51.738  1.00  0.00    -0.049 A 
HETATM   16  C   UNL     1     -41.458  55.382 -51.293  1.00  0.00     0.011 A 
HETATM   17  C   UNL     1     -39.638  53.449 -50.470  1.00  0.00     0.007 A 
HETATM   18  C   UNL     1     -39.897  52.127 -52.576  1.00  0.00     0.039 C 
HETATM   19  C   UNL     1     -39.948  54.513 -49.626  1.00  0.00     0.001 A 
HETATM   20  C   UNL     1     -40.856  55.480 -50.037  1.00  0.00     0.001 A 
HETATM   21  C   UNL     1     -40.296  52.263 -54.041  1.00  0.00     0.008 C 
HETATM   22  O   UNL     1     -40.145  55.390 -54.915  1.00  0.00    -0.270 OA
ENDBRANCH   5   6
ENDBRANCH   2   5
BRANCH   1  23
HETATM   23  C   UNL     1     -43.922  57.686 -59.294  1.00  0.00     0.155 C 
BRANCH  23  24
HETATM   24  C   UNL     1     -42.910  58.194 -60.332  1.00  0.00     0.043 C 
BRANCH  24  25
HETATM   25  C   UNL     1     -42.044  59.363 -59.859  1.00  0.00     0.076 C 
BRANCH  25  26
HETATM   26  S   UNL     1     -42.243  60.906 -60.813  1.00  0.00    -0.173 SA
HETATM   27  C   UNL     1     -43.650  61.632 -59.937  1.00  0.00     0.089 C 
ENDBRANCH  25  26
ENDBRANCH  24  25
ENDBRANCH  23  24
BRANCH  23  28
HETATM   28  C   UNL     1     -45.229  58.420 -59.394  1.00  0.00     0.128 A 
HETATM   29  N   UNL     1     -45.901  58.750 -60.480  1.00  0.00    -0.231 NA
HETATM   30  C   UNL     1     -47.031  59.393 -60.030  1.00  0.00     0.085 A 
HETATM   31  C   UNL     1     -47.041  59.473 -58.642  1.00  0.00     0.062 A 
HETATM   32  C   UNL     1     -48.100  59.943 -60.753  1.00  0.00     0.034 A 
HETATM   33  N   UNL     1     -45.880  58.856 -58.262  1.00  0.00    -0.341 N 
HETATM   34  C   UNL     1     -48.065  60.080 -57.913  1.00  0.00     0.032 A 
HETATM   35  H   UNL     1     -45.519  58.764 -57.319  1.00  0.00     0.167 HD
HETATM   36  C   UNL     1     -49.123  60.622 -58.652  1.00  0.00     0.002 A 
HETATM   37  C   UNL     1     -49.145  60.556 -60.047  1.00  0.00     0.002 A 
ENDBRANCH  23  28
ENDBRANCH   1  23
TORSDOF 7
ENDMDL
MODEL 9
REMARK VINA RESULT:      -7.6      2.814      6.525
REMARK  7 active torsions:
REMARK  status: ('A' for Active; 'I' for Inactive)
REMARK    1  A    between atoms: S_2  and  C_3 
REMARK    2  A    between atoms: C_3  and  C_4 
REMARK    3  A    between atoms: C_4  and  C_5 
REMARK    4  A    between atoms: C_5  and  N_6 
REMARK    5  A    between atoms: C_5  and  C_26 
REMARK       I    between atoms: N_6  and  C_7 
REMARK    6  A    between atoms: C_7  and  C_8 
REMARK    7  A    between atoms: C_8  and  N_9 
ROOT
HETATM    1  N   UNL     1     -42.573  55.558 -53.390  1.00  0.00    -0.348 N 
HETATM    2  C   UNL     1     -43.122  55.191 -52.185  1.00  0.00     0.236 C 
HETATM    3  O   UNL     1     -43.506  54.041 -51.967  1.00  0.00    -0.272 OA
HETATM    4  H   UNL     1     -42.544  56.537 -53.633  1.00  0.00     0.163 HD
ENDROOT
BRANCH   2   5
HETATM    5  C   UNL     1     -43.150  56.255 -51.086  1.00  0.00     0.239 C 
BRANCH   5   6
HETATM    6  N   UNL     1     -42.583  57.537 -51.451  1.00  0.00    -0.259 N 
HETATM    7  C   UNL     1     -41.329  57.946 -51.128  1.00  0.00     0.326 A 
HETATM    8  O   UNL     1     -40.524  57.370 -50.418  1.00  0.00    -0.247 OA
HETATM    9  N   UNL     1     -41.091  59.154 -51.736  1.00  0.00    -0.320 N 
HETATM   10  C   UNL     1     -42.215  59.626 -52.519  1.00  0.00     0.144 A 
HETATM   11  H   UNL     1     -40.229  59.661 -51.589  1.00  0.00     0.165 HD
HETATM   12  C   UNL     1     -42.753  60.947 -51.992  1.00  0.00    -0.014 A 
HETATM   13  C   UNL     1     -41.833  59.663 -54.006  1.00  0.00     0.047 C 
HETATM   14  C   UNL     1     -43.192  58.449 -52.269  1.00  0.00     0.261 A 
HETATM   15  C   UNL     1     -43.200  61.949 -52.880  1.00  0.00    -0.049 A 
HETATM   16  C   UNL     1     -42.830  61.195 -50.606  1.00  0.00     0.011 A 
HETATM   17  C   UNL     1     -43.687  63.164 -52.371  1.00  0.00     0.007 A 
HETATM   18  C   UNL     1     -43.103  61.795 -54.380  1.00  0.00     0.039 C 
HETATM   19  C   UNL     1     -43.749  63.390 -50.998  1.00  0.00     0.001 A 
HETATM   20  C   UNL     1     -43.321  62.406 -50.115  1.00  0.00     0.001 A 
HETATM   21  C   UNL     1     -42.905  60.355 -54.839  1.00  0.00     0.008 C 
HETATM   22  O   UNL     1     -44.325  58.342 -52.719  1.00  0.00    -0.270 OA
ENDBRANCH   5   6
ENDBRANCH   2   5
BRANCH   1  23
HETATM   23  C   UNL     1     -42.368  54.597 -54.464  1.00  0.00     0.155 C 
BRANCH  23  24
HETATM   24  C   UNL     1     -40.984  53.936 -54.370  1.00  0.00     0.043 C 
BRANCH  24  25
HETATM   25  C   UNL     1     -41.010  52.406 -54.336  1.00  0.00     0.076 C 
BRANCH  25  26
HETATM   26  S   UNL     1     -39.639  51.632 -53.412  1.00  0.00    -0.173 SA
HETATM   27  C   UNL     1     -39.764  49.938 -54.034  1.00  0.00     0.089 C 
ENDBRANCH  25  26
ENDBRANCH  24  25
ENDBRANCH  23  24
BRANCH  23  28
HETATM   28  C   UNL     1     -42.544  55.321 -55.768  1.00  0.00     0.128 A 
HETATM   29  N   UNL     1     -43.054  54.865 -56.896  1.00  0.00    -0.231 NA
HETATM   30  C   UNL     1     -43.002  55.921 -57.776  1.00  0.00     0.085 A 
HETATM   31  C   UNL     1     -42.431  57.040 -57.179  1.00  0.00     0.062 A 
HETATM   32  C   UNL     1     -43.422  55.999 -59.112  1.00  0.00     0.034 A 
HETATM   33  N   UNL     1     -42.139  56.630 -55.907  1.00  0.00    -0.341 N 
HETATM   34  C   UNL     1     -42.246  58.255 -57.842  1.00  0.00     0.032 A 
HETATM   35  H   UNL     1     -41.668  57.165 -55.187  1.00  0.00     0.167 HD
HETATM   36  C   UNL     1     -42.672  58.314 -59.173  1.00  0.00     0.002 A 
HETATM   37  C   UNL     1     -43.252  57.208 -59.801  1.00  0.00     0.002 A 
ENDBRANCH  23  28
ENDBRANCH   1  23
TORSDOF 7
ENDMDL
MODEL 10
REMARK VINA RESULT:      -7.5      2.627      7.421
REMARK  7 active torsions:
REMARK  status: ('A' for Active; 'I' for Inactive)
REMARK    1  A    between atoms: S_2  and  C_3 
REMARK    2  A    between atoms: C_3  and  C_4 
REMARK    3  A    between atoms: C_4  and  C_5 
REMARK    4  A    between atoms: C_5  and  N_6 
REMARK    5  A    between atoms: C_5  and  C_26 
REMARK       I    between atoms: N_6  and  C_7 
REMARK    6  A    between atoms: C_7  and  C_8 
REMARK    7  A    between atoms: C_8  and  N_9 
ROOT
HETATM    1  N   UNL     1     -42.753  57.072 -53.533  1.00  0.00    -0.348 N 
HETATM    2  C   UNL     1     -43.611  57.953 -54.147  1.00  0.00     0.236 C 
HETATM    3  O   UNL     1     -44.826  57.927 -53.945  1.00  0.00    -0.272 OA
HETATM    4  H   UNL     1     -41.836  56.930 -53.932  1.00  0.00     0.163 HD
ENDROOT
BRANCH   2   5
HETATM    5  C   UNL     1     -42.978  59.036 -55.023  1.00  0.00     0.239 C 
BRANCH   5   6
HETATM    6  N   UNL     1     -43.270  58.937 -56.438  1.00  0.00    -0.259 N 
HETATM    7  C   UNL     1     -43.432  59.999 -57.268  1.00  0.00     0.326 A 
HETATM    8  O   UNL     1     -43.457  61.178 -56.964  1.00  0.00    -0.247 OA
HETATM    9  N   UNL     1     -43.576  59.534 -58.552  1.00  0.00    -0.320 N 
HETATM   10  C   UNL     1     -43.516  58.089 -58.642  1.00  0.00     0.144 A 
HETATM   11  H   UNL     1     -43.755  60.160 -59.326  1.00  0.00     0.165 HD
HETATM   12  C   UNL     1     -44.814  57.506 -59.180  1.00  0.00    -0.014 A 
HETATM   13  C   UNL     1     -42.272  57.670 -59.440  1.00  0.00     0.047 C 
HETATM   14  C   UNL     1     -43.299  57.764 -57.143  1.00  0.00     0.261 A 
HETATM   15  C   UNL     1     -44.797  56.405 -60.063  1.00  0.00    -0.049 A 
HETATM   16  C   UNL     1     -46.061  58.040 -58.797  1.00  0.00     0.011 A 
HETATM   17  C   UNL     1     -46.007  55.886 -60.552  1.00  0.00     0.007 A 
HETATM   18  C   UNL     1     -43.509  55.802 -60.573  1.00  0.00     0.039 C 
HETATM   19  C   UNL     1     -47.227  56.434 -60.165  1.00  0.00     0.001 A 
HETATM   20  C   UNL     1     -47.255  57.510 -59.287  1.00  0.00     0.001 A 
HETATM   21  C   UNL     1     -42.285  56.176 -59.745  1.00  0.00     0.008 C 
HETATM   22  O   UNL     1     -43.176  56.649 -56.655  1.00  0.00    -0.270 OA
ENDBRANCH   5   6
ENDBRANCH   2   5
BRANCH   1  23
HETATM   23  C   UNL     1     -43.224  56.085 -52.572  1.00  0.00     0.155 C 
BRANCH  23  24
HETATM   24  C   UNL     1     -43.317  56.679 -51.159  1.00  0.00     0.043 C 
BRANCH  24  25
HETATM   25  C   UNL     1     -42.630  58.037 -50.991  1.00  0.00     0.076 C 
BRANCH  25  26
HETATM   26  S   UNL     1     -40.848  57.956 -50.607  1.00  0.00    -0.173 SA
HETATM   27  C   UNL     1     -40.508  59.713 -50.343  1.00  0.00     0.089 C 
ENDBRANCH  25  26
ENDBRANCH  24  25
ENDBRANCH  23  24
BRANCH  23  28
HETATM   28  C   UNL     1     -42.284  54.915 -52.616  1.00  0.00     0.128 A 
HETATM   29  N   UNL     1     -41.540  54.426 -51.643  1.00  0.00    -0.231 NA
HETATM   30  C   UNL     1     -40.877  53.353 -52.193  1.00  0.00     0.085 A 
HETATM   31  C   UNL     1     -41.208  53.195 -53.533  1.00  0.00     0.062 A 
HETATM   32  C   UNL     1     -39.967  52.462 -51.605  1.00  0.00     0.034 A 
HETATM   33  N   UNL     1     -42.096  54.206 -53.782  1.00  0.00    -0.341 N 
HETATM   34  C   UNL     1     -40.679  52.189 -54.344  1.00  0.00     0.032 A 
HETATM   35  H   UNL     1     -42.521  54.440 -54.671  1.00  0.00     0.167 HD
HETATM   36  C   UNL     1     -39.773  51.309 -53.739  1.00  0.00     0.002 A 
HETATM   37  C   UNL     1     -39.421  51.440 -52.394  1.00  0.00     0.002 A 
ENDBRANCH  23  28
ENDBRANCH   1  23
TORSDOF 7
ENDMDL
