MODEL 1
REMARK VINA RESULT:      -9.0      0.000      0.000
REMARK  8 active torsions:
REMARK  status: ('A' for Active; 'I' for Inactive)
REMARK    1  A    between atoms: C_2  and  N_3 
REMARK       I    between atoms: N_3  and  C_4 
REMARK       I    between atoms: C_4  and  N_5 
REMARK    2  A    between atoms: N_8  and  C_9 
REMARK    3  A    between atoms: C_11  and  C_12 
REMARK    4  A    between atoms: C_19  and  C_20 
REMARK    5  A    between atoms: C_20  and  O_21 
REMARK    6  A    between atoms: C_23  and  C_24 
REMARK    7  A    between atoms: C_24  and  C_25 
REMARK    8  A    between atoms: C_27  and  O_28 
ROOT
HETATM    1  C   UNL     1     -42.334  54.961 -53.163  1.00  0.00     0.137 A 
HETATM    2  N   UNL     1     -41.648  53.855 -53.514  1.00  0.00    -0.210 NA
HETATM    3  C   UNL     1     -41.012  53.166 -52.548  1.00  0.00     0.162 A 
HETATM    4  N   UNL     1     -40.976  53.533 -51.259  1.00  0.00    -0.230 NA
HETATM    5  C   UNL     1     -41.683  54.623 -50.899  1.00  0.00     0.071 A 
HETATM    6  C   UNL     1     -42.406  55.379 -51.826  1.00  0.00     0.019 A 
ENDROOT
BRANCH   1   7
HETATM    7  N   UNL     1     -43.043  55.619 -54.166  1.00  0.00    -0.362 N 
HETATM    8  C   UNL     1     -42.582  56.955 -54.613  1.00  0.00     0.144 C 
HETATM    9  C   UNL     1     -42.021  56.957 -56.047  1.00  0.00     0.147 C 
HETATM   10  N   UNL     1     -42.929  56.260 -56.955  1.00  0.00    -0.331 N 
HETATM   11  C   UNL     1     -43.732  57.018 -57.789  1.00  0.00     0.318 C 
HETATM   12  C   UNL     1     -43.120  54.861 -56.559  1.00  0.00     0.147 C 
HETATM   13  N   UNL     1     -44.711  56.331 -58.456  1.00  0.00    -0.339 N 
HETATM   14  O   UNL     1     -43.563  58.226 -57.937  1.00  0.00    -0.247 OA
HETATM   15  H   UNL     1     -45.073  55.517 -57.991  1.00  0.00     0.164 HD
HETATM   16  C   UNL     1     -43.760  54.796 -55.162  1.00  0.00     0.144 C 
BRANCH  13  17
HETATM   17  C   UNL     1     -45.627  56.943 -59.417  1.00  0.00     0.078 C 
HETATM   18  C   UNL     1     -46.823  57.623 -58.752  1.00  0.00     0.032 C 
HETATM   19  C   UNL     1     -46.070  55.968 -60.506  1.00  0.00     0.032 C 
ENDBRANCH  13  17
ENDBRANCH   1   7
BRANCH   6  20
HETATM   20  C   UNL     1     -43.306  56.507 -51.378  1.00  0.00     0.083 C 
BRANCH  20  21
HETATM   21  C   UNL     1     -42.723  57.908 -51.287  1.00  0.00    -0.051 A 
HETATM   22  C   UNL     1     -41.326  58.036 -51.413  1.00  0.00     0.044 A 
HETATM   23  C   UNL     1     -40.705  59.284 -51.333  1.00  0.00     0.068 A 
HETATM   24  C   UNL     1     -41.487  60.423 -51.151  1.00  0.00     0.037 A 
HETATM   25  C   UNL     1     -42.871  60.318 -51.023  1.00  0.00     0.003 A 
HETATM   26  C   UNL     1     -43.486  59.067 -51.085  1.00  0.00     0.007 A 
BRANCH  23  27
HETATM   27  O   UNL     1     -39.360  59.516 -51.428  1.00  0.00    -0.356 OA
HETATM   28  C   UNL     1     -38.674  59.792 -50.213  1.00  0.00     0.210 C 
ENDBRANCH  23  27
ENDBRANCH  20  21
ENDBRANCH   6  20
BRANCH   3  29
HETATM   29  C   UNL     1     -40.362  51.884 -52.899  1.00  0.00     0.012 A 
HETATM   30  C   UNL     1     -40.316  51.412 -54.224  1.00  0.00     0.015 A 
HETATM   31  C   UNL     1     -39.728  50.180 -54.541  1.00  0.00     0.001 A 
HETATM   32  C   UNL     1     -39.176  49.388 -53.539  1.00  0.00     0.000 A 
HETATM   33  C   UNL     1     -39.201  49.829 -52.220  1.00  0.00     0.001 A 
HETATM   34  C   UNL     1     -39.786  51.060 -51.907  1.00  0.00     0.015 A 
ENDBRANCH   3  29
BRANCH   5  35
HETATM   35  C   UNL     1     -41.656  54.936 -49.417  1.00  0.00     0.226 C 
BRANCH  35  36
HETATM   36  O   UNL     1     -41.347  53.766 -48.657  1.00  0.00    -0.390 OA
HETATM   37  C   UNL     1     -40.220  53.978 -47.820  1.00  0.00     0.201 C 
ENDBRANCH  35  36
ENDBRANCH   5  35
TORSDOF 8
ENDMDL
MODEL 2
REMARK VINA RESULT:      -8.3      3.323      8.804
REMARK  8 active torsions:
REMARK  status: ('A' for Active; 'I' for Inactive)
REMARK    1  A    between atoms: C_2  and  N_3 
REMARK       I    between atoms: N_3  and  C_4 
REMARK       I    between atoms: C_4  and  N_5 
REMARK    2  A    between atoms: N_8  and  C_9 
REMARK    3  A    between atoms: C_11  and  C_12 
REMARK    4  A    between atoms: C_19  and  C_20 
REMARK    5  A    between atoms: C_20  and  O_21 
REMARK    6  A    between atoms: C_23  and  C_24 
REMARK    7  A    between atoms: C_24  and  C_25 
REMARK    8  A    between atoms: C_27  and  O_28 
ROOT
HETATM    1  C   UNL     1     -42.589  58.348 -56.052  1.00  0.00     0.137 A 
HETATM    2  N   UNL     1     -42.156  59.385 -56.797  1.00  0.00    -0.210 NA
HETATM    3  C   UNL     1     -41.986  59.192 -58.119  1.00  0.00     0.162 A 
HETATM    4  N   UNL     1     -42.176  58.020 -58.741  1.00  0.00    -0.230 NA
HETATM    5  C   UNL     1     -42.636  56.988 -58.005  1.00  0.00     0.071 A 
HETATM    6  C   UNL     1     -42.878  57.105 -56.633  1.00  0.00     0.019 A 
ENDROOT
BRANCH   1   7
HETATM    7  N   UNL     1     -42.826  58.588 -54.700  1.00  0.00    -0.362 N 
HETATM    8  C   UNL     1     -41.747  58.312 -53.721  1.00  0.00     0.144 C 
HETATM    9  C   UNL     1     -41.170  59.585 -53.076  1.00  0.00     0.147 C 
HETATM   10  N   UNL     1     -42.245  60.457 -52.608  1.00  0.00    -0.331 N 
HETATM   11  C   UNL     1     -42.525  60.483 -51.254  1.00  0.00     0.318 C 
HETATM   12  C   UNL     1     -43.116  60.879 -53.710  1.00  0.00     0.147 C 
HETATM   13  N   UNL     1     -43.672  61.141 -50.897  1.00  0.00    -0.339 N 
HETATM   14  O   UNL     1     -41.781  59.968 -50.423  1.00  0.00    -0.247 OA
HETATM   15  H   UNL     1     -44.412  61.137 -51.577  1.00  0.00     0.164 HD
HETATM   16  C   UNL     1     -43.790  59.649 -54.343  1.00  0.00     0.144 C 
BRANCH  13  17
HETATM   17  C   UNL     1     -44.114  61.321 -49.515  1.00  0.00     0.078 C 
HETATM   18  C   UNL     1     -45.411  60.576 -49.202  1.00  0.00     0.032 C 
HETATM   19  C   UNL     1     -44.200  62.792 -49.115  1.00  0.00     0.032 C 
ENDBRANCH  13  17
ENDBRANCH   1   7
BRANCH   6  20
HETATM   20  C   UNL     1     -43.530  55.982 -55.859  1.00  0.00     0.083 C 
BRANCH  20  21
HETATM   21  C   UNL     1     -42.646  55.067 -55.027  1.00  0.00    -0.051 A 
HETATM   22  C   UNL     1     -43.053  54.801 -53.705  1.00  0.00     0.044 A 
HETATM   23  C   UNL     1     -42.298  53.979 -52.867  1.00  0.00     0.068 A 
HETATM   24  C   UNL     1     -41.132  53.393 -53.359  1.00  0.00     0.037 A 
HETATM   25  C   UNL     1     -40.711  53.645 -54.664  1.00  0.00     0.003 A 
HETATM   26  C   UNL     1     -41.460  54.481 -55.492  1.00  0.00     0.007 A 
BRANCH  23  27
HETATM   27  O   UNL     1     -42.596  53.669 -51.568  1.00  0.00    -0.356 OA
HETATM   28  C   UNL     1     -43.599  54.457 -50.939  1.00  0.00     0.210 C 
ENDBRANCH  23  27
ENDBRANCH  20  21
ENDBRANCH   6  20
BRANCH   3  29
HETATM   29  C   UNL     1     -41.633  60.352 -58.967  1.00  0.00     0.012 A 
HETATM   30  C   UNL     1     -41.940  60.390 -60.340  1.00  0.00     0.015 A 
HETATM   31  C   UNL     1     -41.572  61.479 -61.141  1.00  0.00     0.001 A 
HETATM   32  C   UNL     1     -40.882  62.554 -60.589  1.00  0.00     0.000 A 
HETATM   33  C   UNL     1     -40.568  62.549 -59.235  1.00  0.00     0.001 A 
HETATM   34  C   UNL     1     -40.940  61.462 -58.437  1.00  0.00     0.015 A 
ENDBRANCH   3  29
BRANCH   5  35
HETATM   35  C   UNL     1     -42.897  55.716 -58.785  1.00  0.00     0.226 C 
BRANCH  35  36
HETATM   36  O   UNL     1     -43.075  56.003 -60.174  1.00  0.00    -0.390 OA
HETATM   37  C   UNL     1     -44.423  55.800 -60.573  1.00  0.00     0.201 C 
ENDBRANCH  35  36
ENDBRANCH   5  35
TORSDOF 8
ENDMDL
MODEL 3
REMARK VINA RESULT:      -7.9      2.159      7.580
REMARK  8 active torsions:
REMARK  status: ('A' for Active; 'I' for Inactive)
REMARK    1  A    between atoms: C_2  and  N_3 
REMARK       I    between atoms: N_3  and  C_4 
REMARK       I    between atoms: C_4  and  N_5 
REMARK    2  A    between atoms: N_8  and  C_9 
REMARK    3  A    between atoms: C_11  and  C_12 
REMARK    4  A    between atoms: C_19  and  C_20 
REMARK    5  A    between atoms: C_20  and  O_21 
REMARK    6  A    between atoms: C_23  and  C_24 
REMARK    7  A    between atoms: C_24  and  C_25 
REMARK    8  A    between atoms: C_27  and  O_28 
ROOT
HETATM    1  C   UNL     1     -43.107  57.719 -55.884  1.00  0.00     0.137 A 
HETATM    2  N   UNL     1     -43.807  57.062 -56.829  1.00  0.00    -0.210 NA
HETATM    3  C   UNL     1     -44.143  57.727 -57.952  1.00  0.00     0.162 A 
HETATM    4  N   UNL     1     -43.864  59.019 -58.174  1.00  0.00    -0.230 NA
HETATM    5  C   UNL     1     -43.139  59.672 -57.244  1.00  0.00     0.071 A 
HETATM    6  C   UNL     1     -42.714  59.053 -56.065  1.00  0.00     0.019 A 
ENDROOT
BRANCH   1   7
HETATM    7  N   UNL     1     -42.709  56.993 -54.764  1.00  0.00    -0.362 N 
HETATM    8  C   UNL     1     -43.737  56.563 -53.785  1.00  0.00     0.144 C 
HETATM    9  C   UNL     1     -43.956  55.039 -53.764  1.00  0.00     0.147 C 
HETATM   10  N   UNL     1     -42.678  54.335 -53.695  1.00  0.00    -0.331 N 
HETATM   11  C   UNL     1     -42.286  53.806 -52.479  1.00  0.00     0.318 C 
HETATM   12  C   UNL     1     -41.830  54.642 -54.852  1.00  0.00     0.147 C 
HETATM   13  N   UNL     1     -40.995  53.353 -52.416  1.00  0.00    -0.339 N 
HETATM   14  O   UNL     1     -43.054  53.726 -51.523  1.00  0.00    -0.247 OA
HETATM   15  H   UNL     1     -40.334  53.821 -53.012  1.00  0.00     0.164 HD
HETATM   16  C   UNL     1     -41.504  56.145 -54.878  1.00  0.00     0.144 C 
BRANCH  13  17
HETATM   17  C   UNL     1     -40.409  52.716 -51.238  1.00  0.00     0.078 C 
HETATM   18  C   UNL     1     -39.721  53.710 -50.303  1.00  0.00     0.032 C 
HETATM   19  C   UNL     1     -39.488  51.553 -51.598  1.00  0.00     0.032 C 
ENDBRANCH  13  17
ENDBRANCH   1   7
BRANCH   6  20
HETATM   20  C   UNL     1     -41.782  59.760 -55.107  1.00  0.00     0.083 C 
BRANCH  20  21
HETATM   21  C   UNL     1     -42.288  60.089 -53.713  1.00  0.00    -0.051 A 
HETATM   22  C   UNL     1     -41.468  59.732 -52.625  1.00  0.00     0.044 A 
HETATM   23  C   UNL     1     -41.858  59.987 -51.309  1.00  0.00     0.068 A 
HETATM   24  C   UNL     1     -43.072  60.630 -51.073  1.00  0.00     0.037 A 
HETATM   25  C   UNL     1     -43.900  60.990 -52.135  1.00  0.00     0.003 A 
HETATM   26  C   UNL     1     -43.514  60.717 -53.448  1.00  0.00     0.007 A 
BRANCH  23  27
HETATM   27  O   UNL     1     -41.144  59.669 -50.187  1.00  0.00    -0.356 OA
HETATM   28  C   UNL     1     -39.730  59.607 -50.326  1.00  0.00     0.210 C 
ENDBRANCH  23  27
ENDBRANCH  20  21
ENDBRANCH   6  20
BRANCH   3  29
HETATM   29  C   UNL     1     -44.801  56.983 -59.049  1.00  0.00     0.012 A 
HETATM   30  C   UNL     1     -46.137  57.227 -59.415  1.00  0.00     0.015 A 
HETATM   31  C   UNL     1     -46.761  56.495 -60.434  1.00  0.00     0.001 A 
HETATM   32  C   UNL     1     -46.064  55.496 -61.107  1.00  0.00     0.000 A 
HETATM   33  C   UNL     1     -44.740  55.234 -60.771  1.00  0.00     0.001 A 
HETATM   34  C   UNL     1     -44.119  55.969 -59.757  1.00  0.00     0.015 A 
ENDBRANCH   3  29
BRANCH   5  35
HETATM   35  C   UNL     1     -42.800  61.107 -57.594  1.00  0.00     0.226 C 
BRANCH  35  36
HETATM   36  O   UNL     1     -41.695  61.159 -58.498  1.00  0.00    -0.390 OA
HETATM   37  C   UNL     1     -40.984  62.382 -58.372  1.00  0.00     0.201 C 
ENDBRANCH  35  36
ENDBRANCH   5  35
TORSDOF 8
ENDMDL
MODEL 4
REMARK VINA RESULT:      -7.8      2.512      3.958
REMARK  8 active torsions:
REMARK  status: ('A' for Active; 'I' for Inactive)
REMARK    1  A    between atoms: C_2  and  N_3 
REMARK       I    between atoms: N_3  and  C_4 
REMARK       I    between atoms: C_4  and  N_5 
REMARK    2  A    between atoms: N_8  and  C_9 
REMARK    3  A    between atoms: C_11  and  C_12 
REMARK    4  A    between atoms: C_19  and  C_20 
REMARK    5  A    between atoms: C_20  and  O_21 
REMARK    6  A    between atoms: C_23  and  C_24 
REMARK    7  A    between atoms: C_24  and  C_25 
REMARK    8  A    between atoms: C_27  and  O_28 
ROOT
HETATM    1  C   UNL     1     -42.146  58.026 -55.074  1.00  0.00     0.137 A 
HETATM    2  N   UNL     1     -41.796  56.729 -54.980  1.00  0.00    -0.210 NA
HETATM    3  C   UNL     1     -41.076  56.339 -53.910  1.00  0.00     0.162 A 
HETATM    4  N   UNL     1     -40.644  57.168 -52.949  1.00  0.00    -0.230 NA
HETATM    5  C   UNL     1     -41.015  58.462 -53.025  1.00  0.00     0.071 A 
HETATM    6  C   UNL     1     -41.794  58.950 -54.079  1.00  0.00     0.019 A 
ENDROOT
BRANCH   1   7
HETATM    7  N   UNL     1     -42.950  58.394 -56.150  1.00  0.00    -0.362 N 
HETATM    8  C   UNL     1     -42.320  59.025 -57.335  1.00  0.00     0.144 C 
HETATM    9  C   UNL     1     -42.348  58.130 -58.588  1.00  0.00     0.147 C 
HETATM   10  N   UNL     1     -43.684  57.579 -58.797  1.00  0.00    -0.331 N 
HETATM   11  C   UNL     1     -44.480  58.143 -59.778  1.00  0.00     0.318 C 
HETATM   12  C   UNL     1     -44.112  56.757 -57.660  1.00  0.00     0.147 C 
HETATM   13  N   UNL     1     -45.789  57.739 -59.785  1.00  0.00    -0.339 N 
HETATM   14  O   UNL     1     -44.036  58.937 -60.602  1.00  0.00    -0.247 OA
HETATM   15  H   UNL     1     -46.175  57.478 -58.894  1.00  0.00     0.164 HD
HETATM   16  C   UNL     1     -44.187  57.621 -56.389  1.00  0.00     0.144 C 
BRANCH  13  17
HETATM   17  C   UNL     1     -46.774  58.181 -60.771  1.00  0.00     0.078 C 
HETATM   18  C   UNL     1     -47.629  59.348 -60.278  1.00  0.00     0.032 C 
HETATM   19  C   UNL     1     -47.636  57.035 -61.292  1.00  0.00     0.032 C 
ENDBRANCH  13  17
ENDBRANCH   1   7
BRANCH   6  20
HETATM   20  C   UNL     1     -42.319  60.367 -54.067  1.00  0.00     0.083 C 
BRANCH  20  21
HETATM   21  C   UNL     1     -43.569  60.671 -53.257  1.00  0.00    -0.051 A 
HETATM   22  C   UNL     1     -43.457  61.627 -52.229  1.00  0.00     0.044 A 
HETATM   23  C   UNL     1     -44.552  61.961 -51.430  1.00  0.00     0.068 A 
HETATM   24  C   UNL     1     -45.782  61.352 -51.672  1.00  0.00     0.037 A 
HETATM   25  C   UNL     1     -45.914  60.401 -52.684  1.00  0.00     0.003 A 
HETATM   26  C   UNL     1     -44.812  60.058 -53.468  1.00  0.00     0.007 A 
BRANCH  23  27
HETATM   27  O   UNL     1     -44.547  62.862 -50.401  1.00  0.00    -0.356 OA
HETATM   28  C   UNL     1     -44.680  62.332 -49.088  1.00  0.00     0.210 C 
ENDBRANCH  23  27
ENDBRANCH  20  21
ENDBRANCH   6  20
BRANCH   3  29
HETATM   29  C   UNL     1     -40.793  54.898 -53.730  1.00  0.00     0.012 A 
HETATM   30  C   UNL     1     -40.791  54.294 -52.459  1.00  0.00     0.015 A 
HETATM   31  C   UNL     1     -40.489  52.935 -52.296  1.00  0.00     0.001 A 
HETATM   32  C   UNL     1     -40.177  52.148 -53.401  1.00  0.00     0.000 A 
HETATM   33  C   UNL     1     -40.175  52.715 -54.671  1.00  0.00     0.001 A 
HETATM   34  C   UNL     1     -40.480  54.070 -54.831  1.00  0.00     0.015 A 
ENDBRANCH   3  29
BRANCH   5  35
HETATM   35  C   UNL     1     -40.552  59.325 -51.870  1.00  0.00     0.226 C 
BRANCH  35  36
HETATM   36  O   UNL     1     -39.126  59.419 -51.849  1.00  0.00    -0.390 OA
HETATM   37  C   UNL     1     -38.631  59.446 -50.518  1.00  0.00     0.201 C 
ENDBRANCH  35  36
ENDBRANCH   5  35
TORSDOF 8
ENDMDL
MODEL 5
REMARK VINA RESULT:      -7.8      1.878      2.541
REMARK  8 active torsions:
REMARK  status: ('A' for Active; 'I' for Inactive)
REMARK    1  A    between atoms: C_2  and  N_3 
REMARK       I    between atoms: N_3  and  C_4 
REMARK       I    between atoms: C_4  and  N_5 
REMARK    2  A    between atoms: N_8  and  C_9 
REMARK    3  A    between atoms: C_11  and  C_12 
REMARK    4  A    between atoms: C_19  and  C_20 
REMARK    5  A    between atoms: C_20  and  O_21 
REMARK    6  A    between atoms: C_23  and  C_24 
REMARK    7  A    between atoms: C_24  and  C_25 
REMARK    8  A    between atoms: C_27  and  O_28 
ROOT
HETATM    1  C   UNL     1     -41.985  55.152 -53.309  1.00  0.00     0.137 A 
HETATM    2  N   UNL     1     -41.379  53.986 -53.610  1.00  0.00    -0.210 NA
HETATM    3  C   UNL     1     -40.860  53.259 -52.602  1.00  0.00     0.162 A 
HETATM    4  N   UNL     1     -40.866  53.640 -51.317  1.00  0.00    -0.230 NA
HETATM    5  C   UNL     1     -41.495  54.791 -51.008  1.00  0.00     0.071 A 
HETATM    6  C   UNL     1     -42.096  55.594 -51.982  1.00  0.00     0.019 A 
ENDROOT
BRANCH   1   7
HETATM    7  N   UNL     1     -42.577  55.853 -54.357  1.00  0.00    -0.362 N 
HETATM    8  C   UNL     1     -44.056  55.908 -54.441  1.00  0.00     0.144 C 
HETATM    9  C   UNL     1     -44.629  57.311 -54.171  1.00  0.00     0.147 C 
HETATM   10  N   UNL     1     -43.911  58.318 -54.948  1.00  0.00    -0.331 N 
HETATM   11  C   UNL     1     -44.516  58.821 -56.086  1.00  0.00     0.318 C 
HETATM   12  C   UNL     1     -42.487  58.352 -54.603  1.00  0.00     0.147 C 
HETATM   13  N   UNL     1     -43.718  59.591 -56.891  1.00  0.00    -0.339 N 
HETATM   14  O   UNL     1     -45.697  58.610 -56.347  1.00  0.00    -0.247 OA
HETATM   15  H   UNL     1     -42.738  59.370 -56.882  1.00  0.00     0.164 HD
HETATM   16  C   UNL     1     -41.837  56.996 -54.932  1.00  0.00     0.144 C 
BRANCH  13  17
HETATM   17  C   UNL     1     -44.183  60.252 -58.109  1.00  0.00     0.078 C 
HETATM   18  C   UNL     1     -43.200  60.123 -59.271  1.00  0.00     0.032 C 
HETATM   19  C   UNL     1     -44.582  61.707 -57.870  1.00  0.00     0.032 C 
ENDBRANCH  13  17
ENDBRANCH   1   7
BRANCH   6  20
HETATM   20  C   UNL     1     -42.919  56.802 -51.597  1.00  0.00     0.083 C 
BRANCH  20  21
HETATM   21  C   UNL     1     -42.194  58.084 -51.224  1.00  0.00    -0.051 A 
HETATM   22  C   UNL     1     -42.980  59.229 -50.994  1.00  0.00     0.044 A 
HETATM   23  C   UNL     1     -42.397  60.451 -50.655  1.00  0.00     0.068 A 
HETATM   24  C   UNL     1     -41.012  60.530 -50.519  1.00  0.00     0.037 A 
HETATM   25  C   UNL     1     -40.215  59.408 -50.744  1.00  0.00     0.003 A 
HETATM   26  C   UNL     1     -40.801  58.193 -51.100  1.00  0.00     0.007 A 
BRANCH  23  27
HETATM   27  O   UNL     1     -43.067  61.621 -50.425  1.00  0.00    -0.356 OA
HETATM   28  C   UNL     1     -44.136  61.571 -49.488  1.00  0.00     0.210 C 
ENDBRANCH  23  27
ENDBRANCH  20  21
ENDBRANCH   6  20
BRANCH   3  29
HETATM   29  C   UNL     1     -40.305  51.921 -52.903  1.00  0.00     0.012 A 
HETATM   30  C   UNL     1     -40.291  51.398 -54.210  1.00  0.00     0.015 A 
HETATM   31  C   UNL     1     -39.794  50.117 -54.480  1.00  0.00     0.001 A 
HETATM   32  C   UNL     1     -39.304  49.323 -53.446  1.00  0.00     0.000 A 
HETATM   33  C   UNL     1     -39.300  49.812 -52.145  1.00  0.00     0.001 A 
HETATM   34  C   UNL     1     -39.793  51.094 -51.880  1.00  0.00     0.015 A 
ENDBRANCH   3  29
BRANCH   5  35
HETATM   35  C   UNL     1     -41.524  55.123 -49.530  1.00  0.00     0.226 C 
BRANCH  35  36
HETATM   36  O   UNL     1     -41.419  53.935 -48.743  1.00  0.00    -0.390 OA
HETATM   37  C   UNL     1     -40.271  53.971 -47.907  1.00  0.00     0.201 C 
ENDBRANCH  35  36
ENDBRANCH   5  35
TORSDOF 8
ENDMDL
MODEL 6
REMARK VINA RESULT:      -7.6      2.380      7.634
REMARK  8 active torsions:
REMARK  status: ('A' for Active; 'I' for Inactive)
REMARK    1  A    between atoms: C_2  and  N_3 
REMARK       I    between atoms: N_3  and  C_4 
REMARK       I    between atoms: C_4  and  N_5 
REMARK    2  A    between atoms: N_8  and  C_9 
REMARK    3  A    between atoms: C_11  and  C_12 
REMARK    4  A    between atoms: C_19  and  C_20 
REMARK    5  A    between atoms: C_20  and  O_21 
REMARK    6  A    between atoms: C_23  and  C_24 
REMARK    7  A    between atoms: C_24  and  C_25 
REMARK    8  A    between atoms: C_27  and  O_28 
ROOT
HETATM    1  C   UNL     1     -42.678  57.629 -55.305  1.00  0.00     0.137 A 
HETATM    2  N   UNL     1     -43.318  56.951 -56.278  1.00  0.00    -0.210 NA
HETATM    3  C   UNL     1     -43.587  57.593 -57.431  1.00  0.00     0.162 A 
HETATM    4  N   UNL     1     -43.300  58.883 -57.661  1.00  0.00    -0.230 NA
HETATM    5  C   UNL     1     -42.635  59.556 -56.700  1.00  0.00     0.071 A 
HETATM    6  C   UNL     1     -42.280  58.961 -55.486  1.00  0.00     0.019 A 
ENDROOT
BRANCH   1   7
HETATM    7  N   UNL     1     -42.347  56.925 -54.149  1.00  0.00    -0.362 N 
HETATM    8  C   UNL     1     -43.431  56.300 -53.353  1.00  0.00     0.144 C 
HETATM    9  C   UNL     1     -43.406  54.761 -53.395  1.00  0.00     0.147 C 
HETATM   10  N   UNL     1     -42.058  54.261 -53.137  1.00  0.00    -0.331 N 
HETATM   11  C   UNL     1     -41.779  53.746 -51.884  1.00  0.00     0.318 C 
HETATM   12  C   UNL     1     -41.103  54.743 -54.140  1.00  0.00     0.147 C 
HETATM   13  N   UNL     1     -40.457  53.495 -51.627  1.00  0.00    -0.339 N 
HETATM   14  O   UNL     1     -42.661  53.508 -51.064  1.00  0.00    -0.247 OA
HETATM   15  H   UNL     1     -39.796  54.085 -52.103  1.00  0.00     0.164 HD
HETATM   16  C   UNL     1     -41.020  56.278 -54.087  1.00  0.00     0.144 C 
BRANCH  13  17
HETATM   17  C   UNL     1     -39.965  52.906 -50.383  1.00  0.00     0.078 C 
HETATM   18  C   UNL     1     -40.342  51.433 -50.232  1.00  0.00     0.032 C 
HETATM   19  C   UNL     1     -40.364  53.717 -49.153  1.00  0.00     0.032 C 
ENDBRANCH  13  17
ENDBRANCH   1   7
BRANCH   6  20
HETATM   20  C   UNL     1     -41.410  59.689 -54.487  1.00  0.00     0.083 C 
BRANCH  20  21
HETATM   21  C   UNL     1     -42.014  60.078 -53.148  1.00  0.00    -0.051 A 
HETATM   22  C   UNL     1     -43.172  60.878 -53.168  1.00  0.00     0.044 A 
HETATM   23  C   UNL     1     -43.789  61.290 -51.985  1.00  0.00     0.068 A 
HETATM   24  C   UNL     1     -43.258  60.878 -50.763  1.00  0.00     0.037 A 
HETATM   25  C   UNL     1     -42.111  60.086 -50.721  1.00  0.00     0.003 A 
HETATM   26  C   UNL     1     -41.489  59.693 -51.906  1.00  0.00     0.007 A 
BRANCH  23  27
HETATM   27  O   UNL     1     -44.904  62.076 -51.894  1.00  0.00    -0.356 OA
HETATM   28  C   UNL     1     -45.221  62.588 -50.606  1.00  0.00     0.210 C 
ENDBRANCH  23  27
ENDBRANCH  20  21
ENDBRANCH   6  20
BRANCH   3  29
HETATM   29  C   UNL     1     -44.174  56.827 -58.552  1.00  0.00     0.012 A 
HETATM   30  C   UNL     1     -45.397  57.195 -59.145  1.00  0.00     0.015 A 
HETATM   31  C   UNL     1     -45.961  56.444 -60.184  1.00  0.00     0.001 A 
HETATM   32  C   UNL     1     -45.318  55.301 -60.652  1.00  0.00     0.000 A 
HETATM   33  C   UNL     1     -44.106  54.914 -60.090  1.00  0.00     0.001 A 
HETATM   34  C   UNL     1     -43.544  55.668 -59.056  1.00  0.00     0.015 A 
ENDBRANCH   3  29
BRANCH   5  35
HETATM   35  C   UNL     1     -42.280  60.985 -57.056  1.00  0.00     0.226 C 
BRANCH  35  36
HETATM   36  O   UNL     1     -40.979  61.053 -57.641  1.00  0.00    -0.390 OA
HETATM   37  C   UNL     1     -40.860  62.173 -58.507  1.00  0.00     0.201 C 
ENDBRANCH  35  36
ENDBRANCH   5  35
TORSDOF 8
ENDMDL
MODEL 7
REMARK VINA RESULT:      -7.6      2.945      7.453
REMARK  8 active torsions:
REMARK  status: ('A' for Active; 'I' for Inactive)
REMARK    1  A    between atoms: C_2  and  N_3 
REMARK       I    between atoms: N_3  and  C_4 
REMARK       I    between atoms: C_4  and  N_5 
REMARK    2  A    between atoms: N_8  and  C_9 
REMARK    3  A    between atoms: C_11  and  C_12 
REMARK    4  A    between atoms: C_19  and  C_20 
REMARK    5  A    between atoms: C_20  and  O_21 
REMARK    6  A    between atoms: C_23  and  C_24 
REMARK    7  A    between atoms: C_24  and  C_25 
REMARK    8  A    between atoms: C_27  and  O_28 
ROOT
HETATM    1  C   UNL     1     -42.863  57.291 -53.670  1.00  0.00     0.137 A 
HETATM    2  N   UNL     1     -42.711  57.936 -54.843  1.00  0.00    -0.210 NA
HETATM    3  C   UNL     1     -42.403  57.211 -55.935  1.00  0.00     0.162 A 
HETATM    4  N   UNL     1     -42.191  55.887 -55.925  1.00  0.00    -0.230 NA
HETATM    5  C   UNL     1     -42.369  55.233 -54.760  1.00  0.00     0.071 A 
HETATM    6  C   UNL     1     -42.727  55.897 -53.582  1.00  0.00     0.019 A 
ENDROOT
BRANCH   1   7
HETATM    7  N   UNL     1     -43.250  58.050 -52.568  1.00  0.00    -0.362 N 
HETATM    8  C   UNL     1     -42.262  58.959 -51.938  1.00  0.00     0.144 C 
HETATM    9  C   UNL     1     -42.594  60.449 -52.137  1.00  0.00     0.147 C 
HETATM   10  N   UNL     1     -43.995  60.712 -51.816  1.00  0.00    -0.331 N 
HETATM   11  C   UNL     1     -44.288  61.309 -50.603  1.00  0.00     0.318 C 
HETATM   12  C   UNL     1     -44.899  59.943 -52.677  1.00  0.00     0.147 C 
HETATM   13  N   UNL     1     -45.614  61.333 -50.259  1.00  0.00    -0.339 N 
HETATM   14  O   UNL     1     -43.419  61.805 -49.892  1.00  0.00    -0.247 OA
HETATM   15  H   UNL     1     -46.175  60.577 -50.612  1.00  0.00     0.164 HD
HETATM   16  C   UNL     1     -44.673  58.437 -52.458  1.00  0.00     0.144 C 
BRANCH  13  17
HETATM   17  C   UNL     1     -46.130  61.962 -49.044  1.00  0.00     0.078 C 
HETATM   18  C   UNL     1     -45.876  63.468 -48.998  1.00  0.00     0.032 C 
HETATM   19  C   UNL     1     -45.641  61.270 -47.774  1.00  0.00     0.032 C 
ENDBRANCH  13  17
ENDBRANCH   1   7
BRANCH   6  20
HETATM   20  C   UNL     1     -43.062  55.128 -52.325  1.00  0.00     0.083 C 
BRANCH  20  21
HETATM   21  C   UNL     1     -41.931  54.754 -51.381  1.00  0.00    -0.051 A 
HETATM   22  C   UNL     1     -41.671  53.383 -51.195  1.00  0.00     0.044 A 
HETATM   23  C   UNL     1     -40.658  52.948 -50.339  1.00  0.00     0.068 A 
HETATM   24  C   UNL     1     -39.875  53.893 -49.677  1.00  0.00     0.037 A 
HETATM   25  C   UNL     1     -40.117  55.256 -49.847  1.00  0.00     0.003 A 
HETATM   26  C   UNL     1     -41.143  55.685 -50.689  1.00  0.00     0.007 A 
BRANCH  23  27
HETATM   27  O   UNL     1     -40.334  51.645 -50.077  1.00  0.00    -0.356 OA
HETATM   28  C   UNL     1     -39.678  50.930 -51.117  1.00  0.00     0.210 C 
ENDBRANCH  23  27
ENDBRANCH  20  21
ENDBRANCH   6  20
BRANCH   3  29
HETATM   29  C   UNL     1     -42.358  57.888 -57.249  1.00  0.00     0.012 A 
HETATM   30  C   UNL     1     -42.571  57.190 -58.453  1.00  0.00     0.015 A 
HETATM   31  C   UNL     1     -42.493  57.834 -59.695  1.00  0.00     0.001 A 
HETATM   32  C   UNL     1     -42.195  59.192 -59.764  1.00  0.00     0.000 A 
HETATM   33  C   UNL     1     -41.984  59.910 -58.592  1.00  0.00     0.001 A 
HETATM   34  C   UNL     1     -42.065  59.265 -57.353  1.00  0.00     0.015 A 
ENDBRANCH   3  29
BRANCH   5  35
HETATM   35  C   UNL     1     -42.184  53.732 -54.838  1.00  0.00     0.226 C 
BRANCH  35  36
HETATM   36  O   UNL     1     -40.796  53.392 -54.832  1.00  0.00    -0.390 OA
HETATM   37  C   UNL     1     -40.593  52.062 -54.374  1.00  0.00     0.201 C 
ENDBRANCH  35  36
ENDBRANCH   5  35
TORSDOF 8
ENDMDL
MODEL 8
REMARK VINA RESULT:      -7.2      2.059      2.751
REMARK  8 active torsions:
REMARK  status: ('A' for Active; 'I' for Inactive)
REMARK    1  A    between atoms: C_2  and  N_3 
REMARK       I    between atoms: N_3  and  C_4 
REMARK       I    between atoms: C_4  and  N_5 
REMARK    2  A    between atoms: N_8  and  C_9 
REMARK    3  A    between atoms: C_11  and  C_12 
REMARK    4  A    between atoms: C_19  and  C_20 
REMARK    5  A    between atoms: C_20  and  O_21 
REMARK    6  A    between atoms: C_23  and  C_24 
REMARK    7  A    between atoms: C_24  and  C_25 
REMARK    8  A    between atoms: C_27  and  O_28 
ROOT
HETATM    1  C   UNL     1     -41.894  55.638 -54.052  1.00  0.00     0.137 A 
HETATM    2  N   UNL     1     -41.212  54.479 -54.140  1.00  0.00    -0.210 NA
HETATM    3  C   UNL     1     -41.234  53.645 -53.082  1.00  0.00     0.162 A 
HETATM    4  N   UNL     1     -41.857  53.912 -51.925  1.00  0.00    -0.230 NA
HETATM    5  C   UNL     1     -42.563  55.057 -51.843  1.00  0.00     0.071 A 
HETATM    6  C   UNL     1     -42.629  55.966 -52.904  1.00  0.00     0.019 A 
ENDROOT
BRANCH   1   7
HETATM    7  N   UNL     1     -41.916  56.453 -55.182  1.00  0.00    -0.362 N 
HETATM    8  C   UNL     1     -42.990  56.261 -56.186  1.00  0.00     0.144 C 
HETATM    9  C   UNL     1     -43.986  57.433 -56.243  1.00  0.00     0.147 C 
HETATM   10  N   UNL     1     -43.276  58.709 -56.307  1.00  0.00    -0.331 N 
HETATM   11  C   UNL     1     -43.196  59.353 -57.529  1.00  0.00     0.318 C 
HETATM   12  C   UNL     1     -42.425  58.912 -55.131  1.00  0.00     0.147 C 
HETATM   13  N   UNL     1     -42.342  60.423 -57.580  1.00  0.00    -0.339 N 
HETATM   14  O   UNL     1     -43.865  59.003 -58.497  1.00  0.00    -0.247 OA
HETATM   15  H   UNL     1     -41.549  60.384 -56.964  1.00  0.00     0.164 HD
HETATM   16  C   UNL     1     -41.350  57.813 -55.067  1.00  0.00     0.144 C 
BRANCH  13  17
HETATM   17  C   UNL     1     -42.156  61.262 -58.762  1.00  0.00     0.078 C 
HETATM   18  C   UNL     1     -40.772  61.907 -58.825  1.00  0.00     0.032 C 
HETATM   19  C   UNL     1     -43.265  62.299 -58.925  1.00  0.00     0.032 C 
ENDBRANCH  13  17
ENDBRANCH   1   7
BRANCH   6  20
HETATM   20  C   UNL     1     -43.543  57.168 -52.843  1.00  0.00     0.083 C 
BRANCH  20  21
HETATM   21  C   UNL     1     -43.168  58.318 -51.922  1.00  0.00    -0.051 A 
HETATM   22  C   UNL     1     -41.820  58.415 -51.524  1.00  0.00     0.044 A 
HETATM   23  C   UNL     1     -41.389  59.434 -50.673  1.00  0.00     0.068 A 
HETATM   24  C   UNL     1     -42.307  60.384 -50.229  1.00  0.00     0.037 A 
HETATM   25  C   UNL     1     -43.646  60.305 -50.610  1.00  0.00     0.003 A 
HETATM   26  C   UNL     1     -44.076  59.275 -51.447  1.00  0.00     0.007 A 
BRANCH  23  27
HETATM   27  O   UNL     1     -40.111  59.609 -50.217  1.00  0.00    -0.356 OA
HETATM   28  C   UNL     1     -39.062  59.208 -51.090  1.00  0.00     0.210 C 
ENDBRANCH  23  27
ENDBRANCH  20  21
ENDBRANCH   6  20
BRANCH   3  29
HETATM   29  C   UNL     1     -40.596  52.317 -53.210  1.00  0.00     0.012 A 
HETATM   30  C   UNL     1     -39.914  51.713 -52.137  1.00  0.00     0.015 A 
HETATM   31  C   UNL     1     -39.284  50.469 -52.279  1.00  0.00     0.001 A 
HETATM   32  C   UNL     1     -39.316  49.801 -53.500  1.00  0.00     0.000 A 
HETATM   33  C   UNL     1     -39.986  50.370 -54.577  1.00  0.00     0.001 A 
HETATM   34  C   UNL     1     -40.617  51.609 -54.432  1.00  0.00     0.015 A 
ENDBRANCH   3  29
BRANCH   5  35
HETATM   35  C   UNL     1     -43.299  55.258 -50.535  1.00  0.00     0.226 C 
BRANCH  35  36
HETATM   36  O   UNL     1     -42.559  54.699 -49.447  1.00  0.00    -0.390 OA
HETATM   37  C   UNL     1     -41.399  55.468 -49.163  1.00  0.00     0.201 C 
ENDBRANCH  35  36
ENDBRANCH   5  35
TORSDOF 8
ENDMDL
MODEL 9
REMARK VINA RESULT:      -6.9      2.399      3.536
REMARK  8 active torsions:
REMARK  status: ('A' for Active; 'I' for Inactive)
REMARK    1  A    between atoms: C_2  and  N_3 
REMARK       I    between atoms: N_3  and  C_4 
REMARK       I    between atoms: C_4  and  N_5 
REMARK    2  A    between atoms: N_8  and  C_9 
REMARK    3  A    between atoms: C_11  and  C_12 
REMARK    4  A    between atoms: C_19  and  C_20 
REMARK    5  A    between atoms: C_20  and  O_21 
REMARK    6  A    between atoms: C_23  and  C_24 
REMARK    7  A    between atoms: C_24  and  C_25 
REMARK    8  A    between atoms: C_27  and  O_28 
ROOT
HETATM    1  C   UNL     1     -42.080  56.532 -54.425  1.00  0.00     0.137 A 
HETATM    2  N   UNL     1     -41.590  55.277 -54.418  1.00  0.00    -0.210 NA
HETATM    3  C   UNL     1     -40.968  54.842 -53.304  1.00  0.00     0.162 A 
HETATM    4  N   UNL     1     -40.764  55.594 -52.213  1.00  0.00    -0.230 NA
HETATM    5  C   UNL     1     -41.277  56.840 -52.207  1.00  0.00     0.071 A 
HETATM    6  C   UNL     1     -41.970  57.364 -53.302  1.00  0.00     0.019 A 
ENDROOT
BRANCH   1   7
HETATM    7  N   UNL     1     -42.781  56.936 -55.560  1.00  0.00    -0.362 N 
HETATM    8  C   UNL     1     -44.263  56.935 -55.527  1.00  0.00     0.144 C 
HETATM    9  C   UNL     1     -44.873  58.348 -55.564  1.00  0.00     0.147 C 
HETATM   10  N   UNL     1     -44.262  59.145 -56.624  1.00  0.00    -0.331 N 
HETATM   11  C   UNL     1     -44.973  59.335 -57.795  1.00  0.00     0.318 C 
HETATM   12  C   UNL     1     -42.817  59.296 -56.421  1.00  0.00     0.147 C 
HETATM   13  N   UNL     1     -44.274  59.898 -58.830  1.00  0.00    -0.339 N 
HETATM   14  O   UNL     1     -46.161  59.039 -57.893  1.00  0.00    -0.247 OA
HETATM   15  H   UNL     1     -43.287  59.707 -58.851  1.00  0.00     0.164 HD
HETATM   16  C   UNL     1     -42.137  57.916 -56.459  1.00  0.00     0.144 C 
BRANCH  13  17
HETATM   17  C   UNL     1     -44.860  60.224 -60.129  1.00  0.00     0.078 C 
HETATM   18  C   UNL     1     -43.877  60.054 -61.287  1.00  0.00     0.032 C 
HETATM   19  C   UNL     1     -45.514  61.603 -60.147  1.00  0.00     0.032 C 
ENDBRANCH  13  17
ENDBRANCH   1   7
BRANCH   6  20
HETATM   20  C   UNL     1     -42.661  58.706 -53.217  1.00  0.00     0.083 C 
BRANCH  20  21
HETATM   21  C   UNL     1     -43.744  58.899 -52.169  1.00  0.00    -0.051 A 
HETATM   22  C   UNL     1     -43.778  60.134 -51.494  1.00  0.00     0.044 A 
HETATM   23  C   UNL     1     -44.734  60.395 -50.510  1.00  0.00     0.068 A 
HETATM   24  C   UNL     1     -45.684  59.421 -50.210  1.00  0.00     0.037 A 
HETATM   25  C   UNL     1     -45.667  58.190 -50.866  1.00  0.00     0.003 A 
HETATM   26  C   UNL     1     -44.700  57.928 -51.836  1.00  0.00     0.007 A 
BRANCH  23  27
HETATM   27  O   UNL     1     -44.844  61.551 -49.788  1.00  0.00    -0.356 OA
HETATM   28  C   UNL     1     -46.161  62.043 -49.569  1.00  0.00     0.210 C 
ENDBRANCH  23  27
ENDBRANCH  20  21
ENDBRANCH   6  20
BRANCH   3  29
HETATM   29  C   UNL     1     -40.538  53.428 -53.236  1.00  0.00     0.012 A 
HETATM   30  C   UNL     1     -40.582  52.582 -54.359  1.00  0.00     0.015 A 
HETATM   31  C   UNL     1     -40.203  51.236 -54.276  1.00  0.00     0.001 A 
HETATM   32  C   UNL     1     -39.776  50.701 -53.064  1.00  0.00     0.000 A 
HETATM   33  C   UNL     1     -39.716  51.513 -51.936  1.00  0.00     0.001 A 
HETATM   34  C   UNL     1     -40.091  52.858 -52.024  1.00  0.00     0.015 A 
ENDBRANCH   3  29
BRANCH   5  35
HETATM   35  C   UNL     1     -41.071  57.606 -50.916  1.00  0.00     0.226 C 
BRANCH  35  36
HETATM   36  O   UNL     1     -39.940  58.474 -51.017  1.00  0.00    -0.390 OA
HETATM   37  C   UNL     1     -40.203  59.736 -50.420  1.00  0.00     0.201 C 
ENDBRANCH  35  36
ENDBRANCH   5  35
TORSDOF 8
ENDMDL
MODEL 10
REMARK VINA RESULT:      -6.6      3.870      9.855
REMARK  8 active torsions:
REMARK  status: ('A' for Active; 'I' for Inactive)
REMARK    1  A    between atoms: C_2  and  N_3 
REMARK       I    between atoms: N_3  and  C_4 
REMARK       I    between atoms: C_4  and  N_5 
REMARK    2  A    between atoms: N_8  and  C_9 
REMARK    3  A    between atoms: C_11  and  C_12 
REMARK    4  A    between atoms: C_19  and  C_20 
REMARK    5  A    between atoms: C_20  and  O_21 
REMARK    6  A    between atoms: C_23  and  C_24 
REMARK    7  A    between atoms: C_24  and  C_25 
REMARK    8  A    between atoms: C_27  and  O_28 
ROOT
HETATM    1  C   UNL     1     -43.385  60.213 -55.120  1.00  0.00     0.137 A 
HETATM    2  N   UNL     1     -44.510  60.682 -54.544  1.00  0.00    -0.210 NA
HETATM    3  C   UNL     1     -45.314  61.479 -55.273  1.00  0.00     0.162 A 
HETATM    4  N   UNL     1     -45.048  61.877 -56.526  1.00  0.00    -0.230 NA
HETATM    5  C   UNL     1     -43.938  61.387 -57.115  1.00  0.00     0.071 A 
HETATM    6  C   UNL     1     -43.063  60.523 -56.449  1.00  0.00     0.019 A 
ENDROOT
BRANCH   1   7
HETATM    7  N   UNL     1     -42.604  59.334 -54.372  1.00  0.00    -0.362 N 
HETATM    8  C   UNL     1     -41.565  59.886 -53.469  1.00  0.00     0.144 C 
HETATM    9  C   UNL     1     -41.886  59.685 -51.977  1.00  0.00     0.147 C 
HETATM   10  N   UNL     1     -42.284  58.303 -51.719  1.00  0.00    -0.331 N 
HETATM   11  C   UNL     1     -41.362  57.453 -51.135  1.00  0.00     0.318 C 
HETATM   12  C   UNL     1     -43.483  57.936 -52.480  1.00  0.00     0.147 C 
HETATM   13  N   UNL     1     -41.706  56.127 -51.116  1.00  0.00    -0.339 N 
HETATM   14  O   UNL     1     -40.313  57.864 -50.646  1.00  0.00    -0.247 OA
HETATM   15  H   UNL     1     -42.293  55.813 -51.868  1.00  0.00     0.164 HD
HETATM   16  C   UNL     1     -43.196  58.036 -53.988  1.00  0.00     0.144 C 
BRANCH  13  17
HETATM   17  C   UNL     1     -40.890  55.082 -50.501  1.00  0.00     0.078 C 
HETATM   18  C   UNL     1     -40.956  53.753 -51.253  1.00  0.00     0.032 C 
HETATM   19  C   UNL     1     -41.191  54.901 -49.015  1.00  0.00     0.032 C 
ENDBRANCH  13  17
ENDBRANCH   1   7
BRANCH   6  20
HETATM   20  C   UNL     1     -41.907  59.874 -57.175  1.00  0.00     0.083 C 
BRANCH  20  21
HETATM   21  C   UNL     1     -42.189  58.664 -58.050  1.00  0.00    -0.051 A 
HETATM   22  C   UNL     1     -42.593  57.479 -57.405  1.00  0.00     0.044 A 
HETATM   23  C   UNL     1     -42.863  56.317 -58.130  1.00  0.00     0.068 A 
HETATM   24  C   UNL     1     -42.753  56.341 -59.519  1.00  0.00     0.037 A 
HETATM   25  C   UNL     1     -42.354  57.503 -60.177  1.00  0.00     0.003 A 
HETATM   26  C   UNL     1     -42.067  58.657 -59.447  1.00  0.00     0.007 A 
BRANCH  23  27
HETATM   27  O   UNL     1     -43.247  55.115 -57.601  1.00  0.00    -0.356 OA
HETATM   28  C   UNL     1     -42.887  54.870 -56.247  1.00  0.00     0.210 C 
ENDBRANCH  23  27
ENDBRANCH  20  21
ENDBRANCH   6  20
BRANCH   3  29
HETATM   29  C   UNL     1     -46.611  61.898 -54.698  1.00  0.00     0.012 A 
HETATM   30  C   UNL     1     -46.883  61.794 -53.321  1.00  0.00     0.015 A 
HETATM   31  C   UNL     1     -48.127  62.162 -52.792  1.00  0.00     0.001 A 
HETATM   32  C   UNL     1     -49.132  62.639 -53.628  1.00  0.00     0.000 A 
HETATM   33  C   UNL     1     -48.893  62.758 -54.993  1.00  0.00     0.001 A 
HETATM   34  C   UNL     1     -47.649  62.393 -55.518  1.00  0.00     0.015 A 
ENDBRANCH   3  29
BRANCH   5  35
HETATM   35  C   UNL     1     -43.738  61.820 -58.552  1.00  0.00     0.226 C 
BRANCH  35  36
HETATM   36  O   UNL     1     -42.793  62.889 -58.632  1.00  0.00    -0.390 OA
HETATM   37  C   UNL     1     -41.990  62.782 -59.800  1.00  0.00     0.201 C 
ENDBRANCH  35  36
ENDBRANCH   5  35
TORSDOF 8
ENDMDL
