MODEL 1
REMARK VINA RESULT:      -8.5      0.000      0.000
REMARK  4 active torsions:
REMARK  status: ('A' for Active; 'I' for Inactive)
REMARK    1  A    between atoms: O_2  and  C_3 
REMARK    2  A    between atoms: C_6  and  C_7 
REMARK       I    between atoms: C_7  and  N_8 
REMARK    3  A    between atoms: N_8  and  C_9 
REMARK    4  A    between atoms: C_14  and  C_15 
ROOT
HETATM    1  C   UNL     1     -42.751  56.046 -56.292  1.00  0.00     0.259 C 
HETATM    2  N   UNL     1     -41.578  55.400 -55.951  1.00  0.00    -0.320 N 
HETATM    3  O   UNL     1     -43.727  56.192 -55.565  1.00  0.00    -0.267 OA
HETATM    4  H   UNL     1     -40.952  55.157 -56.713  1.00  0.00     0.169 HD
ENDROOT
BRANCH   2   5
HETATM    5  C   UNL     1     -41.208  54.911 -54.674  1.00  0.00     0.074 A 
HETATM    6  C   UNL     1     -41.170  55.665 -53.497  1.00  0.00     0.143 A 
HETATM    7  F   UNL     1     -41.387  56.986 -53.487  1.00  0.00    -0.204 F 
HETATM    8  C   UNL     1     -40.805  55.081 -52.286  1.00  0.00     0.045 A 
HETATM    9  C   UNL     1     -40.453  53.732 -52.232  1.00  0.00     0.017 A 
HETATM   10  C   UNL     1     -40.445  52.953 -53.397  1.00  0.00     0.000 A 
HETATM   11  C   UNL     1     -40.818  53.561 -54.611  1.00  0.00     0.047 A 
BRANCH  10  12
HETATM   12  C   UNL     1     -40.057  51.544 -53.340  1.00  0.00     0.085 A 
HETATM   13  O   UNL     1     -39.784  51.038 -52.100  1.00  0.00    -0.322 OA
HETATM   14  C   UNL     1     -39.454  49.731 -52.256  1.00  0.00     0.142 A 
HETATM   15  C   UNL     1     -39.505  49.378 -53.582  1.00  0.00     0.027 A 
HETATM   16  C   UNL     1     -39.894  50.546 -54.283  1.00  0.00     0.040 A 
ENDBRANCH  10  12
ENDBRANCH   2   5
BRANCH   1  17
HETATM   17  C   UNL     1     -42.851  56.564 -57.690  1.00  0.00     0.073 A 
HETATM   18  C   UNL     1     -43.424  55.839 -58.738  1.00  0.00     0.165 A 
HETATM   19  C   UNL     1     -43.508  56.371 -60.033  1.00  0.00     0.107 A 
HETATM   20  F   UNL     1     -43.923  54.610 -58.514  1.00  0.00    -0.202 F 
HETATM   21  C   UNL     1     -42.995  57.646 -60.281  1.00  0.00     0.040 A 
HETATM   22  C   UNL     1     -42.418  58.382 -59.244  1.00  0.00     0.004 A 
HETATM   23  C   UNL     1     -42.350  57.847 -57.957  1.00  0.00     0.020 A 
BRANCH  19  24
HETATM   24  O   UNL     1     -44.100  55.562 -60.967  1.00  0.00    -0.353 OA
HETATM   25  C   UNL     1     -45.519  55.608 -61.058  1.00  0.00     0.210 C 
ENDBRANCH  19  24
ENDBRANCH   1  17
TORSDOF 4
ENDMDL
MODEL 2
REMARK VINA RESULT:      -8.1      1.720      2.313
REMARK  4 active torsions:
REMARK  status: ('A' for Active; 'I' for Inactive)
REMARK    1  A    between atoms: O_2  and  C_3 
REMARK    2  A    between atoms: C_6  and  C_7 
REMARK       I    between atoms: C_7  and  N_8 
REMARK    3  A    between atoms: N_8  and  C_9 
REMARK    4  A    between atoms: C_14  and  C_15 
ROOT
HETATM    1  C   UNL     1     -42.621  56.504 -56.362  1.00  0.00     0.259 C 
HETATM    2  N   UNL     1     -41.474  55.868 -55.926  1.00  0.00    -0.320 N 
HETATM    3  O   UNL     1     -43.680  56.571 -55.748  1.00  0.00    -0.267 OA
HETATM    4  H   UNL     1     -40.755  55.696 -56.623  1.00  0.00     0.169 HD
ENDROOT
BRANCH   2   5
HETATM    5  C   UNL     1     -41.240  55.300 -54.650  1.00  0.00     0.074 A 
HETATM    6  C   UNL     1     -41.344  55.977 -53.431  1.00  0.00     0.143 A 
HETATM    7  F   UNL     1     -41.582  57.292 -53.360  1.00  0.00    -0.204 F 
HETATM    8  C   UNL     1     -41.105  55.320 -52.226  1.00  0.00     0.045 A 
HETATM    9  C   UNL     1     -40.739  53.973 -52.219  1.00  0.00     0.017 A 
HETATM   10  C   UNL     1     -40.590  53.271 -53.422  1.00  0.00     0.000 A 
HETATM   11  C   UNL     1     -40.837  53.953 -54.629  1.00  0.00     0.047 A 
BRANCH  10  12
HETATM   12  C   UNL     1     -40.187  51.865 -53.412  1.00  0.00     0.085 A 
HETATM   13  O   UNL     1     -39.815  51.348 -52.202  1.00  0.00    -0.322 OA
HETATM   14  C   UNL     1     -39.488  50.045 -52.398  1.00  0.00     0.142 A 
HETATM   15  C   UNL     1     -39.638  49.707 -53.721  1.00  0.00     0.027 A 
HETATM   16  C   UNL     1     -40.090  50.879 -54.376  1.00  0.00     0.040 A 
ENDBRANCH  10  12
ENDBRANCH   2   5
BRANCH   1  17
HETATM   17  C   UNL     1     -42.575  57.116 -57.723  1.00  0.00     0.073 A 
HETATM   18  C   UNL     1     -42.210  58.444 -57.957  1.00  0.00     0.165 A 
HETATM   19  C   UNL     1     -42.168  58.973 -59.255  1.00  0.00     0.107 A 
HETATM   20  F   UNL     1     -41.873  59.240 -56.926  1.00  0.00    -0.202 F 
HETATM   21  C   UNL     1     -42.515  58.157 -60.334  1.00  0.00     0.040 A 
HETATM   22  C   UNL     1     -42.885  56.829 -60.118  1.00  0.00     0.004 A 
HETATM   23  C   UNL     1     -42.910  56.310 -58.823  1.00  0.00     0.020 A 
BRANCH  19  24
HETATM   24  O   UNL     1     -41.785  60.285 -59.346  1.00  0.00    -0.353 OA
HETATM   25  C   UNL     1     -41.757  60.862 -60.645  1.00  0.00     0.210 C 
ENDBRANCH  19  24
ENDBRANCH   1  17
TORSDOF 4
ENDMDL
MODEL 3
REMARK VINA RESULT:      -7.9      1.716      7.535
REMARK  4 active torsions:
REMARK  status: ('A' for Active; 'I' for Inactive)
REMARK    1  A    between atoms: O_2  and  C_3 
REMARK    2  A    between atoms: C_6  and  C_7 
REMARK       I    between atoms: C_7  and  N_8 
REMARK    3  A    between atoms: N_8  and  C_9 
REMARK    4  A    between atoms: C_14  and  C_15 
ROOT
HETATM    1  C   UNL     1     -42.221  54.883 -53.893  1.00  0.00     0.259 C 
HETATM    2  N   UNL     1     -41.605  55.595 -54.904  1.00  0.00    -0.320 N 
HETATM    3  O   UNL     1     -43.388  55.006 -53.537  1.00  0.00    -0.267 OA
HETATM    4  H   UNL     1     -40.591  55.554 -54.939  1.00  0.00     0.169 HD
ENDROOT
BRANCH   2   5
HETATM    5  C   UNL     1     -42.214  56.492 -55.816  1.00  0.00     0.074 A 
HETATM    6  C   UNL     1     -42.232  57.885 -55.693  1.00  0.00     0.143 A 
HETATM    7  F   UNL     1     -41.748  58.514 -54.615  1.00  0.00    -0.204 F 
HETATM    8  C   UNL     1     -42.849  58.680 -56.656  1.00  0.00     0.045 A 
HETATM    9  C   UNL     1     -43.477  58.093 -57.756  1.00  0.00     0.017 A 
HETATM   10  C   UNL     1     -43.511  56.699 -57.895  1.00  0.00     0.000 A 
HETATM   11  C   UNL     1     -42.880  55.914 -56.911  1.00  0.00     0.047 A 
BRANCH  10  12
HETATM   12  C   UNL     1     -44.188  56.087 -59.038  1.00  0.00     0.085 A 
HETATM   13  O   UNL     1     -45.430  56.572 -59.340  1.00  0.00    -0.322 OA
HETATM   14  C   UNL     1     -45.882  55.889 -60.422  1.00  0.00     0.142 A 
HETATM   15  C   UNL     1     -44.953  54.963 -60.828  1.00  0.00     0.027 A 
HETATM   16  C   UNL     1     -43.859  55.090 -59.937  1.00  0.00     0.040 A 
ENDBRANCH  10  12
ENDBRANCH   2   5
BRANCH   1  17
HETATM   17  C   UNL     1     -41.371  53.915 -53.138  1.00  0.00     0.073 A 
HETATM   18  C   UNL     1     -40.625  52.906 -53.752  1.00  0.00     0.165 A 
HETATM   19  C   UNL     1     -39.829  52.027 -53.003  1.00  0.00     0.107 A 
HETATM   20  F   UNL     1     -40.647  52.772 -55.090  1.00  0.00    -0.202 F 
HETATM   21  C   UNL     1     -39.796  52.154 -51.612  1.00  0.00     0.040 A 
HETATM   22  C   UNL     1     -40.538  53.156 -50.983  1.00  0.00     0.004 A 
HETATM   23  C   UNL     1     -41.316  54.033 -51.740  1.00  0.00     0.020 A 
BRANCH  19  24
HETATM   24  O   UNL     1     -39.141  51.089 -53.727  1.00  0.00    -0.353 OA
HETATM   25  C   UNL     1     -39.758  49.819 -53.895  1.00  0.00     0.210 C 
ENDBRANCH  19  24
ENDBRANCH   1  17
TORSDOF 4
ENDMDL
MODEL 4
REMARK VINA RESULT:      -7.8      2.167      8.002
REMARK  4 active torsions:
REMARK  status: ('A' for Active; 'I' for Inactive)
REMARK    1  A    between atoms: O_2  and  C_3 
REMARK    2  A    between atoms: C_6  and  C_7 
REMARK       I    between atoms: C_7  and  N_8 
REMARK    3  A    between atoms: N_8  and  C_9 
REMARK    4  A    between atoms: C_14  and  C_15 
ROOT
HETATM    1  C   UNL     1     -40.684  53.446 -54.502  1.00  0.00     0.259 C 
HETATM    2  N   UNL     1     -42.038  53.718 -54.548  1.00  0.00    -0.320 N 
HETATM    3  O   UNL     1     -39.791  54.180 -54.911  1.00  0.00    -0.267 OA
HETATM    4  H   UNL     1     -42.667  52.937 -54.386  1.00  0.00     0.169 HD
ENDROOT
BRANCH   2   5
HETATM    5  C   UNL     1     -42.656  54.933 -54.936  1.00  0.00     0.074 A 
HETATM    6  C   UNL     1     -43.423  55.753 -54.103  1.00  0.00     0.143 A 
HETATM    7  F   UNL     1     -43.740  55.405 -52.850  1.00  0.00    -0.204 F 
HETATM    8  C   UNL     1     -43.977  56.939 -54.581  1.00  0.00     0.045 A 
HETATM    9  C   UNL     1     -43.788  57.318 -55.911  1.00  0.00     0.017 A 
HETATM   10  C   UNL     1     -43.056  56.504 -56.784  1.00  0.00     0.000 A 
HETATM   11  C   UNL     1     -42.503  55.310 -56.281  1.00  0.00     0.047 A 
BRANCH  10  12
HETATM   12  C   UNL     1     -42.877  56.895 -58.183  1.00  0.00     0.085 A 
HETATM   13  O   UNL     1     -42.064  57.970 -58.414  1.00  0.00    -0.322 OA
HETATM   14  C   UNL     1     -42.022  58.167 -59.756  1.00  0.00     0.142 A 
HETATM   15  C   UNL     1     -42.797  57.236 -60.403  1.00  0.00     0.027 A 
HETATM   16  C   UNL     1     -43.349  56.415 -59.390  1.00  0.00     0.040 A 
ENDBRANCH  10  12
ENDBRANCH   2   5
BRANCH   1  17
HETATM   17  C   UNL     1     -40.284  52.117 -53.950  1.00  0.00     0.073 A 
HETATM   18  C   UNL     1     -39.921  51.918 -52.616  1.00  0.00     0.165 A 
HETATM   19  C   UNL     1     -39.564  50.649 -52.138  1.00  0.00     0.107 A 
HETATM   20  F   UNL     1     -39.924  52.952 -51.755  1.00  0.00    -0.202 F 
HETATM   21  C   UNL     1     -39.557  49.566 -53.020  1.00  0.00     0.040 A 
HETATM   22  C   UNL     1     -39.915  49.749 -54.357  1.00  0.00     0.004 A 
HETATM   23  C   UNL     1     -40.280  51.014 -54.818  1.00  0.00     0.020 A 
BRANCH  19  24
HETATM   24  O   UNL     1     -39.238  50.588 -50.808  1.00  0.00    -0.353 OA
HETATM   25  C   UNL     1     -40.302  50.367 -49.891  1.00  0.00     0.210 C 
ENDBRANCH  19  24
ENDBRANCH   1  17
TORSDOF 4
ENDMDL
MODEL 5
REMARK VINA RESULT:      -7.8      1.942      7.916
REMARK  4 active torsions:
REMARK  status: ('A' for Active; 'I' for Inactive)
REMARK    1  A    between atoms: O_2  and  C_3 
REMARK    2  A    between atoms: C_6  and  C_7 
REMARK       I    between atoms: C_7  and  N_8 
REMARK    3  A    between atoms: N_8  and  C_9 
REMARK    4  A    between atoms: C_14  and  C_15 
ROOT
HETATM    1  C   UNL     1     -42.271  54.713 -54.337  1.00  0.00     0.259 C 
HETATM    2  N   UNL     1     -41.696  55.571 -55.255  1.00  0.00    -0.320 N 
HETATM    3  O   UNL     1     -43.456  54.687 -54.023  1.00  0.00    -0.267 OA
HETATM    4  H   UNL     1     -40.682  55.634 -55.248  1.00  0.00     0.169 HD
ENDROOT
BRANCH   2   5
HETATM    5  C   UNL     1     -42.361  56.481 -56.112  1.00  0.00     0.074 A 
HETATM    6  C   UNL     1     -42.431  57.865 -55.927  1.00  0.00     0.143 A 
HETATM    7  F   UNL     1     -41.946  58.466 -54.834  1.00  0.00    -0.204 F 
HETATM    8  C   UNL     1     -43.102  58.675 -56.841  1.00  0.00     0.045 A 
HETATM    9  C   UNL     1     -43.733  58.112 -57.951  1.00  0.00     0.017 A 
HETATM   10  C   UNL     1     -43.715  56.725 -58.150  1.00  0.00     0.000 A 
HETATM   11  C   UNL     1     -43.031  55.924 -57.216  1.00  0.00     0.047 A 
BRANCH  10  12
HETATM   12  C   UNL     1     -44.395  56.136 -59.304  1.00  0.00     0.085 A 
HETATM   13  O   UNL     1     -45.625  56.647 -59.612  1.00  0.00    -0.322 OA
HETATM   14  C   UNL     1     -46.082  55.983 -60.703  1.00  0.00     0.142 A 
HETATM   15  C   UNL     1     -45.167  55.043 -61.109  1.00  0.00     0.027 A 
HETATM   16  C   UNL     1     -44.079  55.140 -60.209  1.00  0.00     0.040 A 
ENDBRANCH  10  12
ENDBRANCH   2   5
BRANCH   1  17
HETATM   17  C   UNL     1     -41.352  53.770 -53.630  1.00  0.00     0.073 A 
HETATM   18  C   UNL     1     -40.849  54.004 -52.348  1.00  0.00     0.165 A 
HETATM   19  C   UNL     1     -39.999  53.084 -51.718  1.00  0.00     0.107 A 
HETATM   20  F   UNL     1     -41.190  55.124 -51.685  1.00  0.00    -0.202 F 
HETATM   21  C   UNL     1     -39.636  51.917 -52.394  1.00  0.00     0.040 A 
HETATM   22  C   UNL     1     -40.129  51.670 -53.676  1.00  0.00     0.004 A 
HETATM   23  C   UNL     1     -40.984  52.586 -54.289  1.00  0.00     0.020 A 
BRANCH  19  24
HETATM   24  O   UNL     1     -39.584  53.430 -50.458  1.00  0.00    -0.353 OA
HETATM   25  C   UNL     1     -40.475  53.155 -49.385  1.00  0.00     0.210 C 
ENDBRANCH  19  24
ENDBRANCH   1  17
TORSDOF 4
ENDMDL
MODEL 6
REMARK VINA RESULT:      -7.6      2.070      7.715
REMARK  4 active torsions:
REMARK  status: ('A' for Active; 'I' for Inactive)
REMARK    1  A    between atoms: O_2  and  C_3 
REMARK    2  A    between atoms: C_6  and  C_7 
REMARK       I    between atoms: C_7  and  N_8 
REMARK    3  A    between atoms: N_8  and  C_9 
REMARK    4  A    between atoms: C_14  and  C_15 
ROOT
HETATM    1  C   UNL     1     -41.313  55.230 -53.598  1.00  0.00     0.259 C 
HETATM    2  N   UNL     1     -42.570  55.125 -54.164  1.00  0.00    -0.320 N 
HETATM    3  O   UNL     1     -40.601  56.228 -53.610  1.00  0.00    -0.267 OA
HETATM    4  H   UNL     1     -42.943  54.188 -54.277  1.00  0.00     0.169 HD
ENDROOT
BRANCH   2   5
HETATM    5  C   UNL     1     -43.341  56.166 -54.736  1.00  0.00     0.074 A 
HETATM    6  C   UNL     1     -44.219  57.002 -54.038  1.00  0.00     0.143 A 
HETATM    7  F   UNL     1     -44.497  56.824 -52.740  1.00  0.00    -0.204 F 
HETATM    8  C   UNL     1     -44.922  58.009 -54.695  1.00  0.00     0.045 A 
HETATM    9  C   UNL     1     -44.774  58.188 -56.072  1.00  0.00     0.017 A 
HETATM   10  C   UNL     1     -43.932  57.347 -56.810  1.00  0.00     0.000 A 
HETATM   11  C   UNL     1     -43.228  56.336 -56.127  1.00  0.00     0.047 A 
BRANCH  10  12
HETATM   12  C   UNL     1     -43.794  57.525 -58.256  1.00  0.00     0.085 A 
HETATM   13  O   UNL     1     -44.623  56.774 -59.043  1.00  0.00    -0.322 OA
HETATM   14  C   UNL     1     -44.350  57.083 -60.335  1.00  0.00     0.142 A 
HETATM   15  C   UNL     1     -43.352  58.025 -60.402  1.00  0.00     0.027 A 
HETATM   16  C   UNL     1     -42.993  58.311 -59.063  1.00  0.00     0.040 A 
ENDBRANCH  10  12
ENDBRANCH   2   5
BRANCH   1  17
HETATM   17  C   UNL     1     -40.758  53.997 -52.962  1.00  0.00     0.073 A 
HETATM   18  C   UNL     1     -40.216  52.935 -53.690  1.00  0.00     0.165 A 
HETATM   19  C   UNL     1     -39.694  51.802 -53.050  1.00  0.00     0.107 A 
HETATM   20  F   UNL     1     -40.172  52.992 -55.033  1.00  0.00    -0.202 F 
HETATM   21  C   UNL     1     -39.731  51.729 -51.655  1.00  0.00     0.040 A 
HETATM   22  C   UNL     1     -40.272  52.781 -50.914  1.00  0.00     0.004 A 
HETATM   23  C   UNL     1     -40.777  53.909 -51.561  1.00  0.00     0.020 A 
BRANCH  19  24
HETATM   24  O   UNL     1     -39.184  50.837 -53.878  1.00  0.00    -0.353 OA
HETATM   25  C   UNL     1     -40.091  49.855 -54.364  1.00  0.00     0.210 C 
ENDBRANCH  19  24
ENDBRANCH   1  17
TORSDOF 4
ENDMDL
MODEL 7
REMARK VINA RESULT:      -7.5      2.394      3.077
REMARK  4 active torsions:
REMARK  status: ('A' for Active; 'I' for Inactive)
REMARK    1  A    between atoms: O_2  and  C_3 
REMARK    2  A    between atoms: C_6  and  C_7 
REMARK       I    between atoms: C_7  and  N_8 
REMARK    3  A    between atoms: N_8  and  C_9 
REMARK    4  A    between atoms: C_14  and  C_15 
ROOT
HETATM    1  C   UNL     1     -41.717  57.262 -53.606  1.00  0.00     0.259 C 
HETATM    2  N   UNL     1     -42.192  56.091 -53.047  1.00  0.00    -0.320 N 
HETATM    3  O   UNL     1     -40.601  57.739 -53.433  1.00  0.00    -0.267 OA
HETATM    4  H   UNL     1     -43.195  55.937 -53.092  1.00  0.00     0.169 HD
ENDROOT
BRANCH   2   5
HETATM    5  C   UNL     1     -41.459  55.143 -52.291  1.00  0.00     0.074 A 
HETATM    6  C   UNL     1     -41.020  55.320 -50.976  1.00  0.00     0.143 A 
HETATM    7  F   UNL     1     -41.167  56.479 -50.322  1.00  0.00    -0.204 F 
HETATM    8  C   UNL     1     -40.316  54.315 -50.316  1.00  0.00     0.045 A 
HETATM    9  C   UNL     1     -40.022  53.117 -50.968  1.00  0.00     0.017 A 
HETATM   10  C   UNL     1     -40.415  52.917 -52.298  1.00  0.00     0.000 A 
HETATM   11  C   UNL     1     -41.127  53.944 -52.947  1.00  0.00     0.047 A 
BRANCH  10  12
HETATM   12  C   UNL     1     -40.088  51.667 -52.985  1.00  0.00     0.085 A 
HETATM   13  O   UNL     1     -39.657  50.636 -52.198  1.00  0.00    -0.322 OA
HETATM   14  C   UNL     1     -39.414  49.576 -53.010  1.00  0.00     0.142 A 
HETATM   15  C   UNL     1     -39.679  49.904 -54.317  1.00  0.00     0.027 A 
HETATM   16  C   UNL     1     -40.114  51.252 -54.303  1.00  0.00     0.040 A 
ENDBRANCH  10  12
ENDBRANCH   2   5
BRANCH   1  17
HETATM   17  C   UNL     1     -42.672  58.037 -54.454  1.00  0.00     0.073 A 
HETATM   18  C   UNL     1     -42.816  57.835 -55.829  1.00  0.00     0.165 A 
HETATM   19  C   UNL     1     -43.735  58.578 -56.584  1.00  0.00     0.107 A 
HETATM   20  F   UNL     1     -42.077  56.900 -56.454  1.00  0.00    -0.202 F 
HETATM   21  C   UNL     1     -44.510  59.551 -55.949  1.00  0.00     0.040 A 
HETATM   22  C   UNL     1     -44.376  59.767 -54.576  1.00  0.00     0.004 A 
HETATM   23  C   UNL     1     -43.467  59.013 -53.833  1.00  0.00     0.020 A 
BRANCH  19  24
HETATM   24  O   UNL     1     -43.785  58.275 -57.920  1.00  0.00    -0.353 OA
HETATM   25  C   UNL     1     -44.991  57.704 -58.409  1.00  0.00     0.210 C 
ENDBRANCH  19  24
ENDBRANCH   1  17
TORSDOF 4
ENDMDL
MODEL 8
REMARK VINA RESULT:      -7.4      3.882      8.075
REMARK  4 active torsions:
REMARK  status: ('A' for Active; 'I' for Inactive)
REMARK    1  A    between atoms: O_2  and  C_3 
REMARK    2  A    between atoms: C_6  and  C_7 
REMARK       I    between atoms: C_7  and  N_8 
REMARK    3  A    between atoms: N_8  and  C_9 
REMARK    4  A    between atoms: C_14  and  C_15 
ROOT
HETATM    1  C   UNL     1     -41.365  55.120 -53.329  1.00  0.00     0.259 C 
HETATM    2  N   UNL     1     -42.692  55.337 -53.008  1.00  0.00    -0.320 N 
HETATM    3  O   UNL     1     -40.668  55.845 -54.030  1.00  0.00    -0.267 OA
HETATM    4  H   UNL     1     -43.201  54.551 -52.615  1.00  0.00     0.169 HD
ENDROOT
BRANCH   2   5
HETATM    5  C   UNL     1     -43.466  56.488 -53.296  1.00  0.00     0.074 A 
HETATM    6  C   UNL     1     -44.013  56.806 -54.543  1.00  0.00     0.143 A 
HETATM    7  F   UNL     1     -43.762  56.081 -55.640  1.00  0.00    -0.204 F 
HETATM    8  C   UNL     1     -44.774  57.960 -54.716  1.00  0.00     0.045 A 
HETATM    9  C   UNL     1     -44.988  58.829 -53.645  1.00  0.00     0.017 A 
HETATM   10  C   UNL     1     -44.426  58.562 -52.390  1.00  0.00     0.000 A 
HETATM   11  C   UNL     1     -43.661  57.390 -52.235  1.00  0.00     0.047 A 
BRANCH  10  12
HETATM   12  C   UNL     1     -44.636  59.486 -51.275  1.00  0.00     0.085 A 
HETATM   13  O   UNL     1     -43.555  60.230 -50.890  1.00  0.00    -0.322 OA
HETATM   14  C   UNL     1     -43.950  61.020 -49.860  1.00  0.00     0.142 A 
HETATM   15  C   UNL     1     -45.273  60.800 -49.566  1.00  0.00     0.027 A 
HETATM   16  C   UNL     1     -45.718  59.812 -50.478  1.00  0.00     0.040 A 
ENDBRANCH  10  12
ENDBRANCH   2   5
BRANCH   1  17
HETATM   17  C   UNL     1     -40.746  53.862 -52.813  1.00  0.00     0.073 A 
HETATM   18  C   UNL     1     -40.232  52.863 -53.643  1.00  0.00     0.165 A 
HETATM   19  C   UNL     1     -39.647  51.703 -53.115  1.00  0.00     0.107 A 
HETATM   20  F   UNL     1     -40.276  53.009 -54.980  1.00  0.00    -0.202 F 
HETATM   21  C   UNL     1     -39.593  51.538 -51.729  1.00  0.00     0.040 A 
HETATM   22  C   UNL     1     -40.105  52.526 -50.886  1.00  0.00     0.004 A 
HETATM   23  C   UNL     1     -40.673  53.681 -51.423  1.00  0.00     0.020 A 
BRANCH  19  24
HETATM   24  O   UNL     1     -39.174  50.807 -54.037  1.00  0.00    -0.353 OA
HETATM   25  C   UNL     1     -40.072  49.798 -54.480  1.00  0.00     0.210 C 
ENDBRANCH  19  24
ENDBRANCH   1  17
TORSDOF 4
ENDMDL
MODEL 9
REMARK VINA RESULT:      -7.4      3.165      4.005
REMARK  4 active torsions:
REMARK  status: ('A' for Active; 'I' for Inactive)
REMARK    1  A    between atoms: O_2  and  C_3 
REMARK    2  A    between atoms: C_6  and  C_7 
REMARK       I    between atoms: C_7  and  N_8 
REMARK    3  A    between atoms: N_8  and  C_9 
REMARK    4  A    between atoms: C_14  and  C_15 
ROOT
HETATM    1  C   UNL     1     -42.190  57.335 -52.600  1.00  0.00     0.259 C 
HETATM    2  N   UNL     1     -42.482  56.057 -52.162  1.00  0.00    -0.320 N 
HETATM    3  O   UNL     1     -41.109  57.902 -52.489  1.00  0.00    -0.267 OA
HETATM    4  H   UNL     1     -43.464  55.804 -52.115  1.00  0.00     0.169 HD
ENDROOT
BRANCH   2   5
HETATM    5  C   UNL     1     -41.576  55.104 -51.635  1.00  0.00     0.074 A 
HETATM    6  C   UNL     1     -40.927  55.198 -50.400  1.00  0.00     0.143 A 
HETATM    7  F   UNL     1     -41.026  56.282 -49.621  1.00  0.00    -0.204 F 
HETATM    8  C   UNL     1     -40.063  54.194 -49.968  1.00  0.00     0.045 A 
HETATM    9  C   UNL     1     -39.817  53.082 -50.774  1.00  0.00     0.017 A 
HETATM   10  C   UNL     1     -40.422  52.969 -52.033  1.00  0.00     0.000 A 
HETATM   11  C   UNL     1     -41.293  53.994 -52.451  1.00  0.00     0.047 A 
BRANCH  10  12
HETATM   12  C   UNL     1     -40.146  51.812 -52.884  1.00  0.00     0.085 A 
HETATM   13  O   UNL     1     -39.706  50.683 -52.251  1.00  0.00    -0.322 OA
HETATM   14  C   UNL     1     -39.516  49.730 -53.199  1.00  0.00     0.142 A 
HETATM   15  C   UNL     1     -39.824  50.224 -54.442  1.00  0.00     0.027 A 
HETATM   16  C   UNL     1     -40.231  51.566 -54.242  1.00  0.00     0.040 A 
ENDBRANCH  10  12
ENDBRANCH   2   5
BRANCH   1  17
HETATM   17  C   UNL     1     -43.311  58.106 -53.217  1.00  0.00     0.073 A 
HETATM   18  C   UNL     1     -43.856  57.802 -54.467  1.00  0.00     0.165 A 
HETATM   19  C   UNL     1     -44.917  58.546 -55.002  1.00  0.00     0.107 A 
HETATM   20  F   UNL     1     -43.374  56.766 -55.177  1.00  0.00    -0.202 F 
HETATM   21  C   UNL     1     -45.428  59.624 -54.276  1.00  0.00     0.040 A 
HETATM   22  C   UNL     1     -44.892  59.942 -53.026  1.00  0.00     0.004 A 
HETATM   23  C   UNL     1     -43.845  59.187 -52.499  1.00  0.00     0.020 A 
BRANCH  19  24
HETATM   24  O   UNL     1     -45.365  58.138 -56.231  1.00  0.00    -0.353 OA
HETATM   25  C   UNL     1     -45.960  59.124 -57.064  1.00  0.00     0.210 C 
ENDBRANCH  19  24
ENDBRANCH   1  17
TORSDOF 4
ENDMDL
MODEL 10
REMARK VINA RESULT:      -7.2     14.502     17.305
REMARK  4 active torsions:
REMARK  status: ('A' for Active; 'I' for Inactive)
REMARK    1  A    between atoms: O_2  and  C_3 
REMARK    2  A    between atoms: C_6  and  C_7 
REMARK       I    between atoms: C_7  and  N_8 
REMARK    3  A    between atoms: N_8  and  C_9 
REMARK    4  A    between atoms: C_14  and  C_15 
ROOT
HETATM    1  C   UNL     1     -36.914  40.922 -58.896  1.00  0.00     0.259 C 
HETATM    2  N   UNL     1     -36.833  39.569 -59.166  1.00  0.00    -0.320 N 
HETATM    3  O   UNL     1     -37.160  41.803 -59.712  1.00  0.00    -0.267 OA
HETATM    4  H   UNL     1     -36.404  38.986 -58.455  1.00  0.00     0.169 HD
ENDROOT
BRANCH   2   5
HETATM    5  C   UNL     1     -37.153  38.917 -60.383  1.00  0.00     0.074 A 
HETATM    6  C   UNL     1     -36.225  38.439 -61.313  1.00  0.00     0.143 A 
HETATM    7  F   UNL     1     -34.910  38.650 -61.186  1.00  0.00    -0.204 F 
HETATM    8  C   UNL     1     -36.646  37.797 -62.476  1.00  0.00     0.045 A 
HETATM    9  C   UNL     1     -38.007  37.637 -62.740  1.00  0.00     0.017 A 
HETATM   10  C   UNL     1     -38.966  38.135 -61.848  1.00  0.00     0.000 A 
HETATM   11  C   UNL     1     -38.521  38.780 -60.678  1.00  0.00     0.047 A 
BRANCH  10  12
HETATM   12  C   UNL     1     -40.392  37.984 -62.137  1.00  0.00     0.085 A 
HETATM   13  O   UNL     1     -40.737  37.874 -63.456  1.00  0.00    -0.322 OA
HETATM   14  C   UNL     1     -42.086  37.737 -63.514  1.00  0.00     0.142 A 
HETATM   15  C   UNL     1     -42.625  37.758 -62.252  1.00  0.00     0.027 A 
HETATM   16  C   UNL     1     -41.535  37.917 -61.362  1.00  0.00     0.040 A 
ENDBRANCH  10  12
ENDBRANCH   2   5
BRANCH   1  17
HETATM   17  C   UNL     1     -36.624  41.346 -57.493  1.00  0.00     0.073 A 
HETATM   18  C   UNL     1     -37.481  41.087 -56.420  1.00  0.00     0.165 A 
HETATM   19  C   UNL     1     -37.161  41.493 -55.117  1.00  0.00     0.107 A 
HETATM   20  F   UNL     1     -38.632  40.421 -56.623  1.00  0.00    -0.202 F 
HETATM   21  C   UNL     1     -35.969  42.184 -54.891  1.00  0.00     0.040 A 
HETATM   22  C   UNL     1     -35.104  42.453 -55.953  1.00  0.00     0.004 A 
HETATM   23  C   UNL     1     -35.426  42.033 -57.244  1.00  0.00     0.020 A 
BRANCH  19  24
HETATM   24  O   UNL     1     -38.082  41.168 -54.155  1.00  0.00    -0.353 OA
HETATM   25  C   UNL     1     -37.585  40.881 -52.854  1.00  0.00     0.210 C 
ENDBRANCH  19  24
ENDBRANCH   1  17
TORSDOF 4
ENDMDL
