MODEL 1
REMARK VINA RESULT:      -8.6      0.000      0.000
REMARK  6 active torsions:
REMARK  status: ('A' for Active; 'I' for Inactive)
REMARK       I    between atoms: N_2  and  C_3 
REMARK    1  A    between atoms: N_2  and  C_15 
REMARK       I    between atoms: C_3  and  N_4 
REMARK    2  A    between atoms: N_4  and  C_5 
REMARK    3  A    between atoms: C_15  and  C_16 
REMARK    4  A    between atoms: C_16  and  C_17 
REMARK    5  A    between atoms: C_17  and  C_18 
REMARK    6  A    between atoms: C_22  and  C_23 
ROOT
HETATM    1  C   UNL     1     -43.663  59.694 -52.293  1.00  0.00     0.127 C 
ENDROOT
BRANCH   1   2
HETATM    2  N   UNL     1     -42.237  59.710 -52.640  1.00  0.00    -0.338 N 
HETATM    3  C   UNL     1     -41.310  59.643 -51.515  1.00  0.00     0.154 C 
HETATM    4  C   UNL     1     -41.722  59.338 -53.881  1.00  0.00     0.322 C 
HETATM    5  N   UNL     1     -42.576  59.517 -54.941  1.00  0.00    -0.309 N 
HETATM    6  O   UNL     1     -40.610  58.823 -53.962  1.00  0.00    -0.247 OA
HETATM    7  H   UNL     1     -43.336  60.160 -54.793  1.00  0.00     0.170 HD
BRANCH   5   8
HETATM    8  C   UNL     1     -42.428  59.040 -56.263  1.00  0.00     0.036 A 
HETATM    9  C   UNL     1     -42.797  57.756 -56.675  1.00  0.00     0.039 A 
HETATM   10  C   UNL     1     -42.620  57.404 -58.006  1.00  0.00    -0.024 A 
HETATM   11  C   UNL     1     -42.112  58.301 -58.930  1.00  0.00    -0.026 A 
HETATM   12  C   UNL     1     -42.926  56.119 -58.681  1.00  0.00     0.207 C 
HETATM   13  C   UNL     1     -42.080  57.658 -60.267  1.00  0.00     0.207 C 
HETATM   14  C   UNL     1     -41.752  59.581 -58.555  1.00  0.00     0.012 A 
HETATM   15  O   UNL     1     -42.363  56.263 -60.008  1.00  0.00    -0.382 OA
HETATM   16  C   UNL     1     -41.903  59.943 -57.211  1.00  0.00     0.030 A 
ENDBRANCH   5   8
ENDBRANCH   1   2
BRANCH   1  17
HETATM   17  C   UNL     1     -44.179  58.315 -51.851  1.00  0.00     0.026 C 
BRANCH  17  18
HETATM   18  C   UNL     1     -44.785  57.485 -52.988  1.00  0.00     0.060 C 
BRANCH  18  19
HETATM   19  C   UNL     1     -43.987  56.279 -53.346  1.00  0.00     0.030 A 
HETATM   20  N   UNL     1     -44.293  55.434 -54.379  1.00  0.00    -0.282 N 
HETATM   21  H   UNL     1     -45.053  55.497 -55.053  1.00  0.00     0.189 HD
HETATM   22  N   UNL     1     -43.461  54.386 -54.476  1.00  0.00    -0.174 NA
HETATM   23  C   UNL     1     -42.595  54.528 -53.461  1.00  0.00     0.089 A 
HETATM   24  C   UNL     1     -42.881  55.722 -52.743  1.00  0.00     0.060 A 
BRANCH  23  25
HETATM   25  C   UNL     1     -41.550  53.531 -53.197  1.00  0.00    -0.003 A 
HETATM   26  C   UNL     1     -41.197  52.575 -54.157  1.00  0.00     0.056 A 
HETATM   27  C   UNL     1     -40.186  51.656 -53.888  1.00  0.00     0.117 A 
HETATM   28  F   UNL     1     -39.858  50.751 -54.820  1.00  0.00    -0.206 F 
HETATM   29  C   UNL     1     -39.512  51.658 -52.673  1.00  0.00     0.042 A 
HETATM   30  C   UNL     1     -39.852  52.598 -51.707  1.00  0.00     0.004 A 
HETATM   31  C   UNL     1     -40.865  53.528 -51.968  1.00  0.00     0.014 A 
ENDBRANCH  23  25
ENDBRANCH  18  19
ENDBRANCH  17  18
ENDBRANCH   1  17
TORSDOF 6
ENDMDL
MODEL 2
REMARK VINA RESULT:      -8.5      1.348      1.826
REMARK  6 active torsions:
REMARK  status: ('A' for Active; 'I' for Inactive)
REMARK       I    between atoms: N_2  and  C_3 
REMARK    1  A    between atoms: N_2  and  C_15 
REMARK       I    between atoms: C_3  and  N_4 
REMARK    2  A    between atoms: N_4  and  C_5 
REMARK    3  A    between atoms: C_15  and  C_16 
REMARK    4  A    between atoms: C_16  and  C_17 
REMARK    5  A    between atoms: C_17  and  C_18 
REMARK    6  A    between atoms: C_22  and  C_23 
ROOT
HETATM    1  C   UNL     1     -43.415  58.761 -51.689  1.00  0.00     0.127 C 
ENDROOT
BRANCH   1   2
HETATM    2  N   UNL     1     -42.145  59.340 -52.142  1.00  0.00    -0.338 N 
HETATM    3  C   UNL     1     -41.143  59.561 -51.104  1.00  0.00     0.154 C 
HETATM    4  C   UNL     1     -41.665  59.269 -53.450  1.00  0.00     0.322 C 
HETATM    5  N   UNL     1     -42.634  59.174 -54.418  1.00  0.00    -0.309 N 
HETATM    6  O   UNL     1     -40.457  59.221 -53.667  1.00  0.00    -0.247 OA
HETATM    7  H   UNL     1     -43.558  59.470 -54.149  1.00  0.00     0.170 HD
BRANCH   5   8
HETATM    8  C   UNL     1     -42.463  58.872 -55.788  1.00  0.00     0.036 A 
HETATM    9  C   UNL     1     -42.767  57.631 -56.356  1.00  0.00     0.039 A 
HETATM   10  C   UNL     1     -42.573  57.455 -57.719  1.00  0.00    -0.024 A 
HETATM   11  C   UNL     1     -42.114  58.484 -58.523  1.00  0.00    -0.026 A 
HETATM   12  C   UNL     1     -42.814  56.249 -58.549  1.00  0.00     0.207 C 
HETATM   13  C   UNL     1     -42.051  58.013 -59.929  1.00  0.00     0.207 C 
HETATM   14  C   UNL     1     -41.820  59.725 -57.992  1.00  0.00     0.012 A 
HETATM   15  O   UNL     1     -42.261  56.584 -59.845  1.00  0.00    -0.382 OA
HETATM   16  C   UNL     1     -41.988  59.911 -56.615  1.00  0.00     0.030 A 
ENDBRANCH   5   8
ENDBRANCH   1   2
BRANCH   1  17
HETATM   17  C   UNL     1     -43.334  57.261 -51.365  1.00  0.00     0.026 C 
BRANCH  17  18
HETATM   18  C   UNL     1     -43.571  56.350 -52.575  1.00  0.00     0.060 C 
BRANCH  18  19
HETATM   19  C   UNL     1     -42.458  55.399 -52.843  1.00  0.00     0.030 A 
HETATM   20  N   UNL     1     -41.325  55.718 -53.542  1.00  0.00    -0.282 N 
HETATM   21  H   UNL     1     -41.054  56.612 -53.947  1.00  0.00     0.189 HD
HETATM   22  N   UNL     1     -40.487  54.683 -53.703  1.00  0.00    -0.174 NA
HETATM   23  C   UNL     1     -41.096  53.642 -53.116  1.00  0.00     0.089 A 
HETATM   24  C   UNL     1     -42.328  54.060 -52.543  1.00  0.00     0.060 A 
BRANCH  23  25
HETATM   25  C   UNL     1     -40.506  52.297 -53.134  1.00  0.00    -0.003 A 
HETATM   26  C   UNL     1     -39.984  51.715 -51.972  1.00  0.00     0.056 A 
HETATM   27  C   UNL     1     -39.452  50.429 -52.014  1.00  0.00     0.117 A 
HETATM   28  F   UNL     1     -38.961  49.886 -50.892  1.00  0.00    -0.206 F 
HETATM   29  C   UNL     1     -39.421  49.698 -53.194  1.00  0.00     0.042 A 
HETATM   30  C   UNL     1     -39.933  50.261 -54.358  1.00  0.00     0.004 A 
HETATM   31  C   UNL     1     -40.471  51.552 -54.327  1.00  0.00     0.014 A 
ENDBRANCH  23  25
ENDBRANCH  18  19
ENDBRANCH  17  18
ENDBRANCH   1  17
TORSDOF 6
ENDMDL
MODEL 3
REMARK VINA RESULT:      -8.2      1.507      2.151
REMARK  6 active torsions:
REMARK  status: ('A' for Active; 'I' for Inactive)
REMARK       I    between atoms: N_2  and  C_3 
REMARK    1  A    between atoms: N_2  and  C_15 
REMARK       I    between atoms: C_3  and  N_4 
REMARK    2  A    between atoms: N_4  and  C_5 
REMARK    3  A    between atoms: C_15  and  C_16 
REMARK    4  A    between atoms: C_16  and  C_17 
REMARK    5  A    between atoms: C_17  and  C_18 
REMARK    6  A    between atoms: C_22  and  C_23 
ROOT
HETATM    1  C   UNL     1     -43.867  59.753 -52.283  1.00  0.00     0.127 C 
ENDROOT
BRANCH   1   2
HETATM    2  N   UNL     1     -42.463  59.576 -52.669  1.00  0.00    -0.338 N 
HETATM    3  C   UNL     1     -41.490  59.682 -51.586  1.00  0.00     0.154 C 
HETATM    4  C   UNL     1     -42.036  58.899 -53.811  1.00  0.00     0.322 C 
HETATM    5  N   UNL     1     -42.924  58.909 -54.857  1.00  0.00    -0.309 N 
HETATM    6  O   UNL     1     -40.970  58.289 -53.808  1.00  0.00    -0.247 OA
HETATM    7  H   UNL     1     -43.627  59.630 -54.833  1.00  0.00     0.170 HD
BRANCH   5   8
HETATM    8  C   UNL     1     -42.875  58.142 -56.043  1.00  0.00     0.036 A 
HETATM    9  C   UNL     1     -42.470  58.647 -57.282  1.00  0.00     0.039 A 
HETATM   10  C   UNL     1     -42.446  57.794 -58.376  1.00  0.00    -0.024 A 
HETATM   11  C   UNL     1     -42.787  56.458 -58.259  1.00  0.00    -0.026 A 
HETATM   12  C   UNL     1     -42.062  58.084 -59.780  1.00  0.00     0.207 C 
HETATM   13  C   UNL     1     -42.624  55.795 -59.577  1.00  0.00     0.207 C 
HETATM   14  C   UNL     1     -43.178  55.927 -57.044  1.00  0.00     0.012 A 
HETATM   15  O   UNL     1     -42.411  56.881 -60.508  1.00  0.00    -0.382 OA
HETATM   16  C   UNL     1     -43.229  56.781 -55.936  1.00  0.00     0.030 A 
ENDBRANCH   5   8
ENDBRANCH   1   2
BRANCH   1  17
HETATM   17  C   UNL     1     -44.264  58.987 -51.011  1.00  0.00     0.026 C 
BRANCH  17  18
HETATM   18  C   UNL     1     -44.708  57.542 -51.270  1.00  0.00     0.060 C 
BRANCH  18  19
HETATM   19  C   UNL     1     -43.584  56.567 -51.331  1.00  0.00     0.030 A 
HETATM   20  N   UNL     1     -42.565  56.510 -50.419  1.00  0.00    -0.282 N 
HETATM   21  H   UNL     1     -42.426  57.070 -49.581  1.00  0.00     0.189 HD
HETATM   22  N   UNL     1     -41.638  55.586 -50.711  1.00  0.00    -0.174 NA
HETATM   23  C   UNL     1     -42.043  55.033 -51.864  1.00  0.00     0.089 A 
HETATM   24  C   UNL     1     -43.276  55.609 -52.272  1.00  0.00     0.060 A 
BRANCH  23  25
HETATM   25  C   UNL     1     -41.246  54.002 -52.543  1.00  0.00    -0.003 A 
HETATM   26  C   UNL     1     -40.579  53.005 -51.822  1.00  0.00     0.056 A 
HETATM   27  C   UNL     1     -39.850  52.027 -52.494  1.00  0.00     0.117 A 
HETATM   28  F   UNL     1     -39.222  51.077 -51.788  1.00  0.00    -0.206 F 
HETATM   29  C   UNL     1     -39.761  52.016 -53.880  1.00  0.00     0.042 A 
HETATM   30  C   UNL     1     -40.416  53.001 -54.612  1.00  0.00     0.004 A 
HETATM   31  C   UNL     1     -41.152  53.988 -53.947  1.00  0.00     0.014 A 
ENDBRANCH  23  25
ENDBRANCH  18  19
ENDBRANCH  17  18
ENDBRANCH   1  17
TORSDOF 6
ENDMDL
MODEL 4
REMARK VINA RESULT:      -8.2      2.578      5.175
REMARK  6 active torsions:
REMARK  status: ('A' for Active; 'I' for Inactive)
REMARK       I    between atoms: N_2  and  C_3 
REMARK    1  A    between atoms: N_2  and  C_15 
REMARK       I    between atoms: C_3  and  N_4 
REMARK    2  A    between atoms: N_4  and  C_5 
REMARK    3  A    between atoms: C_15  and  C_16 
REMARK    4  A    between atoms: C_16  and  C_17 
REMARK    5  A    between atoms: C_17  and  C_18 
REMARK    6  A    between atoms: C_22  and  C_23 
ROOT
HETATM    1  C   UNL     1     -43.801  58.619 -56.293  1.00  0.00     0.127 C 
ENDROOT
BRANCH   1   2
HETATM    2  N   UNL     1     -44.122  59.421 -55.107  1.00  0.00    -0.338 N 
HETATM    3  C   UNL     1     -45.195  60.396 -55.273  1.00  0.00     0.154 C 
HETATM    4  C   UNL     1     -43.838  59.042 -53.796  1.00  0.00     0.322 C 
HETATM    5  N   UNL     1     -42.754  58.212 -53.654  1.00  0.00    -0.309 N 
HETATM    6  O   UNL     1     -44.575  59.386 -52.876  1.00  0.00    -0.247 OA
HETATM    7  H   UNL     1     -42.100  58.205 -54.420  1.00  0.00     0.170 HD
BRANCH   5   8
HETATM    8  C   UNL     1     -42.355  57.495 -52.503  1.00  0.00     0.036 A 
HETATM    9  C   UNL     1     -42.885  56.255 -52.134  1.00  0.00     0.039 A 
HETATM   10  C   UNL     1     -42.403  55.637 -50.990  1.00  0.00    -0.024 A 
HETATM   11  C   UNL     1     -41.399  56.207 -50.227  1.00  0.00    -0.026 A 
HETATM   12  C   UNL     1     -42.799  54.337 -50.392  1.00  0.00     0.207 C 
HETATM   13  C   UNL     1     -41.067  55.300 -49.100  1.00  0.00     0.207 C 
HETATM   14  C   UNL     1     -40.846  57.425 -50.575  1.00  0.00     0.012 A 
HETATM   15  O   UNL     1     -42.109  54.297 -49.119  1.00  0.00    -0.382 OA
HETATM   16  C   UNL     1     -41.338  58.072 -51.714  1.00  0.00     0.030 A 
ENDBRANCH   5   8
ENDBRANCH   1   2
BRANCH   1  17
HETATM   17  C   UNL     1     -44.156  57.130 -56.152  1.00  0.00     0.026 C 
BRANCH  17  18
HETATM   18  C   UNL     1     -43.162  56.187 -56.840  1.00  0.00     0.060 C 
BRANCH  18  19
HETATM   19  C   UNL     1     -42.206  55.531 -55.906  1.00  0.00     0.030 A 
HETATM   20  N   UNL     1     -41.014  56.080 -55.516  1.00  0.00    -0.282 N 
HETATM   21  H   UNL     1     -40.617  56.985 -55.760  1.00  0.00     0.189 HD
HETATM   22  N   UNL     1     -40.296  55.282 -54.712  1.00  0.00    -0.174 NA
HETATM   23  C   UNL     1     -41.022  54.161 -54.588  1.00  0.00     0.089 A 
HETATM   24  C   UNL     1     -42.242  54.291 -55.307  1.00  0.00     0.060 A 
BRANCH  23  25
HETATM   25  C   UNL     1     -40.534  53.010 -53.818  1.00  0.00    -0.003 A 
HETATM   26  C   UNL     1     -40.259  51.784 -54.437  1.00  0.00     0.056 A 
HETATM   27  C   UNL     1     -39.775  50.716 -53.685  1.00  0.00     0.117 A 
HETATM   28  F   UNL     1     -39.513  49.552 -54.294  1.00  0.00    -0.206 F 
HETATM   29  C   UNL     1     -39.558  50.833 -52.318  1.00  0.00     0.042 A 
HETATM   30  C   UNL     1     -39.828  52.043 -51.687  1.00  0.00     0.004 A 
HETATM   31  C   UNL     1     -40.314  53.123 -52.433  1.00  0.00     0.014 A 
ENDBRANCH  23  25
ENDBRANCH  18  19
ENDBRANCH  17  18
ENDBRANCH   1  17
TORSDOF 6
ENDMDL
MODEL 5
REMARK VINA RESULT:      -8.1      2.531      5.457
REMARK  6 active torsions:
REMARK  status: ('A' for Active; 'I' for Inactive)
REMARK       I    between atoms: N_2  and  C_3 
REMARK    1  A    between atoms: N_2  and  C_15 
REMARK       I    between atoms: C_3  and  N_4 
REMARK    2  A    between atoms: N_4  and  C_5 
REMARK    3  A    between atoms: C_15  and  C_16 
REMARK    4  A    between atoms: C_16  and  C_17 
REMARK    5  A    between atoms: C_17  and  C_18 
REMARK    6  A    between atoms: C_22  and  C_23 
ROOT
HETATM    1  C   UNL     1     -43.529  57.239 -57.806  1.00  0.00     0.127 C 
ENDROOT
BRANCH   1   2
HETATM    2  N   UNL     1     -42.501  58.285 -57.768  1.00  0.00    -0.338 N 
HETATM    3  C   UNL     1     -42.282  59.004 -59.020  1.00  0.00     0.154 C 
HETATM    4  C   UNL     1     -42.071  58.930 -56.609  1.00  0.00     0.322 C 
HETATM    5  N   UNL     1     -42.182  58.190 -55.459  1.00  0.00    -0.309 N 
HETATM    6  O   UNL     1     -41.698  60.100 -56.651  1.00  0.00    -0.247 OA
HETATM    7  H   UNL     1     -42.257  57.193 -55.580  1.00  0.00     0.170 HD
BRANCH   5   8
HETATM    8  C   UNL     1     -42.039  58.634 -54.125  1.00  0.00     0.036 A 
HETATM    9  C   UNL     1     -40.829  58.623 -53.425  1.00  0.00     0.039 A 
HETATM   10  C   UNL     1     -40.806  59.101 -52.123  1.00  0.00    -0.024 A 
HETATM   11  C   UNL     1     -41.943  59.608 -51.518  1.00  0.00    -0.026 A 
HETATM   12  C   UNL     1     -39.663  59.192 -51.181  1.00  0.00     0.207 C 
HETATM   13  C   UNL     1     -41.601  60.079 -50.153  1.00  0.00     0.207 C 
HETATM   14  C   UNL     1     -43.150  59.644 -52.190  1.00  0.00     0.012 A 
HETATM   15  O   UNL     1     -40.261  59.585 -49.921  1.00  0.00    -0.382 OA
HETATM   16  C   UNL     1     -43.194  59.144 -53.496  1.00  0.00     0.030 A 
ENDBRANCH   5   8
ENDBRANCH   1   2
BRANCH   1  17
HETATM   17  C   UNL     1     -42.967  55.822 -58.006  1.00  0.00     0.026 C 
BRANCH  17  18
HETATM   18  C   UNL     1     -43.329  54.846 -56.881  1.00  0.00     0.060 C 
BRANCH  18  19
HETATM   19  C   UNL     1     -42.372  54.857 -55.741  1.00  0.00     0.030 A 
HETATM   20  N   UNL     1     -41.010  54.871 -55.880  1.00  0.00    -0.282 N 
HETATM   21  H   UNL     1     -40.455  54.904 -56.732  1.00  0.00     0.189 HD
HETATM   22  N   UNL     1     -40.353  54.824 -54.711  1.00  0.00    -0.174 NA
HETATM   23  C   UNL     1     -41.309  54.750 -53.773  1.00  0.00     0.089 A 
HETATM   24  C   UNL     1     -42.592  54.792 -54.382  1.00  0.00     0.060 A 
BRANCH  23  25
HETATM   25  C   UNL     1     -40.978  54.624 -52.347  1.00  0.00    -0.003 A 
HETATM   26  C   UNL     1     -41.293  55.637 -51.434  1.00  0.00     0.056 A 
HETATM   27  C   UNL     1     -40.988  55.480 -50.084  1.00  0.00     0.117 A 
HETATM   28  F   UNL     1     -41.302  56.458 -49.223  1.00  0.00    -0.206 F 
HETATM   29  C   UNL     1     -40.367  54.331 -49.612  1.00  0.00     0.042 A 
HETATM   30  C   UNL     1     -40.044  53.315 -50.506  1.00  0.00     0.004 A 
HETATM   31  C   UNL     1     -40.347  53.462 -51.864  1.00  0.00     0.014 A 
ENDBRANCH  23  25
ENDBRANCH  18  19
ENDBRANCH  17  18
ENDBRANCH   1  17
TORSDOF 6
ENDMDL
MODEL 6
REMARK VINA RESULT:      -8.1      3.413      7.085
REMARK  6 active torsions:
REMARK  status: ('A' for Active; 'I' for Inactive)
REMARK       I    between atoms: N_2  and  C_3 
REMARK    1  A    between atoms: N_2  and  C_15 
REMARK       I    between atoms: C_3  and  N_4 
REMARK    2  A    between atoms: N_4  and  C_5 
REMARK    3  A    between atoms: C_15  and  C_16 
REMARK    4  A    between atoms: C_16  and  C_17 
REMARK    5  A    between atoms: C_17  and  C_18 
REMARK    6  A    between atoms: C_22  and  C_23 
ROOT
HETATM    1  C   UNL     1     -41.479  57.360 -51.143  1.00  0.00     0.127 C 
ENDROOT
BRANCH   1   2
HETATM    2  N   UNL     1     -42.518  56.331 -51.023  1.00  0.00    -0.338 N 
HETATM    3  C   UNL     1     -43.873  56.821 -50.792  1.00  0.00     0.154 C 
HETATM    4  C   UNL     1     -42.415  55.039 -51.539  1.00  0.00     0.322 C 
HETATM    5  N   UNL     1     -41.133  54.557 -51.642  1.00  0.00    -0.309 N 
HETATM    6  O   UNL     1     -43.416  54.445 -51.930  1.00  0.00    -0.247 OA
HETATM    7  H   UNL     1     -40.441  55.017 -51.073  1.00  0.00     0.170 HD
BRANCH   5   8
HETATM    8  C   UNL     1     -40.697  53.394 -52.316  1.00  0.00     0.036 A 
HETATM    9  C   UNL     1     -40.357  52.200 -51.672  1.00  0.00     0.039 A 
HETATM   10  C   UNL     1     -39.957  51.117 -52.442  1.00  0.00    -0.024 A 
HETATM   11  C   UNL     1     -39.913  51.188 -53.823  1.00  0.00    -0.026 A 
HETATM   12  C   UNL     1     -39.548  49.760 -52.003  1.00  0.00     0.207 C 
HETATM   13  C   UNL     1     -39.494  49.871 -54.366  1.00  0.00     0.207 C 
HETATM   14  C   UNL     1     -40.257  52.349 -54.487  1.00  0.00     0.012 A 
HETATM   15  O   UNL     1     -39.061  49.120 -53.208  1.00  0.00    -0.382 OA
HETATM   16  C   UNL     1     -40.640  53.458 -53.724  1.00  0.00     0.030 A 
ENDBRANCH   5   8
ENDBRANCH   1   2
BRANCH   1  17
HETATM   17  C   UNL     1     -41.657  58.284 -52.360  1.00  0.00     0.026 C 
BRANCH  17  18
HETATM   18  C   UNL     1     -40.973  57.773 -53.633  1.00  0.00     0.060 C 
BRANCH  18  19
HETATM   19  C   UNL     1     -41.918  57.248 -54.657  1.00  0.00     0.030 A 
HETATM   20  N   UNL     1     -42.805  56.229 -54.434  1.00  0.00    -0.282 N 
HETATM   21  H   UNL     1     -42.980  55.710 -53.577  1.00  0.00     0.189 HD
HETATM   22  N   UNL     1     -43.515  55.892 -55.521  1.00  0.00    -0.174 NA
HETATM   23  C   UNL     1     -43.066  56.693 -56.498  1.00  0.00     0.089 A 
HETATM   24  C   UNL     1     -42.076  57.576 -55.986  1.00  0.00     0.060 A 
BRANCH  23  25
HETATM   25  C   UNL     1     -43.568  56.584 -57.874  1.00  0.00    -0.003 A 
HETATM   26  C   UNL     1     -44.191  57.665 -58.510  1.00  0.00     0.056 A 
HETATM   27  C   UNL     1     -44.637  57.540 -59.823  1.00  0.00     0.117 A 
HETATM   28  F   UNL     1     -45.226  58.587 -60.418  1.00  0.00    -0.206 F 
HETATM   29  C   UNL     1     -44.483  56.354 -60.529  1.00  0.00     0.042 A 
HETATM   30  C   UNL     1     -43.870  55.269 -59.912  1.00  0.00     0.004 A 
HETATM   31  C   UNL     1     -43.417  55.384 -58.593  1.00  0.00     0.014 A 
ENDBRANCH  23  25
ENDBRANCH  18  19
ENDBRANCH  17  18
ENDBRANCH   1  17
TORSDOF 6
ENDMDL
MODEL 7
REMARK VINA RESULT:      -7.9      3.376      6.308
REMARK  6 active torsions:
REMARK  status: ('A' for Active; 'I' for Inactive)
REMARK       I    between atoms: N_2  and  C_3 
REMARK    1  A    between atoms: N_2  and  C_15 
REMARK       I    between atoms: C_3  and  N_4 
REMARK    2  A    between atoms: N_4  and  C_5 
REMARK    3  A    between atoms: C_15  and  C_16 
REMARK    4  A    between atoms: C_16  and  C_17 
REMARK    5  A    between atoms: C_17  and  C_18 
REMARK    6  A    between atoms: C_22  and  C_23 
ROOT
HETATM    1  C   UNL     1     -39.441  52.723 -51.340  1.00  0.00     0.127 C 
ENDROOT
BRANCH   1   2
HETATM    2  N   UNL     1     -39.780  52.257 -52.689  1.00  0.00    -0.338 N 
HETATM    3  C   UNL     1     -39.578  50.833 -52.937  1.00  0.00     0.154 C 
HETATM    4  C   UNL     1     -40.658  52.910 -53.554  1.00  0.00     0.322 C 
HETATM    5  N   UNL     1     -40.746  54.268 -53.374  1.00  0.00    -0.309 N 
HETATM    6  O   UNL     1     -41.337  52.268 -54.350  1.00  0.00    -0.247 OA
HETATM    7  H   UNL     1     -39.980  54.699 -52.882  1.00  0.00     0.170 HD
BRANCH   5   8
HETATM    8  C   UNL     1     -41.691  55.157 -53.934  1.00  0.00     0.036 A 
HETATM    9  C   UNL     1     -41.365  56.407 -54.469  1.00  0.00     0.039 A 
HETATM   10  C   UNL     1     -42.377  57.187 -55.008  1.00  0.00    -0.024 A 
HETATM   11  C   UNL     1     -43.688  56.745 -55.049  1.00  0.00    -0.026 A 
HETATM   12  C   UNL     1     -42.291  58.534 -55.627  1.00  0.00     0.207 C 
HETATM   13  C   UNL     1     -44.528  57.771 -55.717  1.00  0.00     0.207 C 
HETATM   14  C   UNL     1     -44.038  55.509 -54.541  1.00  0.00     0.012 A 
HETATM   15  O   UNL     1     -43.669  58.929 -55.832  1.00  0.00    -0.382 OA
HETATM   16  C   UNL     1     -43.031  54.720 -53.972  1.00  0.00     0.030 A 
ENDBRANCH   5   8
ENDBRANCH   1   2
BRANCH   1  17
HETATM   17  C   UNL     1     -40.545  52.474 -50.300  1.00  0.00     0.026 C 
BRANCH  17  18
HETATM   18  C   UNL     1     -40.781  53.653 -49.349  1.00  0.00     0.060 C 
BRANCH  18  19
HETATM   19  C   UNL     1     -41.711  54.685 -49.886  1.00  0.00     0.030 A 
HETATM   20  N   UNL     1     -43.037  54.464 -50.145  1.00  0.00    -0.282 N 
HETATM   21  H   UNL     1     -43.585  53.620 -49.997  1.00  0.00     0.189 HD
HETATM   22  N   UNL     1     -43.661  55.527 -50.675  1.00  0.00    -0.174 NA
HETATM   23  C   UNL     1     -42.714  56.469 -50.794  1.00  0.00     0.089 A 
HETATM   24  C   UNL     1     -41.479  55.983 -50.286  1.00  0.00     0.060 A 
BRANCH  23  25
HETATM   25  C   UNL     1     -43.003  57.777 -51.397  1.00  0.00    -0.003 A 
HETATM   26  C   UNL     1     -44.299  58.123 -51.800  1.00  0.00     0.056 A 
HETATM   27  C   UNL     1     -44.547  59.378 -52.348  1.00  0.00     0.117 A 
HETATM   28  F   UNL     1     -45.794  59.694 -52.724  1.00  0.00    -0.206 F 
HETATM   29  C   UNL     1     -43.530  60.310 -52.512  1.00  0.00     0.042 A 
HETATM   30  C   UNL     1     -42.236  59.982 -52.120  1.00  0.00     0.004 A 
HETATM   31  C   UNL     1     -41.976  58.723 -51.567  1.00  0.00     0.014 A 
ENDBRANCH  23  25
ENDBRANCH  18  19
ENDBRANCH  17  18
ENDBRANCH   1  17
TORSDOF 6
ENDMDL
MODEL 8
REMARK VINA RESULT:      -7.8      3.669      6.511
REMARK  6 active torsions:
REMARK  status: ('A' for Active; 'I' for Inactive)
REMARK       I    between atoms: N_2  and  C_3 
REMARK    1  A    between atoms: N_2  and  C_15 
REMARK       I    between atoms: C_3  and  N_4 
REMARK    2  A    between atoms: N_4  and  C_5 
REMARK    3  A    between atoms: C_15  and  C_16 
REMARK    4  A    between atoms: C_16  and  C_17 
REMARK    5  A    between atoms: C_17  and  C_18 
REMARK    6  A    between atoms: C_22  and  C_23 
ROOT
HETATM    1  C   UNL     1     -39.289  51.461 -51.764  1.00  0.00     0.127 C 
ENDROOT
BRANCH   1   2
HETATM    2  N   UNL     1     -39.727  51.256 -53.150  1.00  0.00    -0.338 N 
HETATM    3  C   UNL     1     -39.766  49.870 -53.603  1.00  0.00     0.154 C 
HETATM    4  C   UNL     1     -40.503  52.159 -53.876  1.00  0.00     0.322 C 
HETATM    5  N   UNL     1     -40.363  53.474 -53.504  1.00  0.00    -0.309 N 
HETATM    6  O   UNL     1     -41.294  51.757 -54.725  1.00  0.00    -0.247 OA
HETATM    7  H   UNL     1     -39.528  53.701 -52.989  1.00  0.00     0.170 HD
BRANCH   5   8
HETATM    8  C   UNL     1     -41.160  54.573 -53.893  1.00  0.00     0.036 A 
HETATM    9  C   UNL     1     -42.558  54.562 -53.895  1.00  0.00     0.039 A 
HETATM   10  C   UNL     1     -43.235  55.710 -54.282  1.00  0.00    -0.024 A 
HETATM   11  C   UNL     1     -42.559  56.863 -54.638  1.00  0.00    -0.026 A 
HETATM   12  C   UNL     1     -44.697  55.947 -54.371  1.00  0.00     0.207 C 
HETATM   13  C   UNL     1     -43.543  57.927 -54.958  1.00  0.00     0.207 C 
HETATM   14  C   UNL     1     -41.178  56.909 -54.632  1.00  0.00     0.012 A 
HETATM   15  O   UNL     1     -44.817  57.243 -55.006  1.00  0.00    -0.382 OA
HETATM   16  C   UNL     1     -40.480  55.752 -54.266  1.00  0.00     0.030 A 
ENDBRANCH   5   8
ENDBRANCH   1   2
BRANCH   1  17
HETATM   17  C   UNL     1     -40.242  50.863 -50.716  1.00  0.00     0.026 C 
BRANCH  17  18
HETATM   18  C   UNL     1     -40.436  51.745 -49.478  1.00  0.00     0.060 C 
BRANCH  18  19
HETATM   19  C   UNL     1     -40.602  53.192 -49.786  1.00  0.00     0.030 A 
HETATM   20  N   UNL     1     -39.663  54.150 -49.513  1.00  0.00    -0.282 N 
HETATM   21  H   UNL     1     -38.737  54.039 -49.105  1.00  0.00     0.189 HD
HETATM   22  N   UNL     1     -40.058  55.391 -49.831  1.00  0.00    -0.174 NA
HETATM   23  C   UNL     1     -41.305  55.254 -50.305  1.00  0.00     0.089 A 
HETATM   24  C   UNL     1     -41.673  53.881 -50.313  1.00  0.00     0.060 A 
BRANCH  23  25
HETATM   25  C   UNL     1     -42.106  56.417 -50.710  1.00  0.00    -0.003 A 
HETATM   26  C   UNL     1     -43.501  56.344 -50.801  1.00  0.00     0.056 A 
HETATM   27  C   UNL     1     -44.237  57.469 -51.165  1.00  0.00     0.117 A 
HETATM   28  F   UNL     1     -45.572  57.383 -51.243  1.00  0.00    -0.206 F 
HETATM   29  C   UNL     1     -43.615  58.678 -51.450  1.00  0.00     0.042 A 
HETATM   30  C   UNL     1     -42.230  58.768 -51.367  1.00  0.00     0.004 A 
HETATM   31  C   UNL     1     -41.481  57.644 -51.000  1.00  0.00     0.014 A 
ENDBRANCH  23  25
ENDBRANCH  18  19
ENDBRANCH  17  18
ENDBRANCH   1  17
TORSDOF 6
ENDMDL
MODEL 9
REMARK VINA RESULT:      -7.8     16.303     18.948
REMARK  6 active torsions:
REMARK  status: ('A' for Active; 'I' for Inactive)
REMARK       I    between atoms: N_2  and  C_3 
REMARK    1  A    between atoms: N_2  and  C_15 
REMARK       I    between atoms: C_3  and  N_4 
REMARK    2  A    between atoms: N_4  and  C_5 
REMARK    3  A    between atoms: C_15  and  C_16 
REMARK    4  A    between atoms: C_16  and  C_17 
REMARK    5  A    between atoms: C_17  and  C_18 
REMARK    6  A    between atoms: C_22  and  C_23 
ROOT
HETATM    1  C   UNL     1     -33.793  41.617 -51.491  1.00  0.00     0.127 C 
ENDROOT
BRANCH   1   2
HETATM    2  N   UNL     1     -32.730  40.619 -51.321  1.00  0.00    -0.338 N 
HETATM    3  C   UNL     1     -32.521  40.142 -49.957  1.00  0.00     0.154 C 
HETATM    4  C   UNL     1     -32.248  39.796 -52.338  1.00  0.00     0.322 C 
HETATM    5  N   UNL     1     -32.353  40.316 -53.604  1.00  0.00    -0.309 N 
HETATM    6  O   UNL     1     -31.839  38.667 -52.081  1.00  0.00    -0.247 OA
HETATM    7  H   UNL     1     -32.464  41.315 -53.663  1.00  0.00     0.170 HD
BRANCH   5   8
HETATM    8  C   UNL     1     -32.160  39.648 -54.833  1.00  0.00     0.036 A 
HETATM    9  C   UNL     1     -30.915  39.209 -55.296  1.00  0.00     0.039 A 
HETATM   10  C   UNL     1     -30.850  38.548 -56.514  1.00  0.00    -0.024 A 
HETATM   11  C   UNL     1     -31.987  38.294 -57.261  1.00  0.00    -0.026 A 
HETATM   12  C   UNL     1     -29.665  37.994 -57.214  1.00  0.00     0.207 C 
HETATM   13  C   UNL     1     -31.609  37.540 -58.482  1.00  0.00     0.207 C 
HETATM   14  C   UNL     1     -33.232  38.704 -56.823  1.00  0.00     0.012 A 
HETATM   15  O   UNL     1     -30.165  37.595 -58.514  1.00  0.00    -0.382 OA
HETATM   16  C   UNL     1     -33.311  39.392 -55.607  1.00  0.00     0.030 A 
ENDBRANCH   5   8
ENDBRANCH   1   2
BRANCH   1  17
HETATM   17  C   UNL     1     -35.171  41.010 -51.800  1.00  0.00     0.026 C 
BRANCH  17  18
HETATM   18  C   UNL     1     -36.112  41.957 -52.553  1.00  0.00     0.060 C 
BRANCH  18  19
HETATM   19  C   UNL     1     -35.935  41.935 -54.031  1.00  0.00     0.030 A 
HETATM   20  N   UNL     1     -34.994  42.667 -54.704  1.00  0.00    -0.282 N 
HETATM   21  H   UNL     1     -34.280  43.288 -54.330  1.00  0.00     0.189 HD
HETATM   22  N   UNL     1     -35.060  42.526 -56.036  1.00  0.00    -0.174 NA
HETATM   23  C   UNL     1     -36.093  41.698 -56.253  1.00  0.00     0.089 A 
HETATM   24  C   UNL     1     -36.653  41.287 -55.012  1.00  0.00     0.060 A 
BRANCH  23  25
HETATM   25  C   UNL     1     -36.522  41.343 -57.611  1.00  0.00    -0.003 A 
HETATM   26  C   UNL     1     -36.934  42.322 -58.524  1.00  0.00     0.056 A 
HETATM   27  C   UNL     1     -37.314  41.959 -59.813  1.00  0.00     0.117 A 
HETATM   28  F   UNL     1     -37.701  42.910 -60.675  1.00  0.00    -0.206 F 
HETATM   29  C   UNL     1     -37.299  40.632 -60.225  1.00  0.00     0.042 A 
HETATM   30  C   UNL     1     -36.895  39.647 -59.331  1.00  0.00     0.004 A 
HETATM   31  C   UNL     1     -36.510  40.001 -58.033  1.00  0.00     0.014 A 
ENDBRANCH  23  25
ENDBRANCH  18  19
ENDBRANCH  17  18
ENDBRANCH   1  17
TORSDOF 6
ENDMDL
MODEL 10
REMARK VINA RESULT:      -7.7      2.060      2.537
REMARK  6 active torsions:
REMARK  status: ('A' for Active; 'I' for Inactive)
REMARK       I    between atoms: N_2  and  C_3 
REMARK    1  A    between atoms: N_2  and  C_15 
REMARK       I    between atoms: C_3  and  N_4 
REMARK    2  A    between atoms: N_4  and  C_5 
REMARK    3  A    between atoms: C_15  and  C_16 
REMARK    4  A    between atoms: C_16  and  C_17 
REMARK    5  A    between atoms: C_17  and  C_18 
REMARK    6  A    between atoms: C_22  and  C_23 
ROOT
HETATM    1  C   UNL     1     -42.996  59.368 -53.795  1.00  0.00     0.127 C 
ENDROOT
BRANCH   1   2
HETATM    2  N   UNL     1     -43.810  60.272 -54.615  1.00  0.00    -0.338 N 
HETATM    3  C   UNL     1     -43.646  61.696 -54.340  1.00  0.00     0.154 C 
HETATM    4  C   UNL     1     -44.341  59.947 -55.863  1.00  0.00     0.322 C 
HETATM    5  N   UNL     1     -44.592  58.612 -56.056  1.00  0.00    -0.309 N 
HETATM    6  O   UNL     1     -44.485  60.814 -56.721  1.00  0.00    -0.247 OA
HETATM    7  H   UNL     1     -44.671  58.052 -55.222  1.00  0.00     0.170 HD
BRANCH   5   8
HETATM    8  C   UNL     1     -44.916  57.957 -57.265  1.00  0.00     0.036 A 
HETATM    9  C   UNL     1     -44.027  57.143 -57.974  1.00  0.00     0.039 A 
HETATM   10  C   UNL     1     -44.463  56.537 -59.144  1.00  0.00    -0.024 A 
HETATM   11  C   UNL     1     -45.758  56.702 -59.604  1.00  0.00    -0.026 A 
HETATM   12  C   UNL     1     -43.721  55.642 -60.066  1.00  0.00     0.207 C 
HETATM   13  C   UNL     1     -45.940  55.904 -60.843  1.00  0.00     0.207 C 
HETATM   14  C   UNL     1     -46.663  57.489 -58.918  1.00  0.00     0.012 A 
HETATM   15  O   UNL     1     -44.606  55.474 -61.200  1.00  0.00    -0.382 OA
HETATM   16  C   UNL     1     -46.230  58.125 -57.748  1.00  0.00     0.030 A 
ENDBRANCH   5   8
ENDBRANCH   1   2
BRANCH   1  17
HETATM   17  C   UNL     1     -43.633  59.013 -52.441  1.00  0.00     0.026 C 
BRANCH  17  18
HETATM   18  C   UNL     1     -44.509  57.756 -52.477  1.00  0.00     0.060 C 
BRANCH  18  19
HETATM   19  C   UNL     1     -43.789  56.531 -52.922  1.00  0.00     0.030 A 
HETATM   20  N   UNL     1     -44.171  55.758 -53.985  1.00  0.00    -0.282 N 
HETATM   21  H   UNL     1     -44.946  55.896 -54.630  1.00  0.00     0.189 HD
HETATM   22  N   UNL     1     -43.400  54.674 -54.162  1.00  0.00    -0.174 NA
HETATM   23  C   UNL     1     -42.498  54.718 -53.171  1.00  0.00     0.089 A 
HETATM   24  C   UNL     1     -42.697  55.885 -52.384  1.00  0.00     0.060 A 
BRANCH  23  25
HETATM   25  C   UNL     1     -41.500  53.655 -52.992  1.00  0.00    -0.003 A 
HETATM   26  C   UNL     1     -41.206  52.752 -54.021  1.00  0.00     0.056 A 
HETATM   27  C   UNL     1     -40.239  51.768 -53.831  1.00  0.00     0.117 A 
HETATM   28  F   UNL     1     -39.967  50.916 -54.828  1.00  0.00    -0.206 F 
HETATM   29  C   UNL     1     -39.551  51.652 -52.629  1.00  0.00     0.042 A 
HETATM   30  C   UNL     1     -39.833  52.539 -51.595  1.00  0.00     0.004 A 
HETATM   31  C   UNL     1     -40.802  53.532 -51.776  1.00  0.00     0.014 A 
ENDBRANCH  23  25
ENDBRANCH  18  19
ENDBRANCH  17  18
ENDBRANCH   1  17
TORSDOF 6
ENDMDL
