MODEL 1
REMARK VINA RESULT:      -9.3      0.000      0.000
REMARK  6 active torsions:
REMARK  status: ('A' for Active; 'I' for Inactive)
REMARK    1  A    between atoms: C_2  and  C_3 
REMARK       I    between atoms: C_2  and  N_9 
REMARK    2  A    between atoms: C_3  and  N_4 
REMARK    3  A    between atoms: N_9  and  C_10 
REMARK    4  A    between atoms: C_15  and  C_16 
REMARK    5  A    between atoms: C_18  and  N_19 
REMARK    6  A    between atoms: N_19  and  C_20 
ROOT
HETATM    1  C   UNL     1     -43.022  56.534 -55.931  1.00  0.00     0.164 A 
HETATM    2  N   UNL     1     -41.870  55.977 -55.536  1.00  0.00    -0.210 NA
HETATM    3  C   UNL     1     -41.642  55.848 -54.219  1.00  0.00     0.143 A 
HETATM    4  C   UNL     1     -42.562  56.305 -53.263  1.00  0.00     0.039 A 
HETATM    5  C   UNL     1     -42.394  56.208 -51.857  1.00  0.00     0.018 A 
HETATM    6  C   UNL     1     -43.368  56.691 -50.988  1.00  0.00     0.001 A 
HETATM    7  C   UNL     1     -44.519  57.268 -51.509  1.00  0.00     0.002 A 
HETATM    8  C   UNL     1     -44.690  57.351 -52.894  1.00  0.00     0.032 A 
HETATM    9  C   UNL     1     -43.733  56.877 -53.782  1.00  0.00     0.073 A 
HETATM   10  N   UNL     1     -43.973  56.980 -55.093  1.00  0.00    -0.228 NA
ENDROOT
BRANCH   1  11
HETATM   11  C   UNL     1     -43.247  56.628 -57.387  1.00  0.00     0.039 A 
HETATM   12  C   UNL     1     -43.508  57.846 -58.065  1.00  0.00     0.049 A 
HETATM   13  C   UNL     1     -43.783  57.824 -59.442  1.00  0.00     0.030 A 
HETATM   14  C   UNL     1     -43.789  56.628 -60.161  1.00  0.00     0.002 A 
HETATM   15  C   UNL     1     -43.528  55.429 -59.515  1.00  0.00     0.001 A 
HETATM   16  C   UNL     1     -43.265  55.433 -58.146  1.00  0.00     0.018 A 
BRANCH  12  17
HETATM   17  N   UNL     1     -43.472  59.064 -57.345  1.00  0.00    -0.325 N 
HETATM   18  C   UNL     1     -42.408  59.928 -57.171  1.00  0.00     0.250 C 
HETATM   19  O   UNL     1     -41.308  59.853 -57.713  1.00  0.00    -0.271 OA
HETATM   20  H   UNL     1     -44.336  59.324 -56.865  1.00  0.00     0.169 HD
BRANCH  18  21
HETATM   21  C   UNL     1     -42.739  61.099 -56.238  1.00  0.00     0.375 C 
BRANCH  21  22
HETATM   22  N   UNL     1     -42.987  60.638 -54.856  1.00  0.00     0.097 N 
HETATM   23  C   UNL     1     -41.808  59.985 -54.271  1.00  0.00     0.273 C 
HETATM   24  C   UNL     1     -42.156  59.962 -52.795  1.00  0.00     0.032 C 
HETATM   25  C   UNL     1     -42.926  61.257 -52.570  1.00  0.00     0.032 C 
HETATM   26  C   UNL     1     -43.272  61.768 -53.964  1.00  0.00     0.273 C 
ENDBRANCH  21  22
ENDBRANCH  18  21
ENDBRANCH  12  17
ENDBRANCH   1  11
BRANCH   3  27
HETATM   27  N   UNL     1     -40.430  55.235 -53.804  1.00  0.00    -0.340 N 
HETATM   28  H   UNL     1     -39.677  55.541 -54.410  1.00  0.00     0.167 HD
BRANCH  27  29
HETATM   29  C   UNL     1     -40.278  53.887 -53.392  1.00  0.00     0.034 A 
HETATM   30  C   UNL     1     -40.172  53.543 -52.035  1.00  0.00     0.032 A 
HETATM   31  C   UNL     1     -39.996  52.222 -51.604  1.00  0.00     0.034 A 
HETATM   32  C   UNL     1     -39.906  51.246 -52.595  1.00  0.00     0.062 A 
HETATM   33  N   UNL     1     -39.743  49.887 -52.524  1.00  0.00    -0.278 N 
HETATM   34  C   UNL     1     -39.970  51.540 -53.951  1.00  0.00     0.013 A 
HETATM   35  H   UNL     1     -39.662  49.319 -51.689  1.00  0.00     0.189 HD
HETATM   36  N   UNL     1     -39.695  49.277 -53.722  1.00  0.00    -0.186 NA
HETATM   37  C   UNL     1     -39.832  50.285 -54.587  1.00  0.00     0.152 A 
HETATM   38  C   UNL     1     -40.141  52.876 -54.361  1.00  0.00     0.044 A 
ENDBRANCH  27  29
ENDBRANCH   3  27
TORSDOF 6
ENDMDL
MODEL 2
REMARK VINA RESULT:      -8.7      1.691      2.657
REMARK  6 active torsions:
REMARK  status: ('A' for Active; 'I' for Inactive)
REMARK    1  A    between atoms: C_2  and  C_3 
REMARK       I    between atoms: C_2  and  N_9 
REMARK    2  A    between atoms: C_3  and  N_4 
REMARK    3  A    between atoms: N_9  and  C_10 
REMARK    4  A    between atoms: C_15  and  C_16 
REMARK    5  A    between atoms: C_18  and  N_19 
REMARK    6  A    between atoms: N_19  and  C_20 
ROOT
HETATM    1  C   UNL     1     -43.020  56.107 -56.336  1.00  0.00     0.164 A 
HETATM    2  N   UNL     1     -41.872  55.600 -55.869  1.00  0.00    -0.210 NA
HETATM    3  C   UNL     1     -41.627  55.683 -54.551  1.00  0.00     0.143 A 
HETATM    4  C   UNL     1     -42.525  56.309 -53.672  1.00  0.00     0.039 A 
HETATM    5  C   UNL     1     -42.338  56.440 -52.272  1.00  0.00     0.018 A 
HETATM    6  C   UNL     1     -43.290  57.079 -51.483  1.00  0.00     0.001 A 
HETATM    7  C   UNL     1     -44.438  57.585 -52.077  1.00  0.00     0.002 A 
HETATM    8  C   UNL     1     -44.628  57.444 -53.455  1.00  0.00     0.032 A 
HETATM    9  C   UNL     1     -43.692  56.811 -54.265  1.00  0.00     0.073 A 
HETATM   10  N   UNL     1     -43.951  56.703 -55.572  1.00  0.00    -0.228 NA
ENDROOT
BRANCH   1  11
HETATM   11  C   UNL     1     -43.264  55.966 -57.785  1.00  0.00     0.039 A 
HETATM   12  C   UNL     1     -42.922  56.957 -58.740  1.00  0.00     0.049 A 
HETATM   13  C   UNL     1     -43.263  56.763 -60.089  1.00  0.00     0.030 A 
HETATM   14  C   UNL     1     -43.918  55.605 -60.512  1.00  0.00     0.002 A 
HETATM   15  C   UNL     1     -44.251  54.622 -59.592  1.00  0.00     0.001 A 
HETATM   16  C   UNL     1     -43.931  54.806 -58.248  1.00  0.00     0.018 A 
BRANCH  12  17
HETATM   17  N   UNL     1     -42.232  58.118 -58.320  1.00  0.00    -0.325 N 
HETATM   18  C   UNL     1     -42.733  59.391 -58.120  1.00  0.00     0.250 C 
HETATM   19  O   UNL     1     -43.914  59.727 -58.161  1.00  0.00    -0.271 OA
HETATM   20  H   UNL     1     -41.226  58.012 -58.176  1.00  0.00     0.169 HD
BRANCH  18  21
HETATM   21  C   UNL     1     -41.645  60.409 -57.758  1.00  0.00     0.375 C 
BRANCH  21  22
HETATM   22  N   UNL     1     -41.621  61.539 -58.710  1.00  0.00     0.097 N 
HETATM   23  C   UNL     1     -40.431  62.382 -58.538  1.00  0.00     0.273 C 
HETATM   24  C   UNL     1     -40.427  63.194 -59.820  1.00  0.00     0.032 C 
HETATM   25  C   UNL     1     -40.957  62.232 -60.875  1.00  0.00     0.032 C 
HETATM   26  C   UNL     1     -41.549  61.063 -60.096  1.00  0.00     0.273 C 
ENDBRANCH  21  22
ENDBRANCH  18  21
ENDBRANCH  12  17
ENDBRANCH   1  11
BRANCH   3  27
HETATM   27  N   UNL     1     -40.420  55.123 -54.055  1.00  0.00    -0.340 N 
HETATM   28  H   UNL     1     -39.652  55.402 -54.655  1.00  0.00     0.167 HD
BRANCH  27  29
HETATM   29  C   UNL     1     -40.260  53.808 -53.549  1.00  0.00     0.034 A 
HETATM   30  C   UNL     1     -40.211  53.556 -52.168  1.00  0.00     0.032 A 
HETATM   31  C   UNL     1     -40.028  52.270 -51.644  1.00  0.00     0.034 A 
HETATM   32  C   UNL     1     -39.871  51.234 -52.563  1.00  0.00     0.062 A 
HETATM   33  N   UNL     1     -39.684  49.887 -52.395  1.00  0.00    -0.278 N 
HETATM   34  C   UNL     1     -39.878  51.438 -53.937  1.00  0.00     0.013 A 
HETATM   35  H   UNL     1     -39.630  49.376 -51.521  1.00  0.00     0.189 HD
HETATM   36  N   UNL     1     -39.567  49.201 -53.547  1.00  0.00    -0.186 NA
HETATM   37  C   UNL     1     -39.683  50.148 -54.482  1.00  0.00     0.152 A 
HETATM   38  C   UNL     1     -40.057  52.740 -54.442  1.00  0.00     0.044 A 
ENDBRANCH  27  29
ENDBRANCH   3  27
TORSDOF 6
ENDMDL
MODEL 3
REMARK VINA RESULT:      -8.6      1.929      5.141
REMARK  6 active torsions:
REMARK  status: ('A' for Active; 'I' for Inactive)
REMARK    1  A    between atoms: C_2  and  C_3 
REMARK       I    between atoms: C_2  and  N_9 
REMARK    2  A    between atoms: C_3  and  N_4 
REMARK    3  A    between atoms: N_9  and  C_10 
REMARK    4  A    between atoms: C_15  and  C_16 
REMARK    5  A    between atoms: C_18  and  N_19 
REMARK    6  A    between atoms: N_19  and  C_20 
ROOT
HETATM    1  C   UNL     1     -42.745  55.583 -56.013  1.00  0.00     0.164 A 
HETATM    2  N   UNL     1     -43.502  55.931 -54.965  1.00  0.00    -0.210 NA
HETATM    3  C   UNL     1     -43.220  55.394 -53.768  1.00  0.00     0.143 A 
HETATM    4  C   UNL     1     -42.180  54.465 -53.603  1.00  0.00     0.039 A 
HETATM    5  C   UNL     1     -41.822  53.850 -52.375  1.00  0.00     0.018 A 
HETATM    6  C   UNL     1     -40.771  52.940 -52.313  1.00  0.00     0.001 A 
HETATM    7  C   UNL     1     -40.064  52.638 -53.470  1.00  0.00     0.002 A 
HETATM    8  C   UNL     1     -40.409  53.253 -54.677  1.00  0.00     0.032 A 
HETATM    9  C   UNL     1     -41.454  54.165 -54.764  1.00  0.00     0.073 A 
HETATM   10  N   UNL     1     -41.716  54.722 -55.951  1.00  0.00    -0.228 NA
ENDROOT
BRANCH   1  11
HETATM   11  C   UNL     1     -43.069  56.222 -57.304  1.00  0.00     0.039 A 
HETATM   12  C   UNL     1     -43.270  57.617 -57.463  1.00  0.00     0.049 A 
HETATM   13  C   UNL     1     -43.648  58.122 -58.718  1.00  0.00     0.030 A 
HETATM   14  C   UNL     1     -43.815  57.279 -59.818  1.00  0.00     0.002 A 
HETATM   15  C   UNL     1     -43.614  55.914 -59.682  1.00  0.00     0.001 A 
HETATM   16  C   UNL     1     -43.250  55.397 -58.440  1.00  0.00     0.018 A 
BRANCH  12  17
HETATM   17  N   UNL     1     -43.072  58.478 -56.357  1.00  0.00    -0.325 N 
HETATM   18  C   UNL     1     -42.181  59.528 -56.234  1.00  0.00     0.250 C 
HETATM   19  O   UNL     1     -41.463  59.986 -57.120  1.00  0.00    -0.271 OA
HETATM   20  H   UNL     1     -43.638  58.280 -55.530  1.00  0.00     0.169 HD
BRANCH  18  21
HETATM   21  C   UNL     1     -42.197  60.161 -54.837  1.00  0.00     0.375 C 
BRANCH  21  22
HETATM   22  N   UNL     1     -43.367  61.044 -54.656  1.00  0.00     0.097 N 
HETATM   23  C   UNL     1     -44.547  60.308 -54.183  1.00  0.00     0.273 C 
HETATM   24  C   UNL     1     -45.454  61.429 -53.711  1.00  0.00     0.032 C 
HETATM   25  C   UNL     1     -44.500  62.469 -53.140  1.00  0.00     0.032 C 
HETATM   26  C   UNL     1     -43.114  62.053 -53.621  1.00  0.00     0.273 C 
ENDBRANCH  21  22
ENDBRANCH  18  21
ENDBRANCH  12  17
ENDBRANCH   1  11
BRANCH   3  27
HETATM   27  N   UNL     1     -44.009  55.783 -52.653  1.00  0.00    -0.340 N 
HETATM   28  H   UNL     1     -44.964  55.474 -52.797  1.00  0.00     0.167 HD
BRANCH  27  29
HETATM   29  C   UNL     1     -43.940  57.029 -51.979  1.00  0.00     0.034 A 
HETATM   30  C   UNL     1     -45.086  57.638 -51.445  1.00  0.00     0.032 A 
HETATM   31  C   UNL     1     -45.047  58.880 -50.799  1.00  0.00     0.034 A 
HETATM   32  C   UNL     1     -43.806  59.510 -50.723  1.00  0.00     0.062 A 
HETATM   33  N   UNL     1     -43.420  60.701 -50.167  1.00  0.00    -0.278 N 
HETATM   34  C   UNL     1     -42.650  58.964 -51.266  1.00  0.00     0.013 A 
HETATM   35  H   UNL     1     -44.003  61.370 -49.677  1.00  0.00     0.189 HD
HETATM   36  N   UNL     1     -42.110  60.973 -50.306  1.00  0.00    -0.186 NA
HETATM   37  C   UNL     1     -41.645  59.915 -50.976  1.00  0.00     0.152 A 
HETATM   38  C   UNL     1     -42.713  57.717 -51.918  1.00  0.00     0.044 A 
ENDBRANCH  27  29
ENDBRANCH   3  27
TORSDOF 6
ENDMDL
MODEL 4
REMARK VINA RESULT:      -8.5      2.667      6.725
REMARK  6 active torsions:
REMARK  status: ('A' for Active; 'I' for Inactive)
REMARK    1  A    between atoms: C_2  and  C_3 
REMARK       I    between atoms: C_2  and  N_9 
REMARK    2  A    between atoms: C_3  and  N_4 
REMARK    3  A    between atoms: N_9  and  C_10 
REMARK    4  A    between atoms: C_15  and  C_16 
REMARK    5  A    between atoms: C_18  and  N_19 
REMARK    6  A    between atoms: N_19  and  C_20 
ROOT
HETATM    1  C   UNL     1     -41.981  55.010 -53.985  1.00  0.00     0.164 A 
HETATM    2  N   UNL     1     -41.702  55.462 -55.214  1.00  0.00    -0.210 NA
HETATM    3  C   UNL     1     -42.300  56.590 -55.631  1.00  0.00     0.143 A 
HETATM    4  C   UNL     1     -43.220  57.278 -54.825  1.00  0.00     0.039 A 
HETATM    5  C   UNL     1     -43.895  58.470 -55.193  1.00  0.00     0.018 A 
HETATM    6  C   UNL     1     -44.792  59.080 -54.320  1.00  0.00     0.001 A 
HETATM    7  C   UNL     1     -45.020  58.513 -53.073  1.00  0.00     0.002 A 
HETATM    8  C   UNL     1     -44.345  57.345 -52.706  1.00  0.00     0.032 A 
HETATM    9  C   UNL     1     -43.446  56.717 -53.560  1.00  0.00     0.073 A 
HETATM   10  N   UNL     1     -42.829  55.610 -53.133  1.00  0.00    -0.228 NA
ENDROOT
BRANCH   1  11
HETATM   11  C   UNL     1     -41.279  53.786 -53.554  1.00  0.00     0.039 A 
HETATM   12  C   UNL     1     -40.474  53.710 -52.389  1.00  0.00     0.049 A 
HETATM   13  C   UNL     1     -39.784  52.520 -52.102  1.00  0.00     0.030 A 
HETATM   14  C   UNL     1     -39.888  51.404 -52.934  1.00  0.00     0.002 A 
HETATM   15  C   UNL     1     -40.677  51.459 -54.073  1.00  0.00     0.001 A 
HETATM   16  C   UNL     1     -41.358  52.636 -54.377  1.00  0.00     0.018 A 
BRANCH  12  17
HETATM   17  N   UNL     1     -40.390  54.829 -51.527  1.00  0.00    -0.325 N 
HETATM   18  C   UNL     1     -41.208  55.157 -50.462  1.00  0.00     0.250 C 
HETATM   19  O   UNL     1     -42.105  54.463 -49.989  1.00  0.00    -0.271 OA
HETATM   20  H   UNL     1     -39.649  55.500 -51.737  1.00  0.00     0.169 HD
BRANCH  18  21
HETATM   21  C   UNL     1     -40.852  56.509 -49.833  1.00  0.00     0.375 C 
BRANCH  21  22
HETATM   22  N   UNL     1     -41.425  57.633 -50.602  1.00  0.00     0.097 N 
HETATM   23  C   UNL     1     -41.363  58.899 -49.860  1.00  0.00     0.273 C 
HETATM   24  C   UNL     1     -41.624  59.920 -50.951  1.00  0.00     0.032 C 
HETATM   25  C   UNL     1     -40.956  59.331 -52.186  1.00  0.00     0.032 C 
HETATM   26  C   UNL     1     -40.659  57.878 -51.830  1.00  0.00     0.273 C 
ENDBRANCH  21  22
ENDBRANCH  18  21
ENDBRANCH  12  17
ENDBRANCH   1  11
BRANCH   3  27
HETATM   27  N   UNL     1     -41.983  57.079 -56.926  1.00  0.00    -0.340 N 
HETATM   28  H   UNL     1     -41.621  58.022 -56.846  1.00  0.00     0.167 HD
BRANCH  27  29
HETATM   29  C   UNL     1     -42.761  56.896 -58.098  1.00  0.00     0.034 A 
HETATM   30  C   UNL     1     -43.091  57.974 -58.934  1.00  0.00     0.032 A 
HETATM   31  C   UNL     1     -43.880  57.823 -60.082  1.00  0.00     0.034 A 
HETATM   32  C   UNL     1     -44.350  56.539 -60.355  1.00  0.00     0.062 A 
HETATM   33  N   UNL     1     -45.122  56.050 -61.376  1.00  0.00    -0.278 N 
HETATM   34  C   UNL     1     -44.079  55.448 -59.541  1.00  0.00     0.013 A 
HETATM   35  H   UNL     1     -45.504  56.565 -62.161  1.00  0.00     0.189 HD
HETATM   36  N   UNL     1     -45.376  54.732 -61.289  1.00  0.00    -0.186 NA
HETATM   37  C   UNL     1     -44.741  54.369 -60.170  1.00  0.00     0.152 A 
HETATM   38  C   UNL     1     -43.290  55.624 -58.388  1.00  0.00     0.044 A 
ENDBRANCH  27  29
ENDBRANCH   3  27
TORSDOF 6
ENDMDL
MODEL 5
REMARK VINA RESULT:      -8.4      2.599      7.140
REMARK  6 active torsions:
REMARK  status: ('A' for Active; 'I' for Inactive)
REMARK    1  A    between atoms: C_2  and  C_3 
REMARK       I    between atoms: C_2  and  N_9 
REMARK    2  A    between atoms: C_3  and  N_4 
REMARK    3  A    between atoms: N_9  and  C_10 
REMARK    4  A    between atoms: C_15  and  C_16 
REMARK    5  A    between atoms: C_18  and  N_19 
REMARK    6  A    between atoms: N_19  and  C_20 
ROOT
HETATM    1  C   UNL     1     -41.219  55.031 -54.440  1.00  0.00     0.164 A 
HETATM    2  N   UNL     1     -40.848  56.235 -53.986  1.00  0.00    -0.210 NA
HETATM    3  C   UNL     1     -41.269  57.324 -54.649  1.00  0.00     0.143 A 
HETATM    4  C   UNL     1     -42.054  57.225 -55.809  1.00  0.00     0.039 A 
HETATM    5  C   UNL     1     -42.534  58.325 -56.566  1.00  0.00     0.018 A 
HETATM    6  C   UNL     1     -43.310  58.122 -57.704  1.00  0.00     0.001 A 
HETATM    7  C   UNL     1     -43.620  56.826 -58.094  1.00  0.00     0.002 A 
HETATM    8  C   UNL     1     -43.157  55.743 -57.340  1.00  0.00     0.032 A 
HETATM    9  C   UNL     1     -42.381  55.919 -56.201  1.00  0.00     0.073 A 
HETATM   10  N   UNL     1     -41.987  54.835 -55.525  1.00  0.00    -0.228 NA
ENDROOT
BRANCH   1  11
HETATM   11  C   UNL     1     -40.762  53.862 -53.664  1.00  0.00     0.039 A 
HETATM   12  C   UNL     1     -40.995  53.701 -52.274  1.00  0.00     0.049 A 
HETATM   13  C   UNL     1     -40.455  52.588 -51.608  1.00  0.00     0.030 A 
HETATM   14  C   UNL     1     -39.706  51.628 -52.290  1.00  0.00     0.002 A 
HETATM   15  C   UNL     1     -39.477  51.765 -53.650  1.00  0.00     0.001 A 
HETATM   16  C   UNL     1     -39.996  52.870 -54.323  1.00  0.00     0.018 A 
BRANCH  12  17
HETATM   17  N   UNL     1     -41.778  54.657 -51.585  1.00  0.00    -0.325 N 
HETATM   18  C   UNL     1     -43.118  54.592 -51.254  1.00  0.00     0.250 C 
HETATM   19  O   UNL     1     -43.862  53.625 -51.400  1.00  0.00    -0.271 OA
HETATM   20  H   UNL     1     -41.301  55.522 -51.325  1.00  0.00     0.169 HD
BRANCH  18  21
HETATM   21  C   UNL     1     -43.631  55.877 -50.592  1.00  0.00     0.375 C 
BRANCH  21  22
HETATM   22  N   UNL     1     -43.829  56.956 -51.581  1.00  0.00     0.097 N 
HETATM   23  C   UNL     1     -44.289  56.440 -52.877  1.00  0.00     0.273 C 
HETATM   24  C   UNL     1     -44.781  57.700 -53.565  1.00  0.00     0.032 C 
HETATM   25  C   UNL     1     -45.369  58.538 -52.438  1.00  0.00     0.032 C 
HETATM   26  C   UNL     1     -44.880  57.884 -51.150  1.00  0.00     0.273 C 
ENDBRANCH  21  22
ENDBRANCH  18  21
ENDBRANCH  12  17
ENDBRANCH   1  11
BRANCH   3  27
HETATM   27  N   UNL     1     -40.894  58.600 -54.152  1.00  0.00    -0.340 N 
HETATM   28  H   UNL     1     -39.907  58.751 -54.330  1.00  0.00     0.167 HD
BRANCH  27  29
HETATM   29  C   UNL     1     -41.314  59.170 -52.923  1.00  0.00     0.034 A 
HETATM   30  C   UNL     1     -40.880  58.656 -51.690  1.00  0.00     0.032 A 
HETATM   31  C   UNL     1     -41.302  59.185 -50.464  1.00  0.00     0.034 A 
HETATM   32  C   UNL     1     -42.201  60.249 -50.515  1.00  0.00     0.062 A 
HETATM   33  N   UNL     1     -42.795  60.988 -49.526  1.00  0.00    -0.278 N 
HETATM   34  C   UNL     1     -42.684  60.770 -51.707  1.00  0.00     0.013 A 
HETATM   35  H   UNL     1     -42.672  60.890 -48.525  1.00  0.00     0.189 HD
HETATM   36  N   UNL     1     -43.625  61.944 -49.979  1.00  0.00    -0.186 NA
HETATM   37  C   UNL     1     -43.557  61.808 -51.307  1.00  0.00     0.152 A 
HETATM   38  C   UNL     1     -42.253  60.218 -52.929  1.00  0.00     0.044 A 
ENDBRANCH  27  29
ENDBRANCH   3  27
TORSDOF 6
ENDMDL
MODEL 6
REMARK VINA RESULT:      -8.2      2.843      7.623
REMARK  6 active torsions:
REMARK  status: ('A' for Active; 'I' for Inactive)
REMARK    1  A    between atoms: C_2  and  C_3 
REMARK       I    between atoms: C_2  and  N_9 
REMARK    2  A    between atoms: C_3  and  N_4 
REMARK    3  A    between atoms: N_9  and  C_10 
REMARK    4  A    between atoms: C_15  and  C_16 
REMARK    5  A    between atoms: C_18  and  N_19 
REMARK    6  A    between atoms: N_19  and  C_20 
ROOT
HETATM    1  C   UNL     1     -41.114  54.259 -54.065  1.00  0.00     0.164 A 
HETATM    2  N   UNL     1     -42.135  54.316 -54.929  1.00  0.00    -0.210 NA
HETATM    3  C   UNL     1     -42.599  55.522 -55.291  1.00  0.00     0.143 A 
HETATM    4  C   UNL     1     -42.062  56.707 -54.765  1.00  0.00     0.039 A 
HETATM    5  C   UNL     1     -42.498  58.017 -55.093  1.00  0.00     0.018 A 
HETATM    6  C   UNL     1     -41.898  59.133 -54.516  1.00  0.00     0.001 A 
HETATM    7  C   UNL     1     -40.856  58.957 -53.616  1.00  0.00     0.002 A 
HETATM    8  C   UNL     1     -40.418  57.666 -53.302  1.00  0.00     0.032 A 
HETATM    9  C   UNL     1     -41.001  56.537 -53.864  1.00  0.00     0.073 A 
HETATM   10  N   UNL     1     -40.519  55.336 -53.525  1.00  0.00    -0.228 NA
ENDROOT
BRANCH   1  11
HETATM   11  C   UNL     1     -40.613  52.915 -53.719  1.00  0.00     0.039 A 
HETATM   12  C   UNL     1     -40.091  52.574 -52.444  1.00  0.00     0.049 A 
HETATM   13  C   UNL     1     -39.569  51.287 -52.234  1.00  0.00     0.030 A 
HETATM   14  C   UNL     1     -39.568  50.330 -53.250  1.00  0.00     0.002 A 
HETATM   15  C   UNL     1     -40.082  50.644 -54.499  1.00  0.00     0.001 A 
HETATM   16  C   UNL     1     -40.592  51.921 -54.727  1.00  0.00     0.018 A 
BRANCH  12  17
HETATM   17  N   UNL     1     -40.119  53.531 -51.403  1.00  0.00    -0.325 N 
HETATM   18  C   UNL     1     -40.411  53.339 -50.066  1.00  0.00     0.250 C 
HETATM   19  O   UNL     1     -40.594  52.261 -49.505  1.00  0.00    -0.271 OA
HETATM   20  H   UNL     1     -39.928  54.496 -51.679  1.00  0.00     0.169 HD
BRANCH  18  21
HETATM   21  C   UNL     1     -40.433  54.648 -49.267  1.00  0.00     0.375 C 
BRANCH  21  22
HETATM   22  N   UNL     1     -41.671  55.415 -49.516  1.00  0.00     0.097 N 
HETATM   23  C   UNL     1     -41.413  56.656 -50.257  1.00  0.00     0.273 C 
HETATM   24  C   UNL     1     -42.804  57.047 -50.718  1.00  0.00     0.032 C 
HETATM   25  C   UNL     1     -43.495  55.718 -50.997  1.00  0.00     0.032 C 
HETATM   26  C   UNL     1     -42.602  54.658 -50.362  1.00  0.00     0.273 C 
ENDBRANCH  21  22
ENDBRANCH  18  21
ENDBRANCH  12  17
ENDBRANCH   1  11
BRANCH   3  27
HETATM   27  N   UNL     1     -43.667  55.579 -56.226  1.00  0.00    -0.340 N 
HETATM   28  H   UNL     1     -44.100  54.665 -56.293  1.00  0.00     0.167 HD
BRANCH  27  29
HETATM   29  C   UNL     1     -43.647  56.260 -57.470  1.00  0.00     0.034 A 
HETATM   30  C   UNL     1     -42.786  55.868 -58.507  1.00  0.00     0.032 A 
HETATM   31  C   UNL     1     -42.730  56.540 -59.734  1.00  0.00     0.034 A 
HETATM   32  C   UNL     1     -43.563  57.648 -59.881  1.00  0.00     0.062 A 
HETATM   33  N   UNL     1     -43.758  58.508 -60.929  1.00  0.00    -0.278 N 
HETATM   34  C   UNL     1     -44.407  58.096 -58.873  1.00  0.00     0.013 A 
HETATM   35  H   UNL     1     -43.311  58.485 -61.838  1.00  0.00     0.189 HD
HETATM   36  N   UNL     1     -44.658  59.478 -60.683  1.00  0.00    -0.186 NA
HETATM   37  C   UNL     1     -45.049  59.225 -59.431  1.00  0.00     0.152 A 
HETATM   38  C   UNL     1     -44.442  57.408 -57.644  1.00  0.00     0.044 A 
ENDBRANCH  27  29
ENDBRANCH   3  27
TORSDOF 6
ENDMDL
MODEL 7
REMARK VINA RESULT:      -8.1      1.662      2.009
REMARK  6 active torsions:
REMARK  status: ('A' for Active; 'I' for Inactive)
REMARK    1  A    between atoms: C_2  and  C_3 
REMARK       I    between atoms: C_2  and  N_9 
REMARK    2  A    between atoms: C_3  and  N_4 
REMARK    3  A    between atoms: N_9  and  C_10 
REMARK    4  A    between atoms: C_15  and  C_16 
REMARK    5  A    between atoms: C_18  and  N_19 
REMARK    6  A    between atoms: N_19  and  C_20 
ROOT
HETATM    1  C   UNL     1     -42.691  56.814 -56.059  1.00  0.00     0.164 A 
HETATM    2  N   UNL     1     -42.861  55.697 -55.340  1.00  0.00    -0.210 NA
HETATM    3  C   UNL     1     -42.471  55.699 -54.056  1.00  0.00     0.143 A 
HETATM    4  C   UNL     1     -41.871  56.824 -53.469  1.00  0.00     0.039 A 
HETATM    5  C   UNL     1     -41.429  56.905 -52.123  1.00  0.00     0.018 A 
HETATM    6  C   UNL     1     -40.845  58.070 -51.633  1.00  0.00     0.001 A 
HETATM    7  C   UNL     1     -40.702  59.165 -52.475  1.00  0.00     0.002 A 
HETATM    8  C   UNL     1     -41.148  59.089 -53.798  1.00  0.00     0.032 A 
HETATM    9  C   UNL     1     -41.734  57.938 -54.310  1.00  0.00     0.073 A 
HETATM   10  N   UNL     1     -42.148  57.946 -55.582  1.00  0.00    -0.228 NA
ENDROOT
BRANCH   1  11
HETATM   11  C   UNL     1     -43.162  56.779 -57.458  1.00  0.00     0.039 A 
HETATM   12  C   UNL     1     -43.953  57.799 -58.046  1.00  0.00     0.049 A 
HETATM   13  C   UNL     1     -44.416  57.640 -59.363  1.00  0.00     0.030 A 
HETATM   14  C   UNL     1     -44.100  56.504 -60.110  1.00  0.00     0.002 A 
HETATM   15  C   UNL     1     -43.321  55.502 -59.553  1.00  0.00     0.001 A 
HETATM   16  C   UNL     1     -42.864  55.639 -58.243  1.00  0.00     0.018 A 
BRANCH  12  17
HETATM   17  N   UNL     1     -44.250  58.965 -57.302  1.00  0.00    -0.325 N 
HETATM   18  C   UNL     1     -45.325  59.199 -56.465  1.00  0.00     0.250 C 
HETATM   19  O   UNL     1     -46.175  58.382 -56.119  1.00  0.00    -0.271 OA
HETATM   20  H   UNL     1     -43.605  59.747 -57.421  1.00  0.00     0.169 HD
BRANCH  18  21
HETATM   21  C   UNL     1     -45.349  60.630 -55.914  1.00  0.00     0.375 C 
BRANCH  21  22
HETATM   22  N   UNL     1     -44.279  60.845 -54.918  1.00  0.00     0.097 N 
HETATM   23  C   UNL     1     -43.877  62.255 -54.835  1.00  0.00     0.273 C 
HETATM   24  C   UNL     1     -43.097  62.289 -53.534  1.00  0.00     0.032 C 
HETATM   25  C   UNL     1     -43.821  61.293 -52.637  1.00  0.00     0.032 C 
HETATM   26  C   UNL     1     -44.739  60.506 -53.566  1.00  0.00     0.273 C 
ENDBRANCH  21  22
ENDBRANCH  18  21
ENDBRANCH  12  17
ENDBRANCH   1  11
BRANCH   3  27
HETATM   27  N   UNL     1     -42.675  54.521 -53.289  1.00  0.00    -0.340 N 
HETATM   28  H   UNL     1     -43.152  54.762 -52.428  1.00  0.00     0.167 HD
BRANCH  27  29
HETATM   29  C   UNL     1     -41.738  53.471 -53.113  1.00  0.00     0.034 A 
HETATM   30  C   UNL     1     -40.926  53.397 -51.970  1.00  0.00     0.032 A 
HETATM   31  C   UNL     1     -39.976  52.385 -51.786  1.00  0.00     0.034 A 
HETATM   32  C   UNL     1     -39.851  51.447 -52.810  1.00  0.00     0.062 A 
HETATM   33  N   UNL     1     -39.044  50.349 -52.946  1.00  0.00    -0.278 N 
HETATM   34  C   UNL     1     -40.607  51.497 -53.973  1.00  0.00     0.013 A 
HETATM   35  H   UNL     1     -38.359  50.001 -52.284  1.00  0.00     0.189 HD
HETATM   36  N   UNL     1     -39.213  49.684 -54.103  1.00  0.00    -0.186 NA
HETATM   37  C   UNL     1     -40.163  50.386 -54.726  1.00  0.00     0.152 A 
HETATM   38  C   UNL     1     -41.552  52.528 -54.141  1.00  0.00     0.044 A 
ENDBRANCH  27  29
ENDBRANCH   3  27
TORSDOF 6
ENDMDL
MODEL 8
REMARK VINA RESULT:      -8.1      2.592      7.070
REMARK  6 active torsions:
REMARK  status: ('A' for Active; 'I' for Inactive)
REMARK    1  A    between atoms: C_2  and  C_3 
REMARK       I    between atoms: C_2  and  N_9 
REMARK    2  A    between atoms: C_3  and  N_4 
REMARK    3  A    between atoms: N_9  and  C_10 
REMARK    4  A    between atoms: C_15  and  C_16 
REMARK    5  A    between atoms: C_18  and  N_19 
REMARK    6  A    between atoms: N_19  and  C_20 
ROOT
HETATM    1  C   UNL     1     -41.757  56.358 -54.914  1.00  0.00     0.164 A 
HETATM    2  N   UNL     1     -41.928  56.281 -56.240  1.00  0.00    -0.210 NA
HETATM    3  C   UNL     1     -42.199  57.410 -56.915  1.00  0.00     0.143 A 
HETATM    4  C   UNL     1     -42.333  58.645 -56.262  1.00  0.00     0.039 A 
HETATM    5  C   UNL     1     -42.621  59.879 -56.902  1.00  0.00     0.018 A 
HETATM    6  C   UNL     1     -42.733  61.055 -56.165  1.00  0.00     0.001 A 
HETATM    7  C   UNL     1     -42.554  61.015 -54.788  1.00  0.00     0.002 A 
HETATM    8  C   UNL     1     -42.258  59.801 -54.160  1.00  0.00     0.032 A 
HETATM    9  C   UNL     1     -42.141  58.614 -54.873  1.00  0.00     0.073 A 
HETATM   10  N   UNL     1     -41.843  57.496 -54.204  1.00  0.00    -0.228 NA
ENDROOT
BRANCH   1  11
HETATM   11  C   UNL     1     -41.429  55.100 -54.215  1.00  0.00     0.039 A 
HETATM   12  C   UNL     1     -42.038  54.693 -53.000  1.00  0.00     0.049 A 
HETATM   13  C   UNL     1     -41.606  53.514 -52.372  1.00  0.00     0.030 A 
HETATM   14  C   UNL     1     -40.598  52.724 -52.927  1.00  0.00     0.002 A 
HETATM   15  C   UNL     1     -39.998  53.103 -54.119  1.00  0.00     0.001 A 
HETATM   16  C   UNL     1     -40.408  54.277 -54.748  1.00  0.00     0.018 A 
BRANCH  12  17
HETATM   17  N   UNL     1     -43.081  55.476 -52.450  1.00  0.00    -0.325 N 
HETATM   18  C   UNL     1     -43.055  56.269 -51.318  1.00  0.00     0.250 C 
HETATM   19  O   UNL     1     -42.069  56.534 -50.633  1.00  0.00    -0.271 OA
HETATM   20  H   UNL     1     -43.980  55.425 -52.932  1.00  0.00     0.169 HD
BRANCH  18  21
HETATM   21  C   UNL     1     -44.421  56.884 -50.990  1.00  0.00     0.375 C 
BRANCH  21  22
HETATM   22  N   UNL     1     -44.530  58.266 -51.503  1.00  0.00     0.097 N 
HETATM   23  C   UNL     1     -45.176  58.317 -52.821  1.00  0.00     0.273 C 
HETATM   24  C   UNL     1     -45.520  59.788 -52.950  1.00  0.00     0.032 C 
HETATM   25  C   UNL     1     -45.870  60.218 -51.531  1.00  0.00     0.032 C 
HETATM   26  C   UNL     1     -45.381  59.086 -50.634  1.00  0.00     0.273 C 
ENDBRANCH  21  22
ENDBRANCH  18  21
ENDBRANCH  12  17
ENDBRANCH   1  11
BRANCH   3  27
HETATM   27  N   UNL     1     -42.357  57.329 -58.324  1.00  0.00    -0.340 N 
HETATM   28  H   UNL     1     -41.935  58.144 -58.754  1.00  0.00     0.167 HD
BRANCH  27  29
HETATM   29  C   UNL     1     -43.523  56.900 -59.007  1.00  0.00     0.034 A 
HETATM   30  C   UNL     1     -43.678  55.569 -59.427  1.00  0.00     0.032 A 
HETATM   31  C   UNL     1     -44.809  55.128 -60.127  1.00  0.00     0.034 A 
HETATM   32  C   UNL     1     -45.783  56.083 -60.413  1.00  0.00     0.062 A 
HETATM   33  N   UNL     1     -46.987  55.991 -61.060  1.00  0.00    -0.278 N 
HETATM   34  C   UNL     1     -45.659  57.417 -60.048  1.00  0.00     0.013 A 
HETATM   35  H   UNL     1     -47.409  55.162 -61.461  1.00  0.00     0.189 HD
HETATM   36  N   UNL     1     -47.653  57.157 -61.146  1.00  0.00    -0.186 NA
HETATM   37  C   UNL     1     -46.842  58.022 -60.532  1.00  0.00     0.152 A 
HETATM   38  C   UNL     1     -44.511  57.841 -59.352  1.00  0.00     0.044 A 
ENDBRANCH  27  29
ENDBRANCH   3  27
TORSDOF 6
ENDMDL
MODEL 9
REMARK VINA RESULT:      -8.0      2.510      7.349
REMARK  6 active torsions:
REMARK  status: ('A' for Active; 'I' for Inactive)
REMARK    1  A    between atoms: C_2  and  C_3 
REMARK       I    between atoms: C_2  and  N_9 
REMARK    2  A    between atoms: C_3  and  N_4 
REMARK    3  A    between atoms: N_9  and  C_10 
REMARK    4  A    between atoms: C_15  and  C_16 
REMARK    5  A    between atoms: C_18  and  N_19 
REMARK    6  A    between atoms: N_19  and  C_20 
ROOT
HETATM    1  C   UNL     1     -41.561  56.034 -52.616  1.00  0.00     0.164 A 
HETATM    2  N   UNL     1     -42.824  56.325 -52.954  1.00  0.00    -0.210 NA
HETATM    3  C   UNL     1     -43.352  57.479 -52.517  1.00  0.00     0.143 A 
HETATM    4  C   UNL     1     -42.626  58.360 -51.701  1.00  0.00     0.039 A 
HETATM    5  C   UNL     1     -43.113  59.594 -51.197  1.00  0.00     0.018 A 
HETATM    6  C   UNL     1     -42.312  60.401 -50.393  1.00  0.00     0.001 A 
HETATM    7  C   UNL     1     -41.020  59.991 -50.091  1.00  0.00     0.002 A 
HETATM    8  C   UNL     1     -40.537  58.782 -50.598  1.00  0.00     0.032 A 
HETATM    9  C   UNL     1     -41.316  57.959 -51.402  1.00  0.00     0.073 A 
HETATM   10  N   UNL     1     -40.779  56.823 -51.860  1.00  0.00    -0.228 NA
ENDROOT
BRANCH   1  11
HETATM   11  C   UNL     1     -41.009  54.771 -53.144  1.00  0.00     0.039 A 
HETATM   12  C   UNL     1     -40.877  54.488 -54.528  1.00  0.00     0.049 A 
HETATM   13  C   UNL     1     -40.409  53.227 -54.933  1.00  0.00     0.030 A 
HETATM   14  C   UNL     1     -40.056  52.251 -54.000  1.00  0.00     0.002 A 
HETATM   15  C   UNL     1     -40.171  52.514 -52.644  1.00  0.00     0.001 A 
HETATM   16  C   UNL     1     -40.645  53.756 -52.226  1.00  0.00     0.018 A 
BRANCH  12  17
HETATM   17  N   UNL     1     -41.205  55.486 -55.476  1.00  0.00    -0.325 N 
HETATM   18  C   UNL     1     -42.347  55.595 -56.248  1.00  0.00     0.250 C 
HETATM   19  O   UNL     1     -43.353  54.895 -56.168  1.00  0.00    -0.271 OA
HETATM   20  H   UNL     1     -40.495  56.202 -55.635  1.00  0.00     0.169 HD
BRANCH  18  21
HETATM   21  C   UNL     1     -42.288  56.768 -57.234  1.00  0.00     0.375 C 
BRANCH  21  22
HETATM   22  N   UNL     1     -43.374  56.691 -58.234  1.00  0.00     0.097 N 
HETATM   23  C   UNL     1     -43.531  57.948 -58.976  1.00  0.00     0.273 C 
HETATM   24  C   UNL     1     -44.385  57.517 -60.154  1.00  0.00     0.032 C 
HETATM   25  C   UNL     1     -43.912  56.103 -60.464  1.00  0.00     0.032 C 
HETATM   26  C   UNL     1     -43.079  55.683 -59.258  1.00  0.00     0.273 C 
ENDBRANCH  21  22
ENDBRANCH  18  21
ENDBRANCH  12  17
ENDBRANCH   1  11
BRANCH   3  27
HETATM   27  N   UNL     1     -44.684  57.795 -52.897  1.00  0.00    -0.340 N 
HETATM   28  H   UNL     1     -45.289  57.014 -52.672  1.00  0.00     0.167 HD
BRANCH  27  29
HETATM   29  C   UNL     1     -45.074  58.455 -54.090  1.00  0.00     0.034 A 
HETATM   30  C   UNL     1     -45.407  57.737 -55.250  1.00  0.00     0.032 A 
HETATM   31  C   UNL     1     -45.770  58.367 -56.447  1.00  0.00     0.034 A 
HETATM   32  C   UNL     1     -45.767  59.761 -56.449  1.00  0.00     0.062 A 
HETATM   33  N   UNL     1     -46.070  60.671 -57.427  1.00  0.00    -0.278 N 
HETATM   34  C   UNL     1     -45.412  60.515 -55.339  1.00  0.00     0.013 A 
HETATM   35  H   UNL     1     -46.374  60.480 -58.375  1.00  0.00     0.189 HD
HETATM   36  N   UNL     1     -45.939  61.954 -57.043  1.00  0.00    -0.186 NA
HETATM   37  C   UNL     1     -45.537  61.855 -55.772  1.00  0.00     0.152 A 
HETATM   38  C   UNL     1     -45.044  59.861 -54.147  1.00  0.00     0.044 A 
ENDBRANCH  27  29
ENDBRANCH   3  27
TORSDOF 6
ENDMDL
MODEL 10
REMARK VINA RESULT:      -7.9      3.174      7.838
REMARK  6 active torsions:
REMARK  status: ('A' for Active; 'I' for Inactive)
REMARK    1  A    between atoms: C_2  and  C_3 
REMARK       I    between atoms: C_2  and  N_9 
REMARK    2  A    between atoms: C_3  and  N_4 
REMARK    3  A    between atoms: N_9  and  C_10 
REMARK    4  A    between atoms: C_15  and  C_16 
REMARK    5  A    between atoms: C_18  and  N_19 
REMARK    6  A    between atoms: N_19  and  C_20 
ROOT
HETATM    1  C   UNL     1     -42.363  57.590 -54.005  1.00  0.00     0.164 A 
HETATM    2  N   UNL     1     -43.376  57.761 -53.147  1.00  0.00    -0.210 NA
HETATM    3  C   UNL     1     -43.116  58.322 -51.955  1.00  0.00     0.143 A 
HETATM    4  C   UNL     1     -41.816  58.700 -51.586  1.00  0.00     0.039 A 
HETATM    5  C   UNL     1     -41.459  59.294 -50.348  1.00  0.00     0.018 A 
HETATM    6  C   UNL     1     -40.138  59.636 -50.076  1.00  0.00     0.001 A 
HETATM    7  C   UNL     1     -39.162  59.397 -51.034  1.00  0.00     0.002 A 
HETATM    8  C   UNL     1     -39.516  58.823 -52.259  1.00  0.00     0.032 A 
HETATM    9  C   UNL     1     -40.828  58.473 -52.554  1.00  0.00     0.073 A 
HETATM   10  N   UNL     1     -41.090  57.941 -53.753  1.00  0.00    -0.228 NA
ENDROOT
BRANCH   1  11
HETATM   11  C   UNL     1     -42.698  57.000 -55.316  1.00  0.00     0.039 A 
HETATM   12  C   UNL     1     -42.564  55.619 -55.613  1.00  0.00     0.049 A 
HETATM   13  C   UNL     1     -42.837  55.164 -56.913  1.00  0.00     0.030 A 
HETATM   14  C   UNL     1     -43.253  56.041 -57.916  1.00  0.00     0.002 A 
HETATM   15  C   UNL     1     -43.397  57.392 -57.640  1.00  0.00     0.001 A 
HETATM   16  C   UNL     1     -43.118  57.861 -56.358  1.00  0.00     0.018 A 
BRANCH  12  17
HETATM   17  N   UNL     1     -42.171  54.722 -54.591  1.00  0.00    -0.325 N 
HETATM   18  C   UNL     1     -40.927  54.160 -54.373  1.00  0.00     0.250 C 
HETATM   19  O   UNL     1     -39.888  54.430 -54.970  1.00  0.00    -0.271 OA
HETATM   20  H   UNL     1     -42.908  54.426 -53.949  1.00  0.00     0.169 HD
BRANCH  18  21
HETATM   21  C   UNL     1     -40.924  53.155 -53.215  1.00  0.00     0.375 C 
BRANCH  21  22
HETATM   22  N   UNL     1     -40.310  53.728 -52.000  1.00  0.00     0.097 N 
HETATM   23  C   UNL     1     -41.081  54.862 -51.473  1.00  0.00     0.273 C 
HETATM   24  C   UNL     1     -40.508  55.016 -50.077  1.00  0.00     0.032 C 
HETATM   25  C   UNL     1     -40.200  53.591 -49.638  1.00  0.00     0.032 C 
HETATM   26  C   UNL     1     -40.285  52.750 -50.907  1.00  0.00     0.273 C 
ENDBRANCH  21  22
ENDBRANCH  18  21
ENDBRANCH  12  17
ENDBRANCH   1  11
BRANCH   3  27
HETATM   27  N   UNL     1     -44.198  58.523 -51.057  1.00  0.00    -0.340 N 
HETATM   28  H   UNL     1     -44.705  57.653 -50.945  1.00  0.00     0.167 HD
BRANCH  27  29
HETATM   29  C   UNL     1     -45.052  59.655 -51.024  1.00  0.00     0.034 A 
HETATM   30  C   UNL     1     -45.837  60.013 -52.132  1.00  0.00     0.032 A 
HETATM   31  C   UNL     1     -46.668  61.140 -52.133  1.00  0.00     0.034 A 
HETATM   32  C   UNL     1     -46.671  61.919 -50.977  1.00  0.00     0.062 A 
HETATM   33  N   UNL     1     -47.357  63.058 -50.648  1.00  0.00    -0.278 N 
HETATM   34  C   UNL     1     -45.887  61.626 -49.869  1.00  0.00     0.013 A 
HETATM   35  H   UNL     1     -48.028  63.560 -51.217  1.00  0.00     0.189 HD
HETATM   36  N   UNL     1     -47.081  63.528 -49.418  1.00  0.00    -0.186 NA
HETATM   37  C   UNL     1     -46.185  62.655 -48.948  1.00  0.00     0.152 A 
HETATM   38  C   UNL     1     -45.053  60.491 -49.892  1.00  0.00     0.044 A 
ENDBRANCH  27  29
ENDBRANCH   3  27
TORSDOF 6
ENDMDL
