MODEL 1
REMARK VINA RESULT:      -7.9      0.000      0.000
REMARK  9 active torsions:
REMARK  status: ('A' for Active; 'I' for Inactive)
REMARK    1  A    between atoms: C_2  and  N_3 
REMARK    2  A    between atoms: C_4  and  S_5 
REMARK    3  A    between atoms: S_5  and  C_6 
REMARK    4  A    between atoms: C_6  and  C_7 
REMARK       I    between atoms: C_7  and  N_8 
REMARK    5  A    between atoms: N_8  and  C_9 
REMARK    6  A    between atoms: C_9  and  C_10 
REMARK    7  A    between atoms: C_10  and  C_11 
REMARK    8  A    between atoms: C_14  and  O_15 
REMARK    9  A    between atoms: C_22  and  C_23 
ROOT
HETATM    1  C   UNL     1     -40.734  58.617 -52.776  1.00  0.00     0.185 C 
ENDROOT
BRANCH   1   2
HETATM    2  S   UNL     1     -41.838  57.345 -52.094  1.00  0.00    -0.081 SA
BRANCH   2   3
HETATM    3  C   UNL     1     -41.227  55.955 -52.921  1.00  0.00     0.192 A 
HETATM    4  N   UNL     1     -41.246  54.678 -52.419  1.00  0.00    -0.308 N 
HETATM    5  C   UNL     1     -40.631  53.893 -53.381  1.00  0.00     0.164 A 
HETATM    6  N   UNL     1     -40.287  54.682 -54.388  1.00  0.00    -0.128 NA
HETATM    7  N   UNL     1     -40.668  55.965 -54.104  1.00  0.00    -0.122 NA
BRANCH   4   8
HETATM    8  C   UNL     1     -41.697  54.284 -51.100  1.00  0.00     0.128 C 
HETATM    9  C   UNL     1     -43.176  53.925 -51.062  1.00  0.00     0.027 C 
ENDBRANCH   4   8
BRANCH   5  10
HETATM   10  C   UNL     1     -40.311  52.459 -53.328  1.00  0.00     0.012 A 
HETATM   11  C   UNL     1     -39.795  51.933 -52.131  1.00  0.00     0.015 A 
HETATM   12  C   UNL     1     -39.452  50.584 -52.021  1.00  0.00     0.001 A 
HETATM   13  C   UNL     1     -39.617  49.735 -53.111  1.00  0.00     0.000 A 
HETATM   14  C   UNL     1     -40.108  50.241 -54.312  1.00  0.00     0.001 A 
HETATM   15  C   UNL     1     -40.441  51.596 -54.422  1.00  0.00     0.015 A 
ENDBRANCH   5  10
ENDBRANCH   2   3
ENDBRANCH   1   2
BRANCH   1  16
HETATM   16  C   UNL     1     -41.508  59.481 -53.756  1.00  0.00     0.227 C 
HETATM   17  N   UNL     1     -41.827  58.852 -54.946  1.00  0.00    -0.360 N 
HETATM   18  H   UNL     1     -41.774  57.841 -54.970  1.00  0.00     0.162 HD
HETATM   19  O   UNL     1     -41.816  60.646 -53.511  1.00  0.00    -0.273 OA
BRANCH  17  20
HETATM   20  C   UNL     1     -42.668  59.507 -55.935  1.00  0.00     0.127 C 
BRANCH  20  21
HETATM   21  C   UNL     1     -41.983  59.580 -57.299  1.00  0.00     0.058 C 
BRANCH  21  22
HETATM   22  C   UNL     1     -42.493  58.523 -58.244  1.00  0.00    -0.057 A 
HETATM   23  C   UNL     1     -43.608  57.748 -57.909  1.00  0.00     0.010 A 
HETATM   24  C   UNL     1     -44.063  56.753 -58.777  1.00  0.00     0.037 A 
HETATM   25  C   UNL     1     -43.413  56.511 -59.989  1.00  0.00     0.068 A 
HETATM   26  C   UNL     1     -42.299  57.280 -60.327  1.00  0.00     0.037 A 
HETATM   27  C   UNL     1     -41.841  58.278 -59.459  1.00  0.00     0.010 A 
BRANCH  25  28
HETATM   28  O   UNL     1     -43.959  55.509 -60.742  1.00  0.00    -0.356 OA
HETATM   29  C   UNL     1     -44.917  54.676 -60.102  1.00  0.00     0.210 C 
ENDBRANCH  25  28
ENDBRANCH  21  22
ENDBRANCH  20  21
ENDBRANCH  17  20
ENDBRANCH   1  16
TORSDOF 9
ENDMDL
MODEL 2
REMARK VINA RESULT:      -7.8      1.600      2.166
REMARK  9 active torsions:
REMARK  status: ('A' for Active; 'I' for Inactive)
REMARK    1  A    between atoms: C_2  and  N_3 
REMARK    2  A    between atoms: C_4  and  S_5 
REMARK    3  A    between atoms: S_5  and  C_6 
REMARK    4  A    between atoms: C_6  and  C_7 
REMARK       I    between atoms: C_7  and  N_8 
REMARK    5  A    between atoms: N_8  and  C_9 
REMARK    6  A    between atoms: C_9  and  C_10 
REMARK    7  A    between atoms: C_10  and  C_11 
REMARK    8  A    between atoms: C_14  and  O_15 
REMARK    9  A    between atoms: C_22  and  C_23 
ROOT
HETATM    1  C   UNL     1     -43.629  57.190 -52.673  1.00  0.00     0.185 C 
ENDROOT
BRANCH   1   2
HETATM    2  S   UNL     1     -41.859  57.432 -52.345  1.00  0.00    -0.081 SA
BRANCH   2   3
HETATM    3  C   UNL     1     -41.228  55.996 -53.074  1.00  0.00     0.192 A 
HETATM    4  N   UNL     1     -41.225  54.758 -52.481  1.00  0.00    -0.308 N 
HETATM    5  C   UNL     1     -40.601  53.916 -53.388  1.00  0.00     0.164 A 
HETATM    6  N   UNL     1     -40.274  54.637 -54.450  1.00  0.00    -0.128 NA
HETATM    7  N   UNL     1     -40.675  55.931 -54.257  1.00  0.00    -0.122 NA
BRANCH   4   8
HETATM    8  C   UNL     1     -41.665  54.452 -51.136  1.00  0.00     0.128 C 
HETATM    9  C   UNL     1     -43.108  53.971 -51.079  1.00  0.00     0.027 C 
ENDBRANCH   4   8
BRANCH   5  10
HETATM   10  C   UNL     1     -40.257  52.496 -53.235  1.00  0.00     0.012 A 
HETATM   11  C   UNL     1     -40.473  51.634 -54.324  1.00  0.00     0.015 A 
HETATM   12  C   UNL     1     -40.186  50.270 -54.237  1.00  0.00     0.001 A 
HETATM   13  C   UNL     1     -39.678  49.742 -53.054  1.00  0.00     0.000 A 
HETATM   14  C   UNL     1     -39.475  50.575 -51.958  1.00  0.00     0.001 A 
HETATM   15  C   UNL     1     -39.774  51.941 -52.044  1.00  0.00     0.015 A 
ENDBRANCH   5  10
ENDBRANCH   2   3
ENDBRANCH   1   2
BRANCH   1  16
HETATM   16  C   UNL     1     -43.918  57.504 -54.131  1.00  0.00     0.227 C 
HETATM   17  N   UNL     1     -42.935  58.247 -54.761  1.00  0.00    -0.360 N 
HETATM   18  H   UNL     1     -42.025  58.289 -54.320  1.00  0.00     0.162 HD
HETATM   19  O   UNL     1     -44.943  57.134 -54.698  1.00  0.00    -0.273 OA
BRANCH  17  20
HETATM   20  C   UNL     1     -43.008  58.526 -56.186  1.00  0.00     0.127 C 
BRANCH  20  21
HETATM   21  C   UNL     1     -42.536  57.335 -57.019  1.00  0.00     0.058 C 
BRANCH  21  22
HETATM   22  C   UNL     1     -43.571  56.906 -58.028  1.00  0.00    -0.057 A 
HETATM   23  C   UNL     1     -43.351  55.788 -58.839  1.00  0.00     0.010 A 
HETATM   24  C   UNL     1     -44.303  55.408 -59.789  1.00  0.00     0.037 A 
HETATM   25  C   UNL     1     -45.484  56.136 -59.948  1.00  0.00     0.068 A 
HETATM   26  C   UNL     1     -45.706  57.253 -59.143  1.00  0.00     0.037 A 
HETATM   27  C   UNL     1     -44.755  57.636 -58.190  1.00  0.00     0.010 A 
BRANCH  25  28
HETATM   28  O   UNL     1     -46.326  55.658 -60.913  1.00  0.00    -0.356 OA
HETATM   29  C   UNL     1     -47.431  56.480 -61.266  1.00  0.00     0.210 C 
ENDBRANCH  25  28
ENDBRANCH  21  22
ENDBRANCH  20  21
ENDBRANCH  17  20
ENDBRANCH   1  16
TORSDOF 9
ENDMDL
MODEL 3
REMARK VINA RESULT:      -7.7      1.557      2.096
REMARK  9 active torsions:
REMARK  status: ('A' for Active; 'I' for Inactive)
REMARK    1  A    between atoms: C_2  and  N_3 
REMARK    2  A    between atoms: C_4  and  S_5 
REMARK    3  A    between atoms: S_5  and  C_6 
REMARK    4  A    between atoms: C_6  and  C_7 
REMARK       I    between atoms: C_7  and  N_8 
REMARK    5  A    between atoms: N_8  and  C_9 
REMARK    6  A    between atoms: C_9  and  C_10 
REMARK    7  A    between atoms: C_10  and  C_11 
REMARK    8  A    between atoms: C_14  and  O_15 
REMARK    9  A    between atoms: C_22  and  C_23 
ROOT
HETATM    1  C   UNL     1     -43.815  57.078 -51.682  1.00  0.00     0.185 C 
ENDROOT
BRANCH   1   2
HETATM    2  S   UNL     1     -42.045  57.248 -51.311  1.00  0.00    -0.081 SA
BRANCH   2   3
HETATM    3  C   UNL     1     -41.419  55.958 -52.279  1.00  0.00     0.192 A 
HETATM    4  N   UNL     1     -41.321  54.653 -51.868  1.00  0.00    -0.308 N 
HETATM    5  C   UNL     1     -40.739  53.975 -52.927  1.00  0.00     0.164 A 
HETATM    6  N   UNL     1     -40.526  54.849 -53.899  1.00  0.00    -0.128 NA
HETATM    7  N   UNL     1     -40.959  56.083 -53.497  1.00  0.00    -0.122 NA
BRANCH   4   8
HETATM    8  C   UNL     1     -41.640  54.144 -50.550  1.00  0.00     0.128 C 
HETATM    9  C   UNL     1     -40.544  54.414 -49.528  1.00  0.00     0.027 C 
ENDBRANCH   4   8
BRANCH   5  10
HETATM   10  C   UNL     1     -40.330  52.565 -53.000  1.00  0.00     0.012 A 
HETATM   11  C   UNL     1     -40.550  51.867 -54.200  1.00  0.00     0.015 A 
HETATM   12  C   UNL     1     -40.201  50.520 -54.329  1.00  0.00     0.001 A 
HETATM   13  C   UNL     1     -39.628  49.846 -53.255  1.00  0.00     0.000 A 
HETATM   14  C   UNL     1     -39.419  50.515 -52.052  1.00  0.00     0.001 A 
HETATM   15  C   UNL     1     -39.779  51.862 -51.922  1.00  0.00     0.015 A 
ENDBRANCH   5  10
ENDBRANCH   2   3
ENDBRANCH   1   2
BRANCH   1  16
HETATM   16  C   UNL     1     -44.093  57.627 -53.071  1.00  0.00     0.227 C 
HETATM   17  N   UNL     1     -43.260  58.664 -53.453  1.00  0.00    -0.360 N 
HETATM   18  H   UNL     1     -42.401  58.791 -52.932  1.00  0.00     0.162 HD
HETATM   19  O   UNL     1     -44.989  57.189 -53.789  1.00  0.00    -0.273 OA
BRANCH  17  20
HETATM   20  C   UNL     1     -43.322  59.214 -54.797  1.00  0.00     0.127 C 
BRANCH  20  21
HETATM   21  C   UNL     1     -42.057  58.898 -55.596  1.00  0.00     0.058 C 
BRANCH  21  22
HETATM   22  C   UNL     1     -42.347  58.024 -56.789  1.00  0.00    -0.057 A 
HETATM   23  C   UNL     1     -42.138  58.502 -58.087  1.00  0.00     0.010 A 
HETATM   24  C   UNL     1     -42.431  57.697 -59.191  1.00  0.00     0.037 A 
HETATM   25  C   UNL     1     -42.939  56.408 -59.019  1.00  0.00     0.068 A 
HETATM   26  C   UNL     1     -43.151  55.927 -57.727  1.00  0.00     0.037 A 
HETATM   27  C   UNL     1     -42.858  56.732 -56.619  1.00  0.00     0.010 A 
BRANCH  25  28
HETATM   28  O   UNL     1     -43.184  55.730 -60.181  1.00  0.00    -0.356 OA
HETATM   29  C   UNL     1     -44.317  54.871 -60.197  1.00  0.00     0.210 C 
ENDBRANCH  25  28
ENDBRANCH  21  22
ENDBRANCH  20  21
ENDBRANCH  17  20
ENDBRANCH   1  16
TORSDOF 9
ENDMDL
MODEL 4
REMARK VINA RESULT:      -7.4      1.465      1.978
REMARK  9 active torsions:
REMARK  status: ('A' for Active; 'I' for Inactive)
REMARK    1  A    between atoms: C_2  and  N_3 
REMARK    2  A    between atoms: C_4  and  S_5 
REMARK    3  A    between atoms: S_5  and  C_6 
REMARK    4  A    between atoms: C_6  and  C_7 
REMARK       I    between atoms: C_7  and  N_8 
REMARK    5  A    between atoms: N_8  and  C_9 
REMARK    6  A    between atoms: C_9  and  C_10 
REMARK    7  A    between atoms: C_10  and  C_11 
REMARK    8  A    between atoms: C_14  and  O_15 
REMARK    9  A    between atoms: C_22  and  C_23 
ROOT
HETATM    1  C   UNL     1     -41.795  58.283 -52.161  1.00  0.00     0.185 C 
ENDROOT
BRANCH   1   2
HETATM    2  S   UNL     1     -42.956  56.893 -52.017  1.00  0.00    -0.081 SA
BRANCH   2   3
HETATM    3  C   UNL     1     -41.832  55.590 -51.850  1.00  0.00     0.192 A 
HETATM    4  N   UNL     1     -41.801  54.478 -52.654  1.00  0.00    -0.308 N 
HETATM    5  C   UNL     1     -40.783  53.685 -52.150  1.00  0.00     0.164 A 
HETATM    6  N   UNL     1     -40.251  54.319 -51.115  1.00  0.00    -0.128 NA
HETATM    7  N   UNL     1     -40.900  55.510 -50.935  1.00  0.00    -0.122 NA
BRANCH   4   8
HETATM    8  C   UNL     1     -42.736  54.163 -53.714  1.00  0.00     0.128 C 
HETATM    9  C   UNL     1     -42.306  54.714 -55.067  1.00  0.00     0.027 C 
ENDBRANCH   4   8
BRANCH   5  10
HETATM   10  C   UNL     1     -40.367  52.343 -52.580  1.00  0.00     0.012 A 
HETATM   11  C   UNL     1     -39.901  51.443 -51.605  1.00  0.00     0.015 A 
HETATM   12  C   UNL     1     -39.473  50.159 -51.950  1.00  0.00     0.001 A 
HETATM   13  C   UNL     1     -39.500  49.753 -53.280  1.00  0.00     0.000 A 
HETATM   14  C   UNL     1     -39.939  50.636 -54.263  1.00  0.00     0.001 A 
HETATM   15  C   UNL     1     -40.358  51.926 -53.916  1.00  0.00     0.015 A 
ENDBRANCH   5  10
ENDBRANCH   2   3
ENDBRANCH   1   2
BRANCH   1  16
HETATM   16  C   UNL     1     -41.780  58.777 -53.597  1.00  0.00     0.227 C 
HETATM   17  N   UNL     1     -42.839  58.330 -54.367  1.00  0.00    -0.360 N 
HETATM   18  H   UNL     1     -43.647  57.960 -53.883  1.00  0.00     0.162 HD
HETATM   19  O   UNL     1     -40.894  59.507 -54.037  1.00  0.00    -0.273 OA
BRANCH  17  20
HETATM   20  C   UNL     1     -43.030  58.812 -55.726  1.00  0.00     0.127 C 
BRANCH  20  21
HETATM   21  C   UNL     1     -42.365  57.892 -56.750  1.00  0.00     0.058 C 
BRANCH  21  22
HETATM   22  C   UNL     1     -43.363  57.308 -57.716  1.00  0.00    -0.057 A 
HETATM   23  C   UNL     1     -43.074  56.128 -58.410  1.00  0.00     0.010 A 
HETATM   24  C   UNL     1     -43.992  55.604 -59.323  1.00  0.00     0.037 A 
HETATM   25  C   UNL     1     -45.208  56.247 -59.562  1.00  0.00     0.068 A 
HETATM   26  C   UNL     1     -45.500  57.425 -58.875  1.00  0.00     0.037 A 
HETATM   27  C   UNL     1     -44.582  57.952 -57.959  1.00  0.00     0.010 A 
BRANCH  25  28
HETATM   28  O   UNL     1     -46.012  55.629 -60.480  1.00  0.00    -0.356 OA
HETATM   29  C   UNL     1     -47.118  56.376 -60.971  1.00  0.00     0.210 C 
ENDBRANCH  25  28
ENDBRANCH  21  22
ENDBRANCH  20  21
ENDBRANCH  17  20
ENDBRANCH   1  16
TORSDOF 9
ENDMDL
MODEL 5
REMARK VINA RESULT:      -7.4      2.564      7.437
REMARK  9 active torsions:
REMARK  status: ('A' for Active; 'I' for Inactive)
REMARK    1  A    between atoms: C_2  and  N_3 
REMARK    2  A    between atoms: C_4  and  S_5 
REMARK    3  A    between atoms: S_5  and  C_6 
REMARK    4  A    between atoms: C_6  and  C_7 
REMARK       I    between atoms: C_7  and  N_8 
REMARK    5  A    between atoms: N_8  and  C_9 
REMARK    6  A    between atoms: C_9  and  C_10 
REMARK    7  A    between atoms: C_10  and  C_11 
REMARK    8  A    between atoms: C_14  and  O_15 
REMARK    9  A    between atoms: C_22  and  C_23 
ROOT
HETATM    1  C   UNL     1     -40.770  59.158 -53.283  1.00  0.00     0.185 C 
ENDROOT
BRANCH   1   2
HETATM    2  S   UNL     1     -42.306  60.011 -53.746  1.00  0.00    -0.081 SA
BRANCH   2   3
HETATM    3  C   UNL     1     -42.358  59.624 -55.431  1.00  0.00     0.192 A 
HETATM    4  N   UNL     1     -43.171  58.668 -55.986  1.00  0.00    -0.308 N 
HETATM    5  C   UNL     1     -42.866  58.662 -57.338  1.00  0.00     0.164 A 
HETATM    6  N   UNL     1     -41.931  59.578 -57.545  1.00  0.00    -0.128 NA
HETATM    7  N   UNL     1     -41.623  60.183 -56.357  1.00  0.00    -0.122 NA
BRANCH   4   8
HETATM    8  C   UNL     1     -44.055  57.773 -55.267  1.00  0.00     0.128 C 
HETATM    9  C   UNL     1     -45.527  58.047 -55.542  1.00  0.00     0.027 C 
ENDBRANCH   4   8
BRANCH   5  10
HETATM   10  C   UNL     1     -43.381  57.777 -58.391  1.00  0.00     0.012 A 
HETATM   11  C   UNL     1     -42.735  56.548 -58.607  1.00  0.00     0.015 A 
HETATM   12  C   UNL     1     -43.163  55.670 -59.606  1.00  0.00     0.001 A 
HETATM   13  C   UNL     1     -44.247  56.009 -60.410  1.00  0.00     0.000 A 
HETATM   14  C   UNL     1     -44.888  57.230 -60.224  1.00  0.00     0.001 A 
HETATM   15  C   UNL     1     -44.451  58.113 -59.230  1.00  0.00     0.015 A 
ENDBRANCH   5  10
ENDBRANCH   2   3
ENDBRANCH   1   2
BRANCH   1  16
HETATM   16  C   UNL     1     -41.031  57.664 -53.200  1.00  0.00     0.227 C 
HETATM   17  N   UNL     1     -41.766  57.273 -52.095  1.00  0.00    -0.360 N 
HETATM   18  H   UNL     1     -42.285  57.987 -51.600  1.00  0.00     0.162 HD
HETATM   19  O   UNL     1     -40.614  56.871 -54.041  1.00  0.00    -0.273 OA
BRANCH  17  20
HETATM   20  C   UNL     1     -42.199  55.894 -51.936  1.00  0.00     0.127 C 
BRANCH  20  21
HETATM   21  C   UNL     1     -41.245  55.101 -51.043  1.00  0.00     0.058 C 
BRANCH  21  22
HETATM   22  C   UNL     1     -40.770  53.835 -51.709  1.00  0.00    -0.057 A 
HETATM   23  C   UNL     1     -40.064  52.872 -50.980  1.00  0.00     0.010 A 
HETATM   24  C   UNL     1     -39.604  51.711 -51.607  1.00  0.00     0.037 A 
HETATM   25  C   UNL     1     -39.837  51.493 -52.966  1.00  0.00     0.068 A 
HETATM   26  C   UNL     1     -40.539  52.451 -53.697  1.00  0.00     0.037 A 
HETATM   27  C   UNL     1     -41.001  53.615 -53.072  1.00  0.00     0.010 A 
BRANCH  25  28
HETATM   28  O   UNL     1     -39.332  50.319 -53.453  1.00  0.00    -0.356 OA
HETATM   29  C   UNL     1     -39.841  49.870 -54.702  1.00  0.00     0.210 C 
ENDBRANCH  25  28
ENDBRANCH  21  22
ENDBRANCH  20  21
ENDBRANCH  17  20
ENDBRANCH   1  16
TORSDOF 9
ENDMDL
MODEL 6
REMARK VINA RESULT:      -7.3      2.227      2.953
REMARK  9 active torsions:
REMARK  status: ('A' for Active; 'I' for Inactive)
REMARK    1  A    between atoms: C_2  and  N_3 
REMARK    2  A    between atoms: C_4  and  S_5 
REMARK    3  A    between atoms: S_5  and  C_6 
REMARK    4  A    between atoms: C_6  and  C_7 
REMARK       I    between atoms: C_7  and  N_8 
REMARK    5  A    between atoms: N_8  and  C_9 
REMARK    6  A    between atoms: C_9  and  C_10 
REMARK    7  A    between atoms: C_10  and  C_11 
REMARK    8  A    between atoms: C_14  and  O_15 
REMARK    9  A    between atoms: C_22  and  C_23 
ROOT
HETATM    1  C   UNL     1     -40.311  58.141 -51.010  1.00  0.00     0.185 C 
ENDROOT
BRANCH   1   2
HETATM    2  S   UNL     1     -41.698  57.046 -50.586  1.00  0.00    -0.081 SA
BRANCH   2   3
HETATM    3  C   UNL     1     -40.913  55.512 -50.728  1.00  0.00     0.192 A 
HETATM    4  N   UNL     1     -41.011  54.685 -51.819  1.00  0.00    -0.308 N 
HETATM    5  C   UNL     1     -40.265  53.561 -51.499  1.00  0.00     0.164 A 
HETATM    6  N   UNL     1     -39.757  53.744 -50.288  1.00  0.00    -0.128 NA
HETATM    7  N   UNL     1     -40.154  54.965 -49.814  1.00  0.00    -0.122 NA
BRANCH   4   8
HETATM    8  C   UNL     1     -41.837  54.904 -52.988  1.00  0.00     0.128 C 
HETATM    9  C   UNL     1     -43.259  54.391 -52.814  1.00  0.00     0.027 C 
ENDBRANCH   4   8
BRANCH   5  10
HETATM   10  C   UNL     1     -40.091  52.324 -52.272  1.00  0.00     0.012 A 
HETATM   11  C   UNL     1     -39.709  51.157 -51.589  1.00  0.00     0.015 A 
HETATM   12  C   UNL     1     -39.508  49.953 -52.267  1.00  0.00     0.001 A 
HETATM   13  C   UNL     1     -39.684  49.896 -53.647  1.00  0.00     0.000 A 
HETATM   14  C   UNL     1     -40.044  51.046 -54.344  1.00  0.00     0.001 A 
HETATM   15  C   UNL     1     -40.234  52.254 -53.663  1.00  0.00     0.015 A 
ENDBRANCH   5  10
ENDBRANCH   2   3
ENDBRANCH   1   2
BRANCH   1  16
HETATM   16  C   UNL     1     -40.753  59.118 -52.086  1.00  0.00     0.227 C 
HETATM   17  N   UNL     1     -41.939  59.774 -51.810  1.00  0.00    -0.360 N 
HETATM   18  H   UNL     1     -42.265  59.769 -50.852  1.00  0.00     0.162 HD
HETATM   19  O   UNL     1     -40.111  59.300 -53.118  1.00  0.00    -0.273 OA
BRANCH  17  20
HETATM   20  C   UNL     1     -42.432  60.826 -52.685  1.00  0.00     0.127 C 
BRANCH  20  21
HETATM   21  C   UNL     1     -43.786  60.465 -53.295  1.00  0.00     0.058 C 
BRANCH  21  22
HETATM   22  C   UNL     1     -43.668  59.372 -54.326  1.00  0.00    -0.057 A 
HETATM   23  C   UNL     1     -44.407  58.191 -54.197  1.00  0.00     0.010 A 
HETATM   24  C   UNL     1     -44.276  57.170 -55.142  1.00  0.00     0.037 A 
HETATM   25  C   UNL     1     -43.406  57.307 -56.225  1.00  0.00     0.068 A 
HETATM   26  C   UNL     1     -42.665  58.482 -56.357  1.00  0.00     0.037 A 
HETATM   27  C   UNL     1     -42.795  59.507 -55.412  1.00  0.00     0.010 A 
BRANCH  25  28
HETATM   28  O   UNL     1     -43.372  56.234 -57.072  1.00  0.00    -0.356 OA
HETATM   29  C   UNL     1     -42.738  55.056 -56.589  1.00  0.00     0.210 C 
ENDBRANCH  25  28
ENDBRANCH  21  22
ENDBRANCH  20  21
ENDBRANCH  17  20
ENDBRANCH   1  16
TORSDOF 9
ENDMDL
MODEL 7
REMARK VINA RESULT:      -7.3      2.623      7.505
REMARK  9 active torsions:
REMARK  status: ('A' for Active; 'I' for Inactive)
REMARK    1  A    between atoms: C_2  and  N_3 
REMARK    2  A    between atoms: C_4  and  S_5 
REMARK    3  A    between atoms: S_5  and  C_6 
REMARK    4  A    between atoms: C_6  and  C_7 
REMARK       I    between atoms: C_7  and  N_8 
REMARK    5  A    between atoms: N_8  and  C_9 
REMARK    6  A    between atoms: C_9  and  C_10 
REMARK    7  A    between atoms: C_10  and  C_11 
REMARK    8  A    between atoms: C_14  and  O_15 
REMARK    9  A    between atoms: C_22  and  C_23 
ROOT
HETATM    1  C   UNL     1     -42.625  60.393 -54.113  1.00  0.00     0.185 C 
ENDROOT
BRANCH   1   2
HETATM    2  S   UNL     1     -42.396  60.576 -55.906  1.00  0.00    -0.081 SA
BRANCH   2   3
HETATM    3  C   UNL     1     -43.441  59.317 -56.464  1.00  0.00     0.192 A 
HETATM    4  N   UNL     1     -43.245  58.595 -57.614  1.00  0.00    -0.308 N 
HETATM    5  C   UNL     1     -44.324  57.728 -57.695  1.00  0.00     0.164 A 
HETATM    6  N   UNL     1     -45.092  57.939 -56.636  1.00  0.00    -0.128 NA
HETATM    7  N   UNL     1     -44.535  58.923 -55.864  1.00  0.00    -0.122 NA
BRANCH   4   8
HETATM    8  C   UNL     1     -42.196  58.807 -58.590  1.00  0.00     0.128 C 
HETATM    9  C   UNL     1     -42.625  59.715 -59.734  1.00  0.00     0.027 C 
ENDBRANCH   4   8
BRANCH   5  10
HETATM   10  C   UNL     1     -44.663  56.782 -58.767  1.00  0.00     0.012 A 
HETATM   11  C   UNL     1     -43.802  55.696 -58.997  1.00  0.00     0.015 A 
HETATM   12  C   UNL     1     -44.056  54.772 -60.013  1.00  0.00     0.001 A 
HETATM   13  C   UNL     1     -45.180  54.920 -60.820  1.00  0.00     0.000 A 
HETATM   14  C   UNL     1     -46.035  56.000 -60.621  1.00  0.00     0.001 A 
HETATM   15  C   UNL     1     -45.772  56.931 -59.608  1.00  0.00     0.015 A 
ENDBRANCH   5  10
ENDBRANCH   2   3
ENDBRANCH   1   2
BRANCH   1  16
HETATM   16  C   UNL     1     -41.680  59.324 -53.592  1.00  0.00     0.227 C 
HETATM   17  N   UNL     1     -42.217  58.048 -53.569  1.00  0.00    -0.360 N 
HETATM   18  H   UNL     1     -43.046  57.879 -54.125  1.00  0.00     0.162 HD
HETATM   19  O   UNL     1     -40.538  59.576 -53.215  1.00  0.00    -0.273 OA
BRANCH  17  20
HETATM   20  C   UNL     1     -41.399  56.901 -53.211  1.00  0.00     0.127 C 
BRANCH  20  21
HETATM   21  C   UNL     1     -41.337  55.875 -54.342  1.00  0.00     0.058 C 
BRANCH  21  22
HETATM   22  C   UNL     1     -40.831  54.538 -53.866  1.00  0.00    -0.057 A 
HETATM   23  C   UNL     1     -40.483  53.542 -54.785  1.00  0.00     0.010 A 
HETATM   24  C   UNL     1     -40.037  52.296 -54.338  1.00  0.00     0.037 A 
HETATM   25  C   UNL     1     -39.933  52.022 -52.973  1.00  0.00     0.068 A 
HETATM   26  C   UNL     1     -40.280  53.011 -52.053  1.00  0.00     0.037 A 
HETATM   27  C   UNL     1     -40.727  54.261 -52.498  1.00  0.00     0.010 A 
BRANCH  25  28
HETATM   28  O   UNL     1     -39.486  50.764 -52.674  1.00  0.00    -0.356 OA
HETATM   29  C   UNL     1     -39.763  49.742 -53.623  1.00  0.00     0.210 C 
ENDBRANCH  25  28
ENDBRANCH  21  22
ENDBRANCH  20  21
ENDBRANCH  17  20
ENDBRANCH   1  16
TORSDOF 9
ENDMDL
MODEL 8
REMARK VINA RESULT:      -7.2      2.020      2.345
REMARK  9 active torsions:
REMARK  status: ('A' for Active; 'I' for Inactive)
REMARK    1  A    between atoms: C_2  and  N_3 
REMARK    2  A    between atoms: C_4  and  S_5 
REMARK    3  A    between atoms: S_5  and  C_6 
REMARK    4  A    between atoms: C_6  and  C_7 
REMARK       I    between atoms: C_7  and  N_8 
REMARK    5  A    between atoms: N_8  and  C_9 
REMARK    6  A    between atoms: C_9  and  C_10 
REMARK    7  A    between atoms: C_10  and  C_11 
REMARK    8  A    between atoms: C_14  and  O_15 
REMARK    9  A    between atoms: C_22  and  C_23 
ROOT
HETATM    1  C   UNL     1     -44.737  57.267 -54.318  1.00  0.00     0.185 C 
ENDROOT
BRANCH   1   2
HETATM    2  S   UNL     1     -43.600  57.406 -52.908  1.00  0.00    -0.081 SA
BRANCH   2   3
HETATM    3  C   UNL     1     -42.401  56.254 -53.387  1.00  0.00     0.192 A 
HETATM    4  N   UNL     1     -42.391  54.936 -53.006  1.00  0.00    -0.308 N 
HETATM    5  C   UNL     1     -41.251  54.395 -53.577  1.00  0.00     0.164 A 
HETATM    6  N   UNL     1     -40.645  55.356 -54.260  1.00  0.00    -0.128 NA
HETATM    7  N   UNL     1     -41.369  56.512 -54.148  1.00  0.00    -0.122 NA
BRANCH   4   8
HETATM    8  C   UNL     1     -43.316  54.303 -52.089  1.00  0.00     0.128 C 
HETATM    9  C   UNL     1     -42.942  54.516 -50.628  1.00  0.00     0.027 C 
ENDBRANCH   4   8
BRANCH   5  10
HETATM   10  C   UNL     1     -40.706  53.038 -53.430  1.00  0.00     0.012 A 
HETATM   11  C   UNL     1     -40.093  52.692 -52.214  1.00  0.00     0.015 A 
HETATM   12  C   UNL     1     -39.538  51.426 -52.016  1.00  0.00     0.001 A 
HETATM   13  C   UNL     1     -39.584  50.481 -53.037  1.00  0.00     0.000 A 
HETATM   14  C   UNL     1     -40.169  50.811 -54.256  1.00  0.00     0.001 A 
HETATM   15  C   UNL     1     -40.716  52.085 -54.455  1.00  0.00     0.015 A 
ENDBRANCH   5  10
ENDBRANCH   2   3
ENDBRANCH   1   2
BRANCH   1  16
HETATM   16  C   UNL     1     -44.695  58.553 -55.126  1.00  0.00     0.227 C 
HETATM   17  N   UNL     1     -45.878  58.860 -55.775  1.00  0.00    -0.360 N 
HETATM   18  H   UNL     1     -46.718  58.391 -55.462  1.00  0.00     0.162 HD
HETATM   19  O   UNL     1     -43.688  59.253 -55.203  1.00  0.00    -0.273 OA
BRANCH  17  20
HETATM   20  C   UNL     1     -46.033  60.116 -56.490  1.00  0.00     0.127 C 
BRANCH  20  21
HETATM   21  C   UNL     1     -46.718  59.916 -57.841  1.00  0.00     0.058 C 
BRANCH  21  22
HETATM   22  C   UNL     1     -46.010  58.889 -58.687  1.00  0.00    -0.057 A 
HETATM   23  C   UNL     1     -46.580  57.629 -58.899  1.00  0.00     0.010 A 
HETATM   24  C   UNL     1     -45.909  56.671 -59.664  1.00  0.00     0.037 A 
HETATM   25  C   UNL     1     -44.661  56.951 -60.225  1.00  0.00     0.068 A 
HETATM   26  C   UNL     1     -44.088  58.205 -60.013  1.00  0.00     0.037 A 
HETATM   27  C   UNL     1     -44.758  59.167 -59.248  1.00  0.00     0.010 A 
BRANCH  25  28
HETATM   28  O   UNL     1     -44.114  55.926 -60.946  1.00  0.00    -0.356 OA
HETATM   29  C   UNL     1     -45.008  54.927 -61.419  1.00  0.00     0.210 C 
ENDBRANCH  25  28
ENDBRANCH  21  22
ENDBRANCH  20  21
ENDBRANCH  17  20
ENDBRANCH   1  16
TORSDOF 9
ENDMDL
MODEL 9
REMARK VINA RESULT:      -7.2      2.781      6.680
REMARK  9 active torsions:
REMARK  status: ('A' for Active; 'I' for Inactive)
REMARK    1  A    between atoms: C_2  and  N_3 
REMARK    2  A    between atoms: C_4  and  S_5 
REMARK    3  A    between atoms: S_5  and  C_6 
REMARK    4  A    between atoms: C_6  and  C_7 
REMARK       I    between atoms: C_7  and  N_8 
REMARK    5  A    between atoms: N_8  and  C_9 
REMARK    6  A    between atoms: C_9  and  C_10 
REMARK    7  A    between atoms: C_10  and  C_11 
REMARK    8  A    between atoms: C_14  and  O_15 
REMARK    9  A    between atoms: C_22  and  C_23 
ROOT
HETATM    1  C   UNL     1     -43.460  59.599 -50.953  1.00  0.00     0.185 C 
ENDROOT
BRANCH   1   2
HETATM    2  S   UNL     1     -42.966  60.940 -52.075  1.00  0.00    -0.081 SA
BRANCH   2   3
HETATM    3  C   UNL     1     -42.391  60.006 -53.411  1.00  0.00     0.192 A 
HETATM    4  N   UNL     1     -43.197  59.347 -54.305  1.00  0.00    -0.308 N 
HETATM    5  C   UNL     1     -42.333  58.704 -55.178  1.00  0.00     0.164 A 
HETATM    6  N   UNL     1     -41.094  58.992 -54.806  1.00  0.00    -0.128 NA
HETATM    7  N   UNL     1     -41.132  59.811 -53.710  1.00  0.00    -0.122 NA
BRANCH   4   8
HETATM    8  C   UNL     1     -44.641  59.249 -54.246  1.00  0.00     0.128 C 
HETATM    9  C   UNL     1     -45.124  57.885 -53.773  1.00  0.00     0.027 C 
ENDBRANCH   4   8
BRANCH   5  10
HETATM   10  C   UNL     1     -42.656  57.791 -56.283  1.00  0.00     0.012 A 
HETATM   11  C   UNL     1     -42.605  56.407 -56.044  1.00  0.00     0.015 A 
HETATM   12  C   UNL     1     -42.882  55.486 -57.056  1.00  0.00     0.001 A 
HETATM   13  C   UNL     1     -43.213  55.934 -58.331  1.00  0.00     0.000 A 
HETATM   14  C   UNL     1     -43.250  57.301 -58.594  1.00  0.00     0.001 A 
HETATM   15  C   UNL     1     -42.961  58.223 -57.579  1.00  0.00     0.015 A 
ENDBRANCH   5  10
ENDBRANCH   2   3
ENDBRANCH   1   2
BRANCH   1  16
HETATM   16  C   UNL     1     -42.329  58.591 -50.846  1.00  0.00     0.227 C 
HETATM   17  N   UNL     1     -42.684  57.295 -51.173  1.00  0.00    -0.360 N 
HETATM   18  H   UNL     1     -43.541  57.162 -51.696  1.00  0.00     0.162 HD
HETATM   19  O   UNL     1     -41.195  58.904 -50.489  1.00  0.00    -0.273 OA
BRANCH  17  20
HETATM   20  C   UNL     1     -41.686  56.239 -51.234  1.00  0.00     0.127 C 
BRANCH  20  21
HETATM   21  C   UNL     1     -41.276  55.933 -52.674  1.00  0.00     0.058 C 
BRANCH  21  22
HETATM   22  C   UNL     1     -40.848  54.498 -52.846  1.00  0.00    -0.057 A 
HETATM   23  C   UNL     1     -40.388  53.758 -51.751  1.00  0.00     0.010 A 
HETATM   24  C   UNL     1     -39.969  52.436 -51.919  1.00  0.00     0.037 A 
HETATM   25  C   UNL     1     -39.997  51.832 -53.178  1.00  0.00     0.068 A 
HETATM   26  C   UNL     1     -40.453  52.567 -54.273  1.00  0.00     0.037 A 
HETATM   27  C   UNL     1     -40.874  53.891 -54.107  1.00  0.00     0.010 A 
BRANCH  25  28
HETATM   28  O   UNL     1     -39.558  50.538 -53.202  1.00  0.00    -0.356 OA
HETATM   29  C   UNL     1     -39.667  49.846 -54.439  1.00  0.00     0.210 C 
ENDBRANCH  25  28
ENDBRANCH  21  22
ENDBRANCH  20  21
ENDBRANCH  17  20
ENDBRANCH   1  16
TORSDOF 9
ENDMDL
MODEL 10
REMARK VINA RESULT:      -7.2      2.093      3.008
REMARK  9 active torsions:
REMARK  status: ('A' for Active; 'I' for Inactive)
REMARK    1  A    between atoms: C_2  and  N_3 
REMARK    2  A    between atoms: C_4  and  S_5 
REMARK    3  A    between atoms: S_5  and  C_6 
REMARK    4  A    between atoms: C_6  and  C_7 
REMARK       I    between atoms: C_7  and  N_8 
REMARK    5  A    between atoms: N_8  and  C_9 
REMARK    6  A    between atoms: C_9  and  C_10 
REMARK    7  A    between atoms: C_10  and  C_11 
REMARK    8  A    between atoms: C_14  and  O_15 
REMARK    9  A    between atoms: C_22  and  C_23 
ROOT
HETATM    1  C   UNL     1     -42.733  60.774 -53.588  1.00  0.00     0.185 C 
ENDROOT
BRANCH   1   2
HETATM    2  S   UNL     1     -43.951  59.855 -52.603  1.00  0.00    -0.081 SA
BRANCH   2   3
HETATM    3  C   UNL     1     -43.713  58.269 -53.249  1.00  0.00     0.192 A 
HETATM    4  N   UNL     1     -42.614  57.484 -53.005  1.00  0.00    -0.308 N 
HETATM    5  C   UNL     1     -42.815  56.327 -53.740  1.00  0.00     0.164 A 
HETATM    6  N   UNL     1     -43.978  56.441 -54.365  1.00  0.00    -0.128 NA
HETATM    7  N   UNL     1     -44.541  57.648 -54.051  1.00  0.00    -0.122 NA
BRANCH   4   8
HETATM    8  C   UNL     1     -41.443  57.865 -52.243  1.00  0.00     0.128 C 
HETATM    9  C   UNL     1     -40.298  58.352 -53.120  1.00  0.00     0.027 C 
ENDBRANCH   4   8
BRANCH   5  10
HETATM   10  C   UNL     1     -41.914  55.179 -53.909  1.00  0.00     0.012 A 
HETATM   11  C   UNL     1     -41.013  55.189 -54.988  1.00  0.00     0.015 A 
HETATM   12  C   UNL     1     -40.143  54.121 -55.216  1.00  0.00     0.001 A 
HETATM   13  C   UNL     1     -40.161  53.018 -54.367  1.00  0.00     0.000 A 
HETATM   14  C   UNL     1     -41.060  52.979 -53.304  1.00  0.00     0.001 A 
HETATM   15  C   UNL     1     -41.938  54.047 -53.085  1.00  0.00     0.015 A 
ENDBRANCH   5  10
ENDBRANCH   2   3
ENDBRANCH   1   2
BRANCH   1  16
HETATM   16  C   UNL     1     -43.195  60.829 -55.034  1.00  0.00     0.227 C 
HETATM   17  N   UNL     1     -42.171  60.796 -55.964  1.00  0.00    -0.360 N 
HETATM   18  H   UNL     1     -41.263  60.476 -55.649  1.00  0.00     0.162 HD
HETATM   19  O   UNL     1     -44.381  60.906 -55.348  1.00  0.00    -0.273 OA
BRANCH  17  20
HETATM   20  C   UNL     1     -42.456  60.722 -57.387  1.00  0.00     0.127 C 
BRANCH  20  21
HETATM   21  C   UNL     1     -41.500  59.770 -58.106  1.00  0.00     0.058 C 
BRANCH  21  22
HETATM   22  C   UNL     1     -42.175  58.480 -58.496  1.00  0.00    -0.057 A 
HETATM   23  C   UNL     1     -42.471  57.513 -57.529  1.00  0.00     0.010 A 
HETATM   24  C   UNL     1     -43.075  56.308 -57.898  1.00  0.00     0.037 A 
HETATM   25  C   UNL     1     -43.389  56.047 -59.233  1.00  0.00     0.068 A 
HETATM   26  C   UNL     1     -43.094  57.007 -60.201  1.00  0.00     0.037 A 
HETATM   27  C   UNL     1     -42.489  58.215 -59.834  1.00  0.00     0.010 A 
BRANCH  25  28
HETATM   28  O   UNL     1     -43.973  54.831 -59.456  1.00  0.00    -0.356 OA
HETATM   29  C   UNL     1     -44.996  54.781 -60.443  1.00  0.00     0.210 C 
ENDBRANCH  25  28
ENDBRANCH  21  22
ENDBRANCH  20  21
ENDBRANCH  17  20
ENDBRANCH   1  16
TORSDOF 9
ENDMDL
