MODEL 1
REMARK VINA RESULT:      -7.7      0.000      0.000
REMARK  4 active torsions:
REMARK  status: ('A' for Active; 'I' for Inactive)
REMARK    1  A    between atoms: S_2  and  N_3 
REMARK    2  A    between atoms: N_3  and  N_4 
REMARK    3  A    between atoms: C_10  and  C_11 
REMARK    4  A    between atoms: C_14  and  O_15 
ROOT
HETATM    1  N   UNL     1     -40.946  54.388 -52.484  1.00  0.00    -0.224 N 
HETATM    2  C   UNL     1     -40.254  53.407 -51.776  1.00  0.00     0.276 C 
HETATM    3  O   UNL     1     -39.717  53.559 -50.685  1.00  0.00    -0.266 OA
HETATM    4  C   UNL     1     -40.127  52.094 -52.456  1.00  0.00     0.055 A 
HETATM    5  C   UNL     1     -40.607  51.965 -53.767  1.00  0.00     0.026 A 
HETATM    6  N   UNL     1     -41.200  53.051 -54.432  1.00  0.00    -0.265 NA
HETATM    7  C   UNL     1     -41.882  53.973 -53.529  1.00  0.00     0.222 C 
HETATM    8  C   UNL     1     -39.486  51.027 -51.815  1.00  0.00     0.019 A 
HETATM    9  C   UNL     1     -39.284  49.830 -52.500  1.00  0.00     0.001 A 
HETATM   10  C   UNL     1     -39.703  49.711 -53.823  1.00  0.00     0.002 A 
HETATM   11  C   UNL     1     -40.347  50.777 -54.458  1.00  0.00     0.024 A 
HETATM   12  H   UNL     1     -41.800  52.755 -55.198  1.00  0.00     0.130 HD
ENDROOT
BRANCH   7  13
HETATM   13  C   UNL     1     -42.459  55.116 -54.354  1.00  0.00    -0.019 A 
HETATM   14  C   UNL     1     -41.727  55.649 -55.431  1.00  0.00     0.013 A 
HETATM   15  C   UNL     1     -42.261  56.667 -56.224  1.00  0.00     0.037 A 
HETATM   16  C   UNL     1     -43.532  57.157 -55.944  1.00  0.00     0.065 A 
HETATM   17  C   UNL     1     -44.274  56.646 -54.886  1.00  0.00     0.037 A 
HETATM   18  C   UNL     1     -43.743  55.628 -54.094  1.00  0.00     0.013 A 
BRANCH  16  19
HETATM   19  O   UNL     1     -44.094  58.145 -56.693  1.00  0.00    -0.361 OA
HETATM   20  H   UNL     1     -43.857  58.009 -57.626  1.00  0.00     0.217 HD
ENDBRANCH  16  19
ENDBRANCH   7  13
BRANCH   1  21
HETATM   21  N   UNL     1     -41.169  55.738 -51.904  1.00  0.00    -0.220 N 
HETATM   22  H   UNL     1     -40.355  56.357 -51.827  1.00  0.00     0.200 HD
BRANCH  21  23
HETATM   23  S   UNL     1     -42.247  56.083 -50.656  1.00  0.00     0.240 S 
HETATM   24  C   UNL     1     -43.270  54.624 -50.534  1.00  0.00     0.187 C 
HETATM   25  O   UNL     1     -43.042  57.242 -50.988  1.00  0.00    -0.205 OA
HETATM   26  O   UNL     1     -41.407  56.098 -49.472  1.00  0.00    -0.205 OA
ENDBRANCH  21  23
ENDBRANCH   1  21
TORSDOF 4
ENDMDL
MODEL 2
REMARK VINA RESULT:      -7.4      1.750      1.952
REMARK  4 active torsions:
REMARK  status: ('A' for Active; 'I' for Inactive)
REMARK    1  A    between atoms: S_2  and  N_3 
REMARK    2  A    between atoms: N_3  and  N_4 
REMARK    3  A    between atoms: C_10  and  C_11 
REMARK    4  A    between atoms: C_14  and  O_15 
ROOT
HETATM    1  N   UNL     1     -41.598  55.571 -52.478  1.00  0.00    -0.224 N 
HETATM    2  C   UNL     1     -40.899  54.676 -51.671  1.00  0.00     0.276 C 
HETATM    3  O   UNL     1     -40.509  54.898 -50.531  1.00  0.00    -0.266 OA
HETATM    4  C   UNL     1     -40.566  53.373 -52.298  1.00  0.00     0.055 A 
HETATM    5  C   UNL     1     -40.876  53.176 -53.650  1.00  0.00     0.026 A 
HETATM    6  N   UNL     1     -41.493  54.187 -54.407  1.00  0.00    -0.265 NA
HETATM    7  C   UNL     1     -42.362  55.049 -53.611  1.00  0.00     0.222 C 
HETATM    8  C   UNL     1     -39.901  52.386 -51.560  1.00  0.00     0.019 A 
HETATM    9  C   UNL     1     -39.504  51.205 -52.186  1.00  0.00     0.001 A 
HETATM   10  C   UNL     1     -39.754  51.025 -53.545  1.00  0.00     0.002 A 
HETATM   11  C   UNL     1     -40.423  52.011 -54.276  1.00  0.00     0.024 A 
HETATM   12  H   UNL     1     -41.969  53.820 -55.227  1.00  0.00     0.130 HD
ENDROOT
BRANCH   7  13
HETATM   13  C   UNL     1     -42.950  56.114 -54.526  1.00  0.00    -0.019 A 
HETATM   14  C   UNL     1     -42.204  56.599 -55.616  1.00  0.00     0.013 A 
HETATM   15  C   UNL     1     -42.746  57.545 -56.490  1.00  0.00     0.037 A 
HETATM   16  C   UNL     1     -44.039  58.010 -56.277  1.00  0.00     0.065 A 
HETATM   17  C   UNL     1     -44.796  57.546 -55.208  1.00  0.00     0.037 A 
HETATM   18  C   UNL     1     -44.256  56.600 -54.336  1.00  0.00     0.013 A 
BRANCH  16  19
HETATM   19  O   UNL     1     -44.610  58.928 -57.106  1.00  0.00    -0.361 OA
HETATM   20  H   UNL     1     -43.920  59.318 -57.668  1.00  0.00     0.217 HD
ENDBRANCH  16  19
ENDBRANCH   7  13
BRANCH   1  21
HETATM   21  N   UNL     1     -42.019  56.900 -51.963  1.00  0.00    -0.220 N 
HETATM   22  H   UNL     1     -43.004  57.160 -52.080  1.00  0.00     0.200 HD
BRANCH  21  23
HETATM   23  S   UNL     1     -41.071  58.293 -52.008  1.00  0.00     0.240 S 
HETATM   24  C   UNL     1     -42.250  59.635 -51.989  1.00  0.00     0.187 C 
HETATM   25  O   UNL     1     -40.280  58.321 -53.215  1.00  0.00    -0.205 OA
HETATM   26  O   UNL     1     -40.415  58.303 -50.713  1.00  0.00    -0.205 OA
ENDBRANCH  21  23
ENDBRANCH   1  21
TORSDOF 4
ENDMDL
MODEL 3
REMARK VINA RESULT:      -7.3      2.669      3.840
REMARK  4 active torsions:
REMARK  status: ('A' for Active; 'I' for Inactive)
REMARK    1  A    between atoms: S_2  and  N_3 
REMARK    2  A    between atoms: N_3  and  N_4 
REMARK    3  A    between atoms: C_10  and  C_11 
REMARK    4  A    between atoms: C_14  and  O_15 
ROOT
HETATM    1  N   UNL     1     -41.115  54.511 -53.455  1.00  0.00    -0.224 N 
HETATM    2  C   UNL     1     -40.515  53.294 -53.772  1.00  0.00     0.276 C 
HETATM    3  O   UNL     1     -40.263  52.895 -54.903  1.00  0.00    -0.266 OA
HETATM    4  C   UNL     1     -40.219  52.406 -52.621  1.00  0.00     0.055 A 
HETATM    5  C   UNL     1     -40.645  52.793 -51.343  1.00  0.00     0.026 A 
HETATM    6  N   UNL     1     -41.336  54.000 -51.144  1.00  0.00    -0.265 NA
HETATM    7  C   UNL     1     -40.962  55.039 -52.099  1.00  0.00     0.222 C 
HETATM    8  C   UNL     1     -39.579  51.177 -52.825  1.00  0.00     0.019 A 
HETATM    9  C   UNL     1     -39.396  50.306 -51.752  1.00  0.00     0.001 A 
HETATM   10  C   UNL     1     -39.869  50.655 -50.489  1.00  0.00     0.002 A 
HETATM   11  C   UNL     1     -40.503  51.885 -50.289  1.00  0.00     0.024 A 
HETATM   12  H   UNL     1     -41.277  54.326 -50.184  1.00  0.00     0.130 HD
ENDROOT
BRANCH   7  13
HETATM   13  C   UNL     1     -41.790  56.283 -51.805  1.00  0.00    -0.019 A 
HETATM   14  C   UNL     1     -41.194  57.557 -51.863  1.00  0.00     0.013 A 
HETATM   15  C   UNL     1     -41.951  58.710 -51.638  1.00  0.00     0.037 A 
HETATM   16  C   UNL     1     -43.306  58.593 -51.353  1.00  0.00     0.065 A 
HETATM   17  C   UNL     1     -43.917  57.347 -51.291  1.00  0.00     0.037 A 
HETATM   18  C   UNL     1     -43.163  56.195 -51.517  1.00  0.00     0.013 A 
BRANCH  16  19
HETATM   19  O   UNL     1     -44.083  59.690 -51.132  1.00  0.00    -0.361 OA
HETATM   20  H   UNL     1     -43.606  60.481 -51.434  1.00  0.00     0.217 HD
ENDBRANCH  16  19
ENDBRANCH   7  13
BRANCH   1  21
HETATM   21  N   UNL     1     -41.437  55.505 -54.511  1.00  0.00    -0.220 N 
HETATM   22  H   UNL     1     -41.044  56.446 -54.407  1.00  0.00     0.200 HD
BRANCH  21  23
HETATM   23  S   UNL     1     -42.912  55.607 -55.318  1.00  0.00     0.240 S 
HETATM   24  C   UNL     1     -43.389  57.322 -55.162  1.00  0.00     0.187 C 
HETATM   25  O   UNL     1     -43.886  54.744 -54.691  1.00  0.00    -0.205 OA
HETATM   26  O   UNL     1     -42.557  55.404 -56.711  1.00  0.00    -0.205 OA
ENDBRANCH  21  23
ENDBRANCH   1  21
TORSDOF 4
ENDMDL
MODEL 4
REMARK VINA RESULT:      -7.2      1.585      5.642
REMARK  4 active torsions:
REMARK  status: ('A' for Active; 'I' for Inactive)
REMARK    1  A    between atoms: S_2  and  N_3 
REMARK    2  A    between atoms: N_3  and  N_4 
REMARK    3  A    between atoms: C_10  and  C_11 
REMARK    4  A    between atoms: C_14  and  O_15 
ROOT
HETATM    1  N   UNL     1     -41.068  54.884 -52.829  1.00  0.00    -0.224 N 
HETATM    2  C   UNL     1     -41.516  56.165 -53.148  1.00  0.00     0.276 C 
HETATM    3  O   UNL     1     -41.613  57.103 -52.366  1.00  0.00    -0.266 OA
HETATM    4  C   UNL     1     -41.958  56.358 -54.551  1.00  0.00     0.055 A 
HETATM    5  C   UNL     1     -41.992  55.248 -55.407  1.00  0.00     0.026 A 
HETATM    6  N   UNL     1     -41.614  53.973 -54.955  1.00  0.00    -0.265 NA
HETATM    7  C   UNL     1     -40.598  54.014 -53.907  1.00  0.00     0.222 C 
HETATM    8  C   UNL     1     -42.389  57.618 -54.987  1.00  0.00     0.019 A 
HETATM    9  C   UNL     1     -42.896  57.766 -56.278  1.00  0.00     0.001 A 
HETATM   10  C   UNL     1     -42.991  56.657 -57.116  1.00  0.00     0.002 A 
HETATM   11  C   UNL     1     -42.555  55.402 -56.678  1.00  0.00     0.024 A 
HETATM   12  H   UNL     1     -41.350  53.354 -55.717  1.00  0.00     0.130 HD
ENDROOT
BRANCH   7  13
HETATM   13  C   UNL     1     -40.289  52.585 -53.481  1.00  0.00    -0.019 A 
HETATM   14  C   UNL     1     -40.490  51.521 -54.380  1.00  0.00     0.013 A 
HETATM   15  C   UNL     1     -40.171  50.210 -54.018  1.00  0.00     0.037 A 
HETATM   16  C   UNL     1     -39.648  49.957 -52.755  1.00  0.00     0.065 A 
HETATM   17  C   UNL     1     -39.441  50.991 -51.850  1.00  0.00     0.037 A 
HETATM   18  C   UNL     1     -39.758  52.301 -52.210  1.00  0.00     0.013 A 
BRANCH  16  19
HETATM   19  O   UNL     1     -39.318  48.696 -52.362  1.00  0.00    -0.361 OA
HETATM   20  H   UNL     1     -39.062  48.713 -51.425  1.00  0.00     0.217 HD
ENDBRANCH  16  19
ENDBRANCH   7  13
BRANCH   1  21
HETATM   21  N   UNL     1     -40.569  54.565 -51.466  1.00  0.00    -0.220 N 
HETATM   22  H   UNL     1     -39.904  53.789 -51.379  1.00  0.00     0.200 HD
BRANCH  21  23
HETATM   23  S   UNL     1     -41.487  54.667 -50.057  1.00  0.00     0.240 S 
HETATM   24  C   UNL     1     -43.162  54.346 -50.592  1.00  0.00     0.187 C 
HETATM   25  O   UNL     1     -41.375  55.988 -49.483  1.00  0.00    -0.205 OA
HETATM   26  O   UNL     1     -41.070  53.508 -49.290  1.00  0.00    -0.205 OA
ENDBRANCH  21  23
ENDBRANCH   1  21
TORSDOF 4
ENDMDL
MODEL 5
REMARK VINA RESULT:      -7.0      2.902      4.339
REMARK  4 active torsions:
REMARK  status: ('A' for Active; 'I' for Inactive)
REMARK    1  A    between atoms: S_2  and  N_3 
REMARK    2  A    between atoms: N_3  and  N_4 
REMARK    3  A    between atoms: C_10  and  C_11 
REMARK    4  A    between atoms: C_14  and  O_15 
ROOT
HETATM    1  N   UNL     1     -43.408  56.108 -55.195  1.00  0.00    -0.224 N 
HETATM    2  C   UNL     1     -43.185  55.475 -53.973  1.00  0.00     0.276 C 
HETATM    3  O   UNL     1     -43.787  55.703 -52.931  1.00  0.00    -0.266 OA
HETATM    4  C   UNL     1     -42.079  54.486 -53.957  1.00  0.00     0.055 A 
HETATM    5  C   UNL     1     -41.291  54.336 -55.106  1.00  0.00     0.026 A 
HETATM    6  N   UNL     1     -41.537  55.101 -56.258  1.00  0.00    -0.265 NA
HETATM    7  C   UNL     1     -42.943  55.458 -56.420  1.00  0.00     0.222 C 
HETATM    8  C   UNL     1     -41.798  53.763 -52.790  1.00  0.00     0.019 A 
HETATM    9  C   UNL     1     -40.696  52.910 -52.755  1.00  0.00     0.001 A 
HETATM   10  C   UNL     1     -39.870  52.800 -53.872  1.00  0.00     0.002 A 
HETATM   11  C   UNL     1     -40.158  53.520 -55.035  1.00  0.00     0.024 A 
HETATM   12  H   UNL     1     -41.155  54.672 -57.097  1.00  0.00     0.130 HD
ENDROOT
BRANCH   7  13
HETATM   13  C   UNL     1     -43.083  56.303 -57.679  1.00  0.00    -0.019 A 
HETATM   14  C   UNL     1     -43.923  55.877 -58.725  1.00  0.00     0.013 A 
HETATM   15  C   UNL     1     -44.095  56.661 -59.868  1.00  0.00     0.037 A 
HETATM   16  C   UNL     1     -43.427  57.876 -59.970  1.00  0.00     0.065 A 
HETATM   17  C   UNL     1     -42.592  58.318 -58.951  1.00  0.00     0.037 A 
HETATM   18  C   UNL     1     -42.421  57.537 -57.808  1.00  0.00     0.013 A 
BRANCH  16  19
HETATM   19  O   UNL     1     -43.569  58.676 -61.064  1.00  0.00    -0.361 OA
HETATM   20  H   UNL     1     -44.512  58.873 -61.191  1.00  0.00     0.217 HD
ENDBRANCH  16  19
ENDBRANCH   7  13
BRANCH   1  21
HETATM   21  N   UNL     1     -44.504  57.099 -55.355  1.00  0.00    -0.220 N 
HETATM   22  H   UNL     1     -45.039  57.071 -56.229  1.00  0.00     0.200 HD
BRANCH  21  23
HETATM   23  S   UNL     1     -44.459  58.684 -54.785  1.00  0.00     0.240 S 
HETATM   24  C   UNL     1     -42.721  59.026 -54.554  1.00  0.00     0.187 C 
HETATM   25  O   UNL     1     -45.174  58.785 -53.534  1.00  0.00    -0.205 OA
HETATM   26  O   UNL     1     -44.886  59.472 -55.927  1.00  0.00    -0.205 OA
ENDBRANCH  21  23
ENDBRANCH   1  21
TORSDOF 4
ENDMDL
MODEL 6
REMARK VINA RESULT:      -7.0      3.089      4.400
REMARK  4 active torsions:
REMARK  status: ('A' for Active; 'I' for Inactive)
REMARK    1  A    between atoms: S_2  and  N_3 
REMARK    2  A    between atoms: N_3  and  N_4 
REMARK    3  A    between atoms: C_10  and  C_11 
REMARK    4  A    between atoms: C_14  and  O_15 
ROOT
HETATM    1  N   UNL     1     -41.747  56.083 -54.128  1.00  0.00    -0.224 N 
HETATM    2  C   UNL     1     -41.298  54.909 -54.730  1.00  0.00     0.276 C 
HETATM    3  O   UNL     1     -41.386  54.639 -55.922  1.00  0.00    -0.266 OA
HETATM    4  C   UNL     1     -40.721  53.897 -53.811  1.00  0.00     0.055 A 
HETATM    5  C   UNL     1     -40.760  54.140 -52.431  1.00  0.00     0.026 A 
HETATM    6  N   UNL     1     -41.330  55.317 -51.917  1.00  0.00    -0.265 NA
HETATM    7  C   UNL     1     -41.204  56.456 -52.822  1.00  0.00     0.222 C 
HETATM    8  C   UNL     1     -40.203  52.699 -54.318  1.00  0.00     0.019 A 
HETATM    9  C   UNL     1     -39.755  51.713 -53.440  1.00  0.00     0.001 A 
HETATM   10  C   UNL     1     -39.845  51.919 -52.064  1.00  0.00     0.002 A 
HETATM   11  C   UNL     1     -40.358  53.119 -51.563  1.00  0.00     0.024 A 
HETATM   12  H   UNL     1     -40.994  55.534 -50.983  1.00  0.00     0.130 HD
ENDROOT
BRANCH   7  13
HETATM   13  C   UNL     1     -41.877  57.659 -52.174  1.00  0.00    -0.019 A 
HETATM   14  C   UNL     1     -41.216  58.902 -52.138  1.00  0.00     0.013 A 
HETATM   15  C   UNL     1     -41.838  60.025 -51.586  1.00  0.00     0.037 A 
HETATM   16  C   UNL     1     -43.123  59.910 -51.069  1.00  0.00     0.065 A 
HETATM   17  C   UNL     1     -43.795  58.695 -51.093  1.00  0.00     0.037 A 
HETATM   18  C   UNL     1     -43.177  57.573 -51.646  1.00  0.00     0.013 A 
BRANCH  16  19
HETATM   19  O   UNL     1     -43.768  60.980 -50.526  1.00  0.00    -0.361 OA
HETATM   20  H   UNL     1     -44.630  61.084 -50.963  1.00  0.00     0.217 HD
ENDBRANCH  16  19
ENDBRANCH   7  13
BRANCH   1  21
HETATM   21  N   UNL     1     -42.320  57.189 -54.938  1.00  0.00    -0.220 N 
HETATM   22  H   UNL     1     -41.903  58.120 -54.825  1.00  0.00     0.200 HD
BRANCH  21  23
HETATM   23  S   UNL     1     -43.952  57.357 -55.320  1.00  0.00     0.240 S 
HETATM   24  C   UNL     1     -44.328  59.060 -54.933  1.00  0.00     0.187 C 
HETATM   25  O   UNL     1     -44.748  56.459 -54.516  1.00  0.00    -0.205 OA
HETATM   26  O   UNL     1     -43.979  57.248 -56.767  1.00  0.00    -0.205 OA
ENDBRANCH  21  23
ENDBRANCH   1  21
TORSDOF 4
ENDMDL
MODEL 7
REMARK VINA RESULT:      -7.0      2.867      6.223
REMARK  4 active torsions:
REMARK  status: ('A' for Active; 'I' for Inactive)
REMARK    1  A    between atoms: S_2  and  N_3 
REMARK    2  A    between atoms: N_3  and  N_4 
REMARK    3  A    between atoms: C_10  and  C_11 
REMARK    4  A    between atoms: C_14  and  O_15 
ROOT
HETATM    1  N   UNL     1     -42.241  57.133 -55.826  1.00  0.00    -0.224 N 
HETATM    2  C   UNL     1     -42.493  57.845 -56.997  1.00  0.00     0.276 C 
HETATM    3  O   UNL     1     -42.370  59.056 -57.137  1.00  0.00    -0.266 OA
HETATM    4  C   UNL     1     -43.005  57.044 -58.137  1.00  0.00     0.055 A 
HETATM    5  C   UNL     1     -43.292  55.687 -57.932  1.00  0.00     0.026 A 
HETATM    6  N   UNL     1     -43.097  55.086 -56.677  1.00  0.00    -0.265 NA
HETATM    7  C   UNL     1     -42.010  55.692 -55.914  1.00  0.00     0.222 C 
HETATM    8  C   UNL     1     -43.252  57.655 -59.373  1.00  0.00     0.019 A 
HETATM    9  C   UNL     1     -43.827  56.916 -60.406  1.00  0.00     0.001 A 
HETATM   10  C   UNL     1     -44.171  55.582 -60.194  1.00  0.00     0.002 A 
HETATM   11  C   UNL     1     -43.919  54.976 -58.960  1.00  0.00     0.024 A 
HETATM   12  H   UNL     1     -43.001  54.077 -56.742  1.00  0.00     0.130 HD
ENDROOT
BRANCH   7  13
HETATM   13  C   UNL     1     -41.911  54.980 -54.571  1.00  0.00    -0.019 A 
HETATM   14  C   UNL     1     -40.664  54.528 -54.103  1.00  0.00     0.013 A 
HETATM   15  C   UNL     1     -40.551  53.912 -52.853  1.00  0.00     0.037 A 
HETATM   16  C   UNL     1     -41.686  53.747 -52.067  1.00  0.00     0.065 A 
HETATM   17  C   UNL     1     -42.928  54.186 -52.509  1.00  0.00     0.037 A 
HETATM   18  C   UNL     1     -43.042  54.803 -53.755  1.00  0.00     0.013 A 
BRANCH  16  19
HETATM   19  O   UNL     1     -41.622  53.157 -50.841  1.00  0.00    -0.361 OA
HETATM   20  H   UNL     1     -40.694  53.121 -50.556  1.00  0.00     0.217 HD
ENDBRANCH  16  19
ENDBRANCH   7  13
BRANCH   1  21
HETATM   21  N   UNL     1     -41.698  57.810 -54.620  1.00  0.00    -0.220 N 
HETATM   22  H   UNL     1     -40.920  57.352 -54.134  1.00  0.00     0.200 HD
BRANCH  21  23
HETATM   23  S   UNL     1     -42.619  58.669 -53.502  1.00  0.00     0.240 S 
HETATM   24  C   UNL     1     -42.152  57.985 -51.919  1.00  0.00     0.187 C 
HETATM   25  O   UNL     1     -44.027  58.467 -53.754  1.00  0.00    -0.205 OA
HETATM   26  O   UNL     1     -42.062  60.008 -53.552  1.00  0.00    -0.205 OA
ENDBRANCH  21  23
ENDBRANCH   1  21
TORSDOF 4
ENDMDL
MODEL 8
REMARK VINA RESULT:      -6.9     14.068     16.177
REMARK  4 active torsions:
REMARK  status: ('A' for Active; 'I' for Inactive)
REMARK    1  A    between atoms: S_2  and  N_3 
REMARK    2  A    between atoms: N_3  and  N_4 
REMARK    3  A    between atoms: C_10  and  C_11 
REMARK    4  A    between atoms: C_14  and  O_15 
ROOT
HETATM    1  N   UNL     1     -36.272  40.812 -52.903  1.00  0.00    -0.224 N 
HETATM    2  C   UNL     1     -37.245  41.124 -53.850  1.00  0.00     0.276 C 
HETATM    3  O   UNL     1     -38.457  41.060 -53.678  1.00  0.00    -0.266 OA
HETATM    4  C   UNL     1     -36.736  41.510 -55.189  1.00  0.00     0.055 A 
HETATM    5  C   UNL     1     -35.357  41.435 -55.434  1.00  0.00     0.026 A 
HETATM    6  N   UNL     1     -34.466  41.008 -54.435  1.00  0.00    -0.265 NA
HETATM    7  C   UNL     1     -34.918  41.334 -53.086  1.00  0.00     0.222 C 
HETATM    8  C   UNL     1     -37.628  41.883 -56.203  1.00  0.00     0.019 A 
HETATM    9  C   UNL     1     -37.148  42.146 -57.484  1.00  0.00     0.001 A 
HETATM   10  C   UNL     1     -35.787  42.016 -57.753  1.00  0.00     0.002 A 
HETATM   11  C   UNL     1     -34.899  41.649 -56.738  1.00  0.00     0.024 A 
HETATM   12  H   UNL     1     -33.515  41.323 -54.605  1.00  0.00     0.130 HD
ENDROOT
BRANCH   7  13
HETATM   13  C   UNL     1     -33.893  40.802 -52.094  1.00  0.00    -0.019 A 
HETATM   14  C   UNL     1     -32.884  39.921 -52.526  1.00  0.00     0.013 A 
HETATM   15  C   UNL     1     -31.910  39.459 -51.637  1.00  0.00     0.037 A 
HETATM   16  C   UNL     1     -31.941  39.877 -50.311  1.00  0.00     0.065 A 
HETATM   17  C   UNL     1     -32.927  40.746 -49.861  1.00  0.00     0.037 A 
HETATM   18  C   UNL     1     -33.899  41.210 -50.748  1.00  0.00     0.013 A 
BRANCH  16  19
HETATM   19  O   UNL     1     -31.009  39.455 -49.411  1.00  0.00    -0.361 OA
HETATM   20  H   UNL     1     -30.754  38.542 -49.625  1.00  0.00     0.217 HD
ENDBRANCH  16  19
ENDBRANCH   7  13
BRANCH   1  21
HETATM   21  N   UNL     1     -36.647  40.438 -51.514  1.00  0.00    -0.220 N 
HETATM   22  H   UNL     1     -36.208  40.965 -50.751  1.00  0.00     0.200 HD
BRANCH  21  23
HETATM   23  S   UNL     1     -36.964  38.868 -50.993  1.00  0.00     0.240 S 
HETATM   24  C   UNL     1     -36.953  38.979 -49.210  1.00  0.00     0.187 C 
HETATM   25  O   UNL     1     -35.934  37.969 -51.458  1.00  0.00    -0.205 OA
HETATM   26  O   UNL     1     -38.345  38.649 -51.384  1.00  0.00    -0.205 OA
ENDBRANCH  21  23
ENDBRANCH   1  21
TORSDOF 4
ENDMDL
MODEL 9
REMARK VINA RESULT:      -6.8      2.573      3.422
REMARK  4 active torsions:
REMARK  status: ('A' for Active; 'I' for Inactive)
REMARK    1  A    between atoms: S_2  and  N_3 
REMARK    2  A    between atoms: N_3  and  N_4 
REMARK    3  A    between atoms: C_10  and  C_11 
REMARK    4  A    between atoms: C_14  and  O_15 
ROOT
HETATM    1  N   UNL     1     -42.147  56.875 -53.524  1.00  0.00    -0.224 N 
HETATM    2  C   UNL     1     -41.583  56.044 -52.558  1.00  0.00     0.276 C 
HETATM    3  O   UNL     1     -41.402  56.336 -51.382  1.00  0.00    -0.266 OA
HETATM    4  C   UNL     1     -41.124  54.719 -53.042  1.00  0.00     0.055 A 
HETATM    5  C   UNL     1     -41.191  54.442 -54.415  1.00  0.00     0.026 A 
HETATM    6  N   UNL     1     -41.684  55.394 -55.323  1.00  0.00    -0.265 NA
HETATM    7  C   UNL     1     -42.693  56.273 -54.740  1.00  0.00     0.222 C 
HETATM    8  C   UNL     1     -40.580  53.790 -52.145  1.00  0.00     0.019 A 
HETATM    9  C   UNL     1     -40.060  52.589 -52.625  1.00  0.00     0.001 A 
HETATM   10  C   UNL     1     -40.066  52.330 -53.994  1.00  0.00     0.002 A 
HETATM   11  C   UNL     1     -40.615  53.258 -54.885  1.00  0.00     0.024 A 
HETATM   12  H   UNL     1     -42.003  54.972 -56.191  1.00  0.00     0.130 HD
ENDROOT
BRANCH   7  13
HETATM   13  C   UNL     1     -43.132  57.272 -55.802  1.00  0.00    -0.019 A 
HETATM   14  C   UNL     1     -44.473  57.693 -55.863  1.00  0.00     0.013 A 
HETATM   15  C   UNL     1     -44.882  58.642 -56.804  1.00  0.00     0.037 A 
HETATM   16  C   UNL     1     -43.950  59.173 -57.689  1.00  0.00     0.065 A 
HETATM   17  C   UNL     1     -42.620  58.773 -57.648  1.00  0.00     0.037 A 
HETATM   18  C   UNL     1     -42.210  57.827 -56.707  1.00  0.00     0.013 A 
BRANCH  16  19
HETATM   19  O   UNL     1     -44.303  60.103 -58.619  1.00  0.00    -0.361 OA
HETATM   20  H   UNL     1     -45.091  60.579 -58.308  1.00  0.00     0.217 HD
ENDBRANCH  16  19
ENDBRANCH   7  13
BRANCH   1  21
HETATM   21  N   UNL     1     -42.674  58.218 -53.166  1.00  0.00    -0.220 N 
HETATM   22  H   UNL     1     -43.609  58.463 -53.508  1.00  0.00     0.200 HD
BRANCH  21  23
HETATM   23  S   UNL     1     -41.743  59.617 -53.050  1.00  0.00     0.240 S 
HETATM   24  C   UNL     1     -41.561  59.889 -51.294  1.00  0.00     0.187 C 
HETATM   25  O   UNL     1     -42.428  60.726 -53.674  1.00  0.00    -0.205 OA
HETATM   26  O   UNL     1     -40.441  59.205 -53.541  1.00  0.00    -0.205 OA
ENDBRANCH  21  23
ENDBRANCH   1  21
TORSDOF 4
ENDMDL
MODEL 10
REMARK VINA RESULT:      -6.7     14.423     15.692
REMARK  4 active torsions:
REMARK  status: ('A' for Active; 'I' for Inactive)
REMARK    1  A    between atoms: S_2  and  N_3 
REMARK    2  A    between atoms: N_3  and  N_4 
REMARK    3  A    between atoms: C_10  and  C_11 
REMARK    4  A    between atoms: C_14  and  O_15 
ROOT
HETATM    1  N   UNL     1     -35.076  40.714 -53.534  1.00  0.00    -0.224 N 
HETATM    2  C   UNL     1     -34.705  40.522 -52.204  1.00  0.00     0.276 C 
HETATM    3  O   UNL     1     -33.587  40.713 -51.740  1.00  0.00    -0.266 OA
HETATM    4  C   UNL     1     -35.765  39.989 -51.313  1.00  0.00     0.055 A 
HETATM    5  C   UNL     1     -36.998  39.626 -51.873  1.00  0.00     0.026 A 
HETATM    6  N   UNL     1     -37.236  39.764 -53.251  1.00  0.00    -0.265 NA
HETATM    7  C   UNL     1     -36.495  40.868 -53.853  1.00  0.00     0.222 C 
HETATM    8  C   UNL     1     -35.509  39.799 -49.949  1.00  0.00     0.019 A 
HETATM    9  C   UNL     1     -36.477  39.204 -49.141  1.00  0.00     0.001 A 
HETATM   10  C   UNL     1     -37.683  38.785 -49.700  1.00  0.00     0.002 A 
HETATM   11  C   UNL     1     -37.935  38.981 -51.060  1.00  0.00     0.024 A 
HETATM   12  H   UNL     1     -38.228  39.808 -53.469  1.00  0.00     0.130 HD
ENDROOT
BRANCH   7  13
HETATM   13  C   UNL     1     -36.811  40.903 -55.342  1.00  0.00    -0.019 A 
HETATM   14  C   UNL     1     -37.031  39.704 -56.045  1.00  0.00     0.013 A 
HETATM   15  C   UNL     1     -37.364  39.722 -57.402  1.00  0.00     0.037 A 
HETATM   16  C   UNL     1     -37.479  40.941 -58.062  1.00  0.00     0.065 A 
HETATM   17  C   UNL     1     -37.267  42.138 -57.389  1.00  0.00     0.037 A 
HETATM   18  C   UNL     1     -36.936  42.121 -56.034  1.00  0.00     0.013 A 
BRANCH  16  19
HETATM   19  O   UNL     1     -37.807  41.006 -59.382  1.00  0.00    -0.361 OA
HETATM   20  H   UNL     1     -37.444  40.228 -59.837  1.00  0.00     0.217 HD
ENDBRANCH  16  19
ENDBRANCH   7  13
BRANCH   1  21
HETATM   21  N   UNL     1     -34.118  41.270 -54.524  1.00  0.00    -0.220 N 
HETATM   22  H   UNL     1     -34.404  42.114 -55.031  1.00  0.00     0.200 HD
BRANCH  21  23
HETATM   23  S   UNL     1     -33.108  40.348 -55.508  1.00  0.00     0.240 S 
HETATM   24  C   UNL     1     -33.602  38.659 -55.197  1.00  0.00     0.187 C 
HETATM   25  O   UNL     1     -31.727  40.556 -55.140  1.00  0.00    -0.205 OA
HETATM   26  O   UNL     1     -33.553  40.667 -56.852  1.00  0.00    -0.205 OA
ENDBRANCH  21  23
ENDBRANCH   1  21
TORSDOF 4
ENDMDL
