MODEL 1
REMARK VINA RESULT:      -8.8      0.000      0.000
REMARK  2 active torsions:
REMARK  status: ('A' for Active; 'I' for Inactive)
REMARK    1  A    between atoms: C_4  and  C_5 
REMARK       I    between atoms: N_12  and  C_13 
REMARK    2  A    between atoms: C_13  and  C_14 
ROOT
HETATM    1  C   UNL     1     -42.015  54.684 -51.940  1.00  0.00     0.097 A 
HETATM    2  N   UNL     1     -41.997  54.993 -50.628  1.00  0.00    -0.173 NA
HETATM    3  N   UNL     1     -42.782  56.075 -50.511  1.00  0.00    -0.281 N 
HETATM    4  H   UNL     1     -42.892  56.494 -49.592  1.00  0.00     0.189 HD
HETATM    5  C   UNL     1     -43.300  56.478 -51.696  1.00  0.00     0.039 A 
HETATM    6  C   UNL     1     -42.850  55.594 -52.651  1.00  0.00     0.015 A 
HETATM    7  C   UNL     1     -43.189  55.719 -54.094  1.00  0.00     0.168 C 
HETATM    8  N   UNL     1     -43.695  57.083 -54.368  1.00  0.00    -0.347 N 
HETATM    9  C   UNL     1     -43.632  57.698 -55.619  1.00  0.00     0.226 C 
HETATM   10  O   UNL     1     -44.359  58.656 -55.888  1.00  0.00    -0.273 OA
HETATM   11  C   UNL     1     -44.671  57.619 -53.390  1.00  0.00     0.132 C 
HETATM   12  C   UNL     1     -44.109  57.690 -51.953  1.00  0.00     0.079 C 
ENDROOT
BRANCH   9  13
HETATM   13  C   UNL     1     -42.664  57.126 -56.661  1.00  0.00     0.106 C 
HETATM   14  C   UNL     1     -43.379  56.199 -57.645  1.00  0.00     0.190 C 
HETATM   15  O   UNL     1     -44.245  56.857 -58.572  1.00  0.00    -0.350 OA
HETATM   16  C   UNL     1     -43.730  57.975 -59.160  1.00  0.00     0.075 A 
HETATM   17  C   UNL     1     -42.622  58.663 -58.670  1.00  0.00    -0.024 A 
HETATM   18  C   UNL     1     -44.399  58.436 -60.293  1.00  0.00     0.037 A 
HETATM   19  C   UNL     1     -41.907  58.206 -57.433  1.00  0.00     0.057 C 
HETATM   20  C   UNL     1     -42.160  59.795 -59.357  1.00  0.00     0.010 A 
HETATM   21  C   UNL     1     -42.819  60.247 -60.501  1.00  0.00     0.001 A 
HETATM   22  C   UNL     1     -43.943  59.569 -60.966  1.00  0.00     0.003 A 
ENDBRANCH   9  13
BRANCH   1  23
HETATM   23  C   UNL     1     -41.201  53.582 -52.458  1.00  0.00    -0.005 A 
HETATM   24  C   UNL     1     -41.202  53.242 -53.817  1.00  0.00     0.014 A 
HETATM   25  C   UNL     1     -40.384  52.211 -54.291  1.00  0.00     0.001 A 
HETATM   26  C   UNL     1     -39.566  51.504 -53.411  1.00  0.00     0.000 A 
HETATM   27  C   UNL     1     -39.569  51.821 -52.055  1.00  0.00     0.001 A 
HETATM   28  C   UNL     1     -40.383  52.852 -51.582  1.00  0.00     0.014 A 
ENDBRANCH   1  23
TORSDOF 2
ENDMDL
MODEL 2
REMARK VINA RESULT:      -8.4      1.319      1.437
REMARK  2 active torsions:
REMARK  status: ('A' for Active; 'I' for Inactive)
REMARK    1  A    between atoms: C_4  and  C_5 
REMARK       I    between atoms: N_12  and  C_13 
REMARK    2  A    between atoms: C_13  and  C_14 
ROOT
HETATM    1  C   UNL     1     -41.682  55.280 -51.923  1.00  0.00     0.097 A 
HETATM    2  N   UNL     1     -41.253  55.645 -50.699  1.00  0.00    -0.173 NA
HETATM    3  N   UNL     1     -41.980  56.726 -50.379  1.00  0.00    -0.281 N 
HETATM    4  H   UNL     1     -41.798  57.183 -49.490  1.00  0.00     0.189 HD
HETATM    5  C   UNL     1     -42.856  57.075 -51.351  1.00  0.00     0.039 A 
HETATM    6  C   UNL     1     -42.718  56.153 -52.364  1.00  0.00     0.015 A 
HETATM    7  C   UNL     1     -43.503  56.214 -53.627  1.00  0.00     0.168 C 
HETATM    8  N   UNL     1     -44.096  57.563 -53.777  1.00  0.00    -0.347 N 
HETATM    9  C   UNL     1     -44.448  58.124 -55.005  1.00  0.00     0.226 C 
HETATM   10  O   UNL     1     -45.241  59.065 -55.064  1.00  0.00    -0.273 OA
HETATM   11  C   UNL     1     -44.719  58.135 -52.559  1.00  0.00     0.132 C 
HETATM   12  C   UNL     1     -43.729  58.270 -51.382  1.00  0.00     0.079 C 
ENDROOT
BRANCH   9  13
HETATM   13  C   UNL     1     -43.853  57.514 -56.279  1.00  0.00     0.106 C 
HETATM   14  C   UNL     1     -44.817  57.627 -57.461  1.00  0.00     0.190 C 
HETATM   15  O   UNL     1     -44.985  58.949 -57.977  1.00  0.00    -0.350 OA
HETATM   16  C   UNL     1     -43.832  59.658 -58.150  1.00  0.00     0.075 A 
HETATM   17  C   UNL     1     -42.620  59.318 -57.553  1.00  0.00    -0.024 A 
HETATM   18  C   UNL     1     -43.926  60.796 -58.951  1.00  0.00     0.037 A 
HETATM   19  C   UNL     1     -42.502  58.119 -56.660  1.00  0.00     0.057 C 
HETATM   20  C   UNL     1     -41.487  60.106 -57.806  1.00  0.00     0.010 A 
HETATM   21  C   UNL     1     -41.577  61.234 -58.621  1.00  0.00     0.001 A 
HETATM   22  C   UNL     1     -42.800  61.583 -59.190  1.00  0.00     0.003 A 
ENDBRANCH   9  13
BRANCH   1  23
HETATM   23  C   UNL     1     -41.056  54.161 -52.632  1.00  0.00    -0.005 A 
HETATM   24  C   UNL     1     -40.910  54.161 -54.025  1.00  0.00     0.014 A 
HETATM   25  C   UNL     1     -40.272  53.098 -54.672  1.00  0.00     0.001 A 
HETATM   26  C   UNL     1     -39.782  52.022 -53.935  1.00  0.00     0.000 A 
HETATM   27  C   UNL     1     -39.936  52.001 -52.551  1.00  0.00     0.001 A 
HETATM   28  C   UNL     1     -40.571  53.063 -51.905  1.00  0.00     0.014 A 
ENDBRANCH   1  23
TORSDOF 2
ENDMDL
MODEL 3
REMARK VINA RESULT:      -8.3      1.941      2.722
REMARK  2 active torsions:
REMARK  status: ('A' for Active; 'I' for Inactive)
REMARK    1  A    between atoms: C_4  and  C_5 
REMARK       I    between atoms: N_12  and  C_13 
REMARK    2  A    between atoms: C_13  and  C_14 
ROOT
HETATM    1  C   UNL     1     -40.224  53.382 -51.268  1.00  0.00     0.097 A 
HETATM    2  N   UNL     1     -39.479  53.444 -50.148  1.00  0.00    -0.173 NA
HETATM    3  N   UNL     1     -39.805  54.611 -49.572  1.00  0.00    -0.281 N 
HETATM    4  H   UNL     1     -39.333  54.872 -48.711  1.00  0.00     0.189 HD
HETATM    5  C   UNL     1     -40.726  55.306 -50.281  1.00  0.00     0.039 A 
HETATM    6  C   UNL     1     -41.048  54.539 -51.379  1.00  0.00     0.015 A 
HETATM    7  C   UNL     1     -42.019  54.979 -52.417  1.00  0.00     0.168 C 
HETATM    8  N   UNL     1     -42.239  56.439 -52.304  1.00  0.00    -0.347 N 
HETATM    9  C   UNL     1     -42.659  57.245 -53.362  1.00  0.00     0.226 C 
HETATM   10  O   UNL     1     -43.160  58.351 -53.151  1.00  0.00    -0.273 OA
HETATM   11  C   UNL     1     -42.429  56.960 -50.929  1.00  0.00     0.132 C 
HETATM   12  C   UNL     1     -41.228  56.670 -50.003  1.00  0.00     0.079 C 
ENDROOT
BRANCH   9  13
HETATM   13  C   UNL     1     -42.517  56.703 -54.788  1.00  0.00     0.106 C 
HETATM   14  C   UNL     1     -43.876  56.356 -55.397  1.00  0.00     0.190 C 
HETATM   15  O   UNL     1     -44.691  57.480 -55.732  1.00  0.00    -0.350 OA
HETATM   16  C   UNL     1     -44.050  58.493 -56.384  1.00  0.00     0.075 A 
HETATM   17  C   UNL     1     -42.664  58.633 -56.416  1.00  0.00    -0.024 A 
HETATM   18  C   UNL     1     -44.866  59.433 -57.012  1.00  0.00     0.037 A 
HETATM   19  C   UNL     1     -41.767  57.655 -55.720  1.00  0.00     0.057 C 
HETATM   20  C   UNL     1     -42.100  59.703 -57.129  1.00  0.00     0.010 A 
HETATM   21  C   UNL     1     -42.917  60.633 -57.771  1.00  0.00     0.001 A 
HETATM   22  C   UNL     1     -44.302  60.502 -57.708  1.00  0.00     0.003 A 
ENDBRANCH   9  13
BRANCH   1  23
HETATM   23  C   UNL     1     -40.079  52.261 -52.201  1.00  0.00    -0.005 A 
HETATM   24  C   UNL     1     -39.678  50.991 -51.768  1.00  0.00     0.014 A 
HETATM   25  C   UNL     1     -39.587  49.929 -52.674  1.00  0.00     0.001 A 
HETATM   26  C   UNL     1     -39.886  50.128 -54.021  1.00  0.00     0.000 A 
HETATM   27  C   UNL     1     -40.268  51.391 -54.467  1.00  0.00     0.001 A 
HETATM   28  C   UNL     1     -40.363  52.450 -53.562  1.00  0.00     0.014 A 
ENDBRANCH   1  23
TORSDOF 2
ENDMDL
MODEL 4
REMARK VINA RESULT:      -8.2      1.313      2.151
REMARK  2 active torsions:
REMARK  status: ('A' for Active; 'I' for Inactive)
REMARK    1  A    between atoms: C_4  and  C_5 
REMARK       I    between atoms: N_12  and  C_13 
REMARK    2  A    between atoms: C_13  and  C_14 
ROOT
HETATM    1  C   UNL     1     -42.157  54.702 -51.844  1.00  0.00     0.097 A 
HETATM    2  N   UNL     1     -42.315  55.037 -50.549  1.00  0.00    -0.173 NA
HETATM    3  N   UNL     1     -43.178  56.065 -50.554  1.00  0.00    -0.281 N 
HETATM    4  H   UNL     1     -43.422  56.493 -49.666  1.00  0.00     0.189 HD
HETATM    5  C   UNL     1     -43.577  56.408 -51.802  1.00  0.00     0.039 A 
HETATM    6  C   UNL     1     -42.961  55.538 -52.673  1.00  0.00     0.015 A 
HETATM    7  C   UNL     1     -43.134  55.610 -54.148  1.00  0.00     0.168 C 
HETATM    8  N   UNL     1     -43.693  56.931 -54.517  1.00  0.00    -0.347 N 
HETATM    9  C   UNL     1     -43.524  57.523 -55.769  1.00  0.00     0.226 C 
HETATM   10  O   UNL     1     -44.275  58.424 -56.147  1.00  0.00    -0.273 OA
HETATM   11  C   UNL     1     -44.811  57.418 -53.675  1.00  0.00     0.132 C 
HETATM   12  C   UNL     1     -44.428  57.556 -52.185  1.00  0.00     0.079 C 
ENDROOT
BRANCH   9  13
HETATM   13  C   UNL     1     -42.404  56.999 -56.675  1.00  0.00     0.106 C 
HETATM   14  C   UNL     1     -42.292  55.475 -56.607  1.00  0.00     0.190 C 
HETATM   15  O   UNL     1     -43.358  54.764 -57.239  1.00  0.00    -0.350 OA
HETATM   16  C   UNL     1     -43.718  55.225 -58.472  1.00  0.00     0.075 A 
HETATM   17  C   UNL     1     -43.369  56.484 -58.956  1.00  0.00    -0.024 A 
HETATM   18  C   UNL     1     -44.502  54.368 -59.243  1.00  0.00     0.037 A 
HETATM   19  C   UNL     1     -42.556  57.437 -58.132  1.00  0.00     0.057 C 
HETATM   20  C   UNL     1     -43.776  56.859 -60.245  1.00  0.00     0.010 A 
HETATM   21  C   UNL     1     -44.546  55.995 -61.024  1.00  0.00     0.001 A 
HETATM   22  C   UNL     1     -44.915  54.750 -60.520  1.00  0.00     0.003 A 
ENDBRANCH   9  13
BRANCH   1  23
HETATM   23  C   UNL     1     -41.217  53.648 -52.234  1.00  0.00    -0.005 A 
HETATM   24  C   UNL     1     -40.357  53.048 -51.305  1.00  0.00     0.014 A 
HETATM   25  C   UNL     1     -39.498  52.017 -51.696  1.00  0.00     0.001 A 
HETATM   26  C   UNL     1     -39.483  51.581 -53.020  1.00  0.00     0.000 A 
HETATM   27  C   UNL     1     -40.320  52.181 -53.957  1.00  0.00     0.001 A 
HETATM   28  C   UNL     1     -41.180  53.209 -53.566  1.00  0.00     0.014 A 
ENDBRANCH   1  23
TORSDOF 2
ENDMDL
MODEL 5
REMARK VINA RESULT:      -8.2      1.430      1.921
REMARK  2 active torsions:
REMARK  status: ('A' for Active; 'I' for Inactive)
REMARK    1  A    between atoms: C_4  and  C_5 
REMARK       I    between atoms: N_12  and  C_13 
REMARK    2  A    between atoms: C_13  and  C_14 
ROOT
HETATM    1  C   UNL     1     -41.985  56.266 -52.989  1.00  0.00     0.097 A 
HETATM    2  N   UNL     1     -41.615  56.897 -51.857  1.00  0.00    -0.173 NA
HETATM    3  N   UNL     1     -42.375  58.001 -51.805  1.00  0.00    -0.281 N 
HETATM    4  H   UNL     1     -42.240  58.643 -51.029  1.00  0.00     0.189 HD
HETATM    5  C   UNL     1     -43.216  58.109 -52.861  1.00  0.00     0.039 A 
HETATM    6  C   UNL     1     -43.018  56.996 -53.646  1.00  0.00     0.015 A 
HETATM    7  C   UNL     1     -43.749  56.764 -54.921  1.00  0.00     0.168 C 
HETATM    8  N   UNL     1     -44.360  58.032 -55.380  1.00  0.00    -0.347 N 
HETATM    9  C   UNL     1     -44.670  58.307 -56.712  1.00  0.00     0.226 C 
HETATM   10  O   UNL     1     -45.478  59.191 -57.002  1.00  0.00    -0.273 OA
HETATM   11  C   UNL     1     -45.045  58.834 -54.338  1.00  0.00     0.132 C 
HETATM   12  C   UNL     1     -44.109  59.245 -53.181  1.00  0.00     0.079 C 
ENDROOT
BRANCH   9  13
HETATM   13  C   UNL     1     -44.010  57.455 -57.802  1.00  0.00     0.106 C 
HETATM   14  C   UNL     1     -44.975  57.168 -58.953  1.00  0.00     0.190 C 
HETATM   15  O   UNL     1     -45.273  58.291 -59.784  1.00  0.00    -0.350 OA
HETATM   16  C   UNL     1     -44.197  59.044 -60.156  1.00  0.00     0.075 A 
HETATM   17  C   UNL     1     -42.960  58.988 -59.517  1.00  0.00    -0.024 A 
HETATM   18  C   UNL     1     -44.401  59.926 -61.216  1.00  0.00     0.037 A 
HETATM   19  C   UNL     1     -42.726  58.074 -58.352  1.00  0.00     0.057 C 
HETATM   20  C   UNL     1     -41.910  59.794 -59.985  1.00  0.00     0.010 A 
HETATM   21  C   UNL     1     -42.110  60.663 -61.058  1.00  0.00     0.001 A 
HETATM   22  C   UNL     1     -43.359  60.733 -61.670  1.00  0.00     0.003 A 
ENDBRANCH   9  13
BRANCH   1  23
HETATM   23  C   UNL     1     -41.307  55.040 -53.417  1.00  0.00    -0.005 A 
HETATM   24  C   UNL     1     -41.245  53.908 -52.594  1.00  0.00     0.014 A 
HETATM   25  C   UNL     1     -40.627  52.737 -53.043  1.00  0.00     0.001 A 
HETATM   26  C   UNL     1     -40.057  52.689 -54.314  1.00  0.00     0.000 A 
HETATM   27  C   UNL     1     -40.096  53.813 -55.135  1.00  0.00     0.001 A 
HETATM   28  C   UNL     1     -40.716  54.981 -54.688  1.00  0.00     0.014 A 
ENDBRANCH   1  23
TORSDOF 2
ENDMDL
MODEL 6
REMARK VINA RESULT:      -8.1      2.483      7.619
REMARK  2 active torsions:
REMARK  status: ('A' for Active; 'I' for Inactive)
REMARK    1  A    between atoms: C_4  and  C_5 
REMARK       I    between atoms: N_12  and  C_13 
REMARK    2  A    between atoms: C_13  and  C_14 
ROOT
HETATM    1  C   UNL     1     -43.703  58.243 -57.920  1.00  0.00     0.097 A 
HETATM    2  N   UNL     1     -43.905  59.519 -58.304  1.00  0.00    -0.173 NA
HETATM    3  N   UNL     1     -43.327  60.268 -57.353  1.00  0.00    -0.281 N 
HETATM    4  H   UNL     1     -43.384  61.279 -57.435  1.00  0.00     0.189 HD
HETATM    5  C   UNL     1     -42.766  59.526 -56.369  1.00  0.00     0.039 A 
HETATM    6  C   UNL     1     -42.963  58.205 -56.703  1.00  0.00     0.015 A 
HETATM    7  C   UNL     1     -42.504  57.076 -55.849  1.00  0.00     0.168 C 
HETATM    8  N   UNL     1     -42.207  57.575 -54.486  1.00  0.00    -0.347 N 
HETATM    9  C   UNL     1     -42.244  56.778 -53.343  1.00  0.00     0.226 C 
HETATM   10  O   UNL     1     -41.663  57.125 -52.313  1.00  0.00    -0.273 OA
HETATM   11  C   UNL     1     -41.439  58.841 -54.414  1.00  0.00     0.132 C 
HETATM   12  C   UNL     1     -42.148  60.018 -55.118  1.00  0.00     0.079 C 
ENDROOT
BRANCH   9  13
HETATM   13  C   UNL     1     -42.991  55.441 -53.413  1.00  0.00     0.106 C 
HETATM   14  C   UNL     1     -42.493  54.578 -54.572  1.00  0.00     0.190 C 
HETATM   15  O   UNL     1     -41.188  54.023 -54.394  1.00  0.00    -0.350 OA
HETATM   16  C   UNL     1     -40.951  53.472 -53.168  1.00  0.00     0.075 A 
HETATM   17  C   UNL     1     -41.734  53.726 -52.044  1.00  0.00    -0.024 A 
HETATM   18  C   UNL     1     -39.835  52.641 -53.075  1.00  0.00     0.037 A 
HETATM   19  C   UNL     1     -42.918  54.643 -52.111  1.00  0.00     0.057 C 
HETATM   20  C   UNL     1     -41.414  53.097 -50.831  1.00  0.00     0.010 A 
HETATM   21  C   UNL     1     -40.308  52.251 -50.742  1.00  0.00     0.001 A 
HETATM   22  C   UNL     1     -39.514  52.028 -51.864  1.00  0.00     0.003 A 
ENDBRANCH   9  13
BRANCH   1  23
HETATM   23  C   UNL     1     -44.265  57.132 -58.693  1.00  0.00    -0.005 A 
HETATM   24  C   UNL     1     -45.579  57.162 -59.175  1.00  0.00     0.014 A 
HETATM   25  C   UNL     1     -46.077  56.105 -59.944  1.00  0.00     0.001 A 
HETATM   26  C   UNL     1     -45.270  55.006 -60.231  1.00  0.00     0.000 A 
HETATM   27  C   UNL     1     -43.966  54.956 -59.743  1.00  0.00     0.001 A 
HETATM   28  C   UNL     1     -43.468  56.013 -58.978  1.00  0.00     0.014 A 
ENDBRANCH   1  23
TORSDOF 2
ENDMDL
MODEL 7
REMARK VINA RESULT:      -8.1      3.182      6.410
REMARK  2 active torsions:
REMARK  status: ('A' for Active; 'I' for Inactive)
REMARK    1  A    between atoms: C_4  and  C_5 
REMARK       I    between atoms: N_12  and  C_13 
REMARK    2  A    between atoms: C_13  and  C_14 
ROOT
HETATM    1  C   UNL     1     -41.410  54.912 -54.600  1.00  0.00     0.097 A 
HETATM    2  N   UNL     1     -41.744  54.371 -55.788  1.00  0.00    -0.173 NA
HETATM    3  N   UNL     1     -42.155  55.403 -56.542  1.00  0.00    -0.281 N 
HETATM    4  H   UNL     1     -42.479  55.212 -57.485  1.00  0.00     0.189 HD
HETATM    5  C   UNL     1     -42.104  56.586 -55.883  1.00  0.00     0.039 A 
HETATM    6  C   UNL     1     -41.605  56.323 -54.627  1.00  0.00     0.015 A 
HETATM    7  C   UNL     1     -41.422  57.376 -53.592  1.00  0.00     0.168 C 
HETATM    8  N   UNL     1     -42.203  58.579 -53.965  1.00  0.00    -0.347 N 
HETATM    9  C   UNL     1     -42.662  59.522 -53.045  1.00  0.00     0.226 C 
HETATM   10  O   UNL     1     -42.985  60.653 -53.411  1.00  0.00    -0.273 OA
HETATM   11  C   UNL     1     -42.110  58.995 -55.384  1.00  0.00     0.132 C 
HETATM   12  C   UNL     1     -42.582  57.900 -56.366  1.00  0.00     0.079 C 
ENDROOT
BRANCH   9  13
HETATM   13  C   UNL     1     -42.717  59.126 -51.565  1.00  0.00     0.106 C 
HETATM   14  C   UNL     1     -41.740  59.951 -50.726  1.00  0.00     0.190 C 
HETATM   15  O   UNL     1     -42.109  61.318 -50.541  1.00  0.00    -0.350 OA
HETATM   16  C   UNL     1     -43.417  61.531 -50.213  1.00  0.00     0.075 A 
HETATM   17  C   UNL     1     -44.420  60.581 -50.391  1.00  0.00    -0.024 A 
HETATM   18  C   UNL     1     -43.725  62.793 -49.705  1.00  0.00     0.037 A 
HETATM   19  C   UNL     1     -44.120  59.230 -50.968  1.00  0.00     0.057 C 
HETATM   20  C   UNL     1     -45.734  60.892 -50.008  1.00  0.00     0.010 A 
HETATM   21  C   UNL     1     -46.039  62.148 -49.483  1.00  0.00     0.001 A 
HETATM   22  C   UNL     1     -45.034  63.102 -49.337  1.00  0.00     0.003 A 
ENDBRANCH   9  13
BRANCH   1  23
HETATM   23  C   UNL     1     -40.978  54.062 -53.488  1.00  0.00    -0.005 A 
HETATM   24  C   UNL     1     -41.283  54.378 -52.158  1.00  0.00     0.014 A 
HETATM   25  C   UNL     1     -40.892  53.527 -51.119  1.00  0.00     0.001 A 
HETATM   26  C   UNL     1     -40.185  52.359 -51.397  1.00  0.00     0.000 A 
HETATM   27  C   UNL     1     -39.860  52.043 -52.714  1.00  0.00     0.001 A 
HETATM   28  C   UNL     1     -40.252  52.890 -53.752  1.00  0.00     0.014 A 
ENDBRANCH   1  23
TORSDOF 2
ENDMDL
MODEL 8
REMARK VINA RESULT:      -8.0      2.613      5.416
REMARK  2 active torsions:
REMARK  status: ('A' for Active; 'I' for Inactive)
REMARK    1  A    between atoms: C_4  and  C_5 
REMARK       I    between atoms: N_12  and  C_13 
REMARK    2  A    between atoms: C_13  and  C_14 
ROOT
HETATM    1  C   UNL     1     -42.258  54.291 -54.819  1.00  0.00     0.097 A 
HETATM    2  N   UNL     1     -43.104  53.526 -55.536  1.00  0.00    -0.173 NA
HETATM    3  N   UNL     1     -43.568  54.328 -56.506  1.00  0.00    -0.281 N 
HETATM    4  H   UNL     1     -44.249  53.951 -57.159  1.00  0.00     0.189 HD
HETATM    5  C   UNL     1     -43.059  55.581 -56.438  1.00  0.00     0.039 A 
HETATM    6  C   UNL     1     -42.186  55.602 -55.374  1.00  0.00     0.015 A 
HETATM    7  C   UNL     1     -41.440  56.821 -54.961  1.00  0.00     0.168 C 
HETATM    8  N   UNL     1     -42.068  58.016 -55.571  1.00  0.00    -0.347 N 
HETATM    9  C   UNL     1     -41.970  59.301 -55.039  1.00  0.00     0.226 C 
HETATM   10  O   UNL     1     -42.192  60.292 -55.738  1.00  0.00    -0.273 OA
HETATM   11  C   UNL     1     -42.436  57.894 -57.002  1.00  0.00     0.132 C 
HETATM   12  C   UNL     1     -43.432  56.745 -57.272  1.00  0.00     0.079 C 
ENDROOT
BRANCH   9  13
HETATM   13  C   UNL     1     -41.541  59.450 -53.575  1.00  0.00     0.106 C 
HETATM   14  C   UNL     1     -42.074  60.746 -52.961  1.00  0.00     0.190 C 
HETATM   15  O   UNL     1     -43.482  60.764 -52.720  1.00  0.00    -0.350 OA
HETATM   16  C   UNL     1     -43.989  59.640 -52.134  1.00  0.00     0.075 A 
HETATM   17  C   UNL     1     -43.315  58.422 -52.093  1.00  0.00    -0.024 A 
HETATM   18  C   UNL     1     -45.267  59.755 -51.588  1.00  0.00     0.037 A 
HETATM   19  C   UNL     1     -41.955  58.264 -52.705  1.00  0.00     0.057 C 
HETATM   20  C   UNL     1     -43.917  57.327 -51.453  1.00  0.00     0.010 A 
HETATM   21  C   UNL     1     -45.187  57.447 -50.891  1.00  0.00     0.001 A 
HETATM   22  C   UNL     1     -45.866  58.662 -50.964  1.00  0.00     0.003 A 
ENDBRANCH   9  13
BRANCH   1  23
HETATM   23  C   UNL     1     -41.607  53.762 -53.618  1.00  0.00    -0.005 A 
HETATM   24  C   UNL     1     -40.604  52.787 -53.693  1.00  0.00     0.014 A 
HETATM   25  C   UNL     1     -39.972  52.328 -52.534  1.00  0.00     0.001 A 
HETATM   26  C   UNL     1     -40.341  52.832 -51.288  1.00  0.00     0.000 A 
HETATM   27  C   UNL     1     -41.350  53.788 -51.197  1.00  0.00     0.001 A 
HETATM   28  C   UNL     1     -41.979  54.248 -52.355  1.00  0.00     0.014 A 
ENDBRANCH   1  23
TORSDOF 2
ENDMDL
MODEL 9
REMARK VINA RESULT:      -7.7      2.129      4.343
REMARK  2 active torsions:
REMARK  status: ('A' for Active; 'I' for Inactive)
REMARK    1  A    between atoms: C_4  and  C_5 
REMARK       I    between atoms: N_12  and  C_13 
REMARK    2  A    between atoms: C_13  and  C_14 
ROOT
HETATM    1  C   UNL     1     -41.890  56.331 -51.746  1.00  0.00     0.097 A 
HETATM    2  N   UNL     1     -42.116  55.283 -50.930  1.00  0.00    -0.173 NA
HETATM    3  N   UNL     1     -42.230  54.221 -51.743  1.00  0.00    -0.281 N 
HETATM    4  H   UNL     1     -42.428  53.316 -51.328  1.00  0.00     0.189 HD
HETATM    5  C   UNL     1     -42.091  54.545 -53.051  1.00  0.00     0.039 A 
HETATM    6  C   UNL     1     -41.846  55.899 -53.104  1.00  0.00     0.015 A 
HETATM    7  C   UNL     1     -41.658  56.639 -54.381  1.00  0.00     0.168 C 
HETATM    8  N   UNL     1     -42.165  55.820 -55.507  1.00  0.00    -0.347 N 
HETATM    9  C   UNL     1     -42.603  56.354 -56.719  1.00  0.00     0.226 C 
HETATM   10  O   UNL     1     -42.676  55.649 -57.727  1.00  0.00    -0.273 OA
HETATM   11  C   UNL     1     -41.784  54.387 -55.487  1.00  0.00     0.132 C 
HETATM   12  C   UNL     1     -42.268  53.653 -54.218  1.00  0.00     0.079 C 
ENDROOT
BRANCH   9  13
HETATM   13  C   UNL     1     -42.953  57.845 -56.771  1.00  0.00     0.106 C 
HETATM   14  C   UNL     1     -42.429  58.501 -58.049  1.00  0.00     0.190 C 
HETATM   15  O   UNL     1     -43.119  58.131 -59.244  1.00  0.00    -0.350 OA
HETATM   16  C   UNL     1     -44.481  58.132 -59.156  1.00  0.00     0.075 A 
HETATM   17  C   UNL     1     -45.175  58.124 -57.948  1.00  0.00    -0.024 A 
HETATM   18  C   UNL     1     -45.175  58.107 -60.365  1.00  0.00     0.037 A 
HETATM   19  C   UNL     1     -44.451  58.115 -56.634  1.00  0.00     0.057 C 
HETATM   20  C   UNL     1     -46.578  58.140 -57.964  1.00  0.00     0.010 A 
HETATM   21  C   UNL     1     -47.272  58.133 -59.174  1.00  0.00     0.001 A 
HETATM   22  C   UNL     1     -46.569  58.110 -60.376  1.00  0.00     0.003 A 
ENDBRANCH   9  13
BRANCH   1  23
HETATM   23  C   UNL     1     -41.781  57.688 -51.206  1.00  0.00    -0.005 A 
HETATM   24  C   UNL     1     -40.614  58.139 -50.577  1.00  0.00     0.014 A 
HETATM   25  C   UNL     1     -40.524  59.453 -50.107  1.00  0.00     0.001 A 
HETATM   26  C   UNL     1     -41.602  60.325 -50.252  1.00  0.00     0.000 A 
HETATM   27  C   UNL     1     -42.774  59.884 -50.860  1.00  0.00     0.001 A 
HETATM   28  C   UNL     1     -42.863  58.573 -51.332  1.00  0.00     0.014 A 
ENDBRANCH   1  23
TORSDOF 2
ENDMDL
MODEL 10
REMARK VINA RESULT:      -7.7      2.877      8.544
REMARK  2 active torsions:
REMARK  status: ('A' for Active; 'I' for Inactive)
REMARK    1  A    between atoms: C_4  and  C_5 
REMARK       I    between atoms: N_12  and  C_13 
REMARK    2  A    between atoms: C_13  and  C_14 
ROOT
HETATM    1  C   UNL     1     -42.124  59.723 -59.523  1.00  0.00     0.097 A 
HETATM    2  N   UNL     1     -41.804  59.530 -60.817  1.00  0.00    -0.173 NA
HETATM    3  N   UNL     1     -41.953  58.212 -61.024  1.00  0.00    -0.281 N 
HETATM    4  H   UNL     1     -41.738  57.841 -61.944  1.00  0.00     0.189 HD
HETATM    5  C   UNL     1     -42.351  57.549 -59.912  1.00  0.00     0.039 A 
HETATM    6  C   UNL     1     -42.498  58.489 -58.917  1.00  0.00     0.015 A 
HETATM    7  C   UNL     1     -42.905  58.142 -57.528  1.00  0.00     0.168 C 
HETATM    8  N   UNL     1     -42.723  56.689 -57.307  1.00  0.00    -0.347 N 
HETATM    9  C   UNL     1     -42.522  56.114 -56.052  1.00  0.00     0.226 C 
HETATM   10  O   UNL     1     -42.726  54.912 -55.870  1.00  0.00    -0.273 OA
HETATM   11  C   UNL     1     -43.197  55.804 -58.398  1.00  0.00     0.132 C 
HETATM   12  C   UNL     1     -42.504  56.087 -59.748  1.00  0.00     0.079 C 
ENDROOT
BRANCH   9  13
HETATM   13  C   UNL     1     -42.080  57.022 -54.900  1.00  0.00     0.106 C 
HETATM   14  C   UNL     1     -43.268  57.472 -54.049  1.00  0.00     0.190 C 
HETATM   15  O   UNL     1     -43.849  56.450 -53.236  1.00  0.00    -0.350 OA
HETATM   16  C   UNL     1     -42.959  55.672 -52.553  1.00  0.00     0.075 A 
HETATM   17  C   UNL     1     -41.604  55.593 -52.867  1.00  0.00    -0.024 A 
HETATM   18  C   UNL     1     -43.486  54.906 -51.514  1.00  0.00     0.037 A 
HETATM   19  C   UNL     1     -41.022  56.380 -54.002  1.00  0.00     0.057 C 
HETATM   20  C   UNL     1     -40.769  54.773 -52.093  1.00  0.00     0.010 A 
HETATM   21  C   UNL     1     -41.292  54.021 -51.042  1.00  0.00     0.001 A 
HETATM   22  C   UNL     1     -42.654  54.082 -50.756  1.00  0.00     0.003 A 
ENDBRANCH   9  13
BRANCH   1  23
HETATM   23  C   UNL     1     -42.007  61.051 -58.915  1.00  0.00    -0.005 A 
HETATM   24  C   UNL     1     -43.076  61.645 -58.232  1.00  0.00     0.014 A 
HETATM   25  C   UNL     1     -42.924  62.896 -57.627  1.00  0.00     0.001 A 
HETATM   26  C   UNL     1     -41.707  63.570 -57.707  1.00  0.00     0.000 A 
HETATM   27  C   UNL     1     -40.642  62.999 -58.398  1.00  0.00     0.001 A 
HETATM   28  C   UNL     1     -40.792  61.748 -59.000  1.00  0.00     0.014 A 
ENDBRANCH   1  23
TORSDOF 2
ENDMDL
