MODEL 1
REMARK VINA RESULT:      -8.8      0.000      0.000
REMARK  6 active torsions:
REMARK  status: ('A' for Active; 'I' for Inactive)
REMARK    1  A    between atoms: C_5  and  N_6 
REMARK    2  A    between atoms: C_17  and  N_18 
REMARK    3  A    between atoms: C_17  and  C_29 
REMARK       I    between atoms: N_18  and  C_19 
REMARK    4  A    between atoms: C_19  and  C_20 
REMARK    5  A    between atoms: C_20  and  C_21 
REMARK    6  A    between atoms: C_21  and  C_22 
ROOT
HETATM    1  N   UNL     1     -44.711  59.399 -51.680  1.00  0.00    -0.248 N 
HETATM    2  C   UNL     1     -45.487  58.459 -50.961  1.00  0.00     0.335 A 
HETATM    3  O   UNL     1     -46.664  58.588 -50.625  1.00  0.00    -0.246 OA
HETATM    4  N   UNL     1     -44.856  57.272 -50.644  1.00  0.00    -0.274 N 
HETATM    5  C   UNL     1     -43.603  56.881 -51.012  1.00  0.00     0.262 A 
HETATM    6  O   UNL     1     -43.135  55.776 -50.776  1.00  0.00    -0.267 OA
HETATM    7  C   UNL     1     -42.845  57.896 -51.709  1.00  0.00     0.101 A 
HETATM    8  C   UNL     1     -43.410  59.067 -52.007  1.00  0.00     0.134 A 
HETATM    9  N   UNL     1     -42.474  59.856 -52.601  1.00  0.00    -0.309 N 
HETATM   10  C   UNL     1     -41.268  59.186 -52.773  1.00  0.00     0.266 A 
HETATM   11  O   UNL     1     -40.297  59.639 -53.357  1.00  0.00    -0.270 OA
HETATM   12  C   UNL     1     -41.403  57.808 -52.106  1.00  0.00     0.249 A 
HETATM   13  H   UNL     1     -45.431  56.590 -50.171  1.00  0.00     0.173 HD
HETATM   14  H   UNL     1     -42.615  60.800 -52.933  1.00  0.00     0.170 HD
ENDROOT
BRANCH  12  15
HETATM   15  N   UNL     1     -41.123  56.679 -53.013  1.00  0.00    -0.332 N 
HETATM   16  C   UNL     1     -41.696  56.540 -54.253  1.00  0.00     0.219 C 
HETATM   17  O   UNL     1     -42.401  57.401 -54.765  1.00  0.00    -0.274 OA
HETATM   18  H   UNL     1     -40.683  55.863 -52.600  1.00  0.00     0.164 HD
BRANCH  16  19
HETATM   19  C   UNL     1     -41.429  55.204 -54.907  1.00  0.00     0.107 C 
BRANCH  19  20
HETATM   20  C   UNL     1     -42.110  54.089 -54.115  1.00  0.00     0.047 C 
BRANCH  20  21
HETATM   21  C   UNL     1     -41.124  53.152 -53.460  1.00  0.00    -0.058 A 
HETATM   22  C   UNL     1     -40.753  53.336 -52.121  1.00  0.00     0.007 A 
HETATM   23  C   UNL     1     -39.853  52.463 -51.508  1.00  0.00     0.001 A 
HETATM   24  C   UNL     1     -39.315  51.397 -52.227  1.00  0.00     0.000 A 
HETATM   25  C   UNL     1     -39.680  51.201 -53.557  1.00  0.00     0.001 A 
HETATM   26  C   UNL     1     -40.582  52.072 -54.171  1.00  0.00     0.007 A 
ENDBRANCH  20  21
ENDBRANCH  19  20
ENDBRANCH  16  19
ENDBRANCH  12  15
BRANCH  12  27
HETATM   27  C   UNL     1     -40.470  57.867 -50.888  1.00  0.00     0.426 C 
HETATM   28  F   UNL     1     -39.284  58.456 -51.165  1.00  0.00    -0.167 F 
HETATM   29  F   UNL     1     -41.036  58.575 -49.879  1.00  0.00    -0.167 F 
HETATM   30  F   UNL     1     -40.212  56.639 -50.383  1.00  0.00    -0.167 F 
ENDBRANCH  12  27
BRANCH   1  31
HETATM   31  C   UNL     1     -45.313  60.655 -52.042  1.00  0.00     0.045 A 
HETATM   32  C   UNL     1     -45.966  60.810 -53.272  1.00  0.00     0.031 A 
HETATM   33  C   UNL     1     -46.591  62.015 -53.612  1.00  0.00     0.009 A 
HETATM   34  C   UNL     1     -46.559  63.103 -52.736  1.00  0.00    -0.062 A 
HETATM   35  C   UNL     1     -47.262  64.380 -53.088  1.00  0.00     0.048 C 
HETATM   36  C   UNL     1     -45.901  62.962 -51.510  1.00  0.00     0.009 A 
HETATM   37  C   UNL     1     -45.278  61.754 -51.172  1.00  0.00     0.031 A 
ENDBRANCH   1  31
TORSDOF 6
ENDMDL
MODEL 2
REMARK VINA RESULT:      -8.7      3.106      4.472
REMARK  6 active torsions:
REMARK  status: ('A' for Active; 'I' for Inactive)
REMARK    1  A    between atoms: C_5  and  N_6 
REMARK    2  A    between atoms: C_17  and  N_18 
REMARK    3  A    between atoms: C_17  and  C_29 
REMARK       I    between atoms: N_18  and  C_19 
REMARK    4  A    between atoms: C_19  and  C_20 
REMARK    5  A    between atoms: C_20  and  C_21 
REMARK    6  A    between atoms: C_21  and  C_22 
ROOT
HETATM    1  N   UNL     1     -43.529  58.651 -55.636  1.00  0.00    -0.248 N 
HETATM    2  C   UNL     1     -44.890  58.322 -55.430  1.00  0.00     0.335 A 
HETATM    3  O   UNL     1     -45.746  58.172 -56.301  1.00  0.00    -0.246 OA
HETATM    4  N   UNL     1     -45.268  58.117 -54.118  1.00  0.00    -0.274 N 
HETATM    5  C   UNL     1     -44.463  58.122 -53.017  1.00  0.00     0.262 A 
HETATM    6  O   UNL     1     -44.845  57.842 -51.890  1.00  0.00    -0.267 OA
HETATM    7  C   UNL     1     -43.094  58.503 -53.285  1.00  0.00     0.101 A 
HETATM    8  C   UNL     1     -42.697  58.740 -54.536  1.00  0.00     0.134 A 
HETATM    9  N   UNL     1     -41.396  59.135 -54.507  1.00  0.00    -0.309 N 
HETATM   10  C   UNL     1     -40.877  59.104 -53.218  1.00  0.00     0.266 A 
HETATM   11  O   UNL     1     -39.712  59.327 -52.931  1.00  0.00    -0.270 OA
HETATM   12  C   UNL     1     -42.024  58.738 -52.263  1.00  0.00     0.249 A 
HETATM   13  H   UNL     1     -46.229  57.837 -53.983  1.00  0.00     0.173 HD
HETATM   14  H   UNL     1     -40.832  59.384 -55.307  1.00  0.00     0.170 HD
ENDROOT
BRANCH  12  15
HETATM   15  N   UNL     1     -41.751  57.549 -51.434  1.00  0.00    -0.332 N 
HETATM   16  C   UNL     1     -41.286  56.360 -51.939  1.00  0.00     0.219 C 
HETATM   17  O   UNL     1     -40.945  56.216 -53.106  1.00  0.00    -0.274 OA
HETATM   18  H   UNL     1     -42.154  57.543 -50.502  1.00  0.00     0.164 HD
BRANCH  16  19
HETATM   19  C   UNL     1     -41.287  55.226 -50.939  1.00  0.00     0.107 C 
BRANCH  19  20
HETATM   20  C   UNL     1     -42.015  54.016 -51.523  1.00  0.00     0.047 C 
BRANCH  20  21
HETATM   21  C   UNL     1     -41.086  53.067 -52.241  1.00  0.00    -0.058 A 
HETATM   22  C   UNL     1     -40.102  52.366 -51.530  1.00  0.00     0.007 A 
HETATM   23  C   UNL     1     -39.251  51.476 -52.189  1.00  0.00     0.001 A 
HETATM   24  C   UNL     1     -39.375  51.278 -53.563  1.00  0.00     0.000 A 
HETATM   25  C   UNL     1     -40.353  51.966 -54.278  1.00  0.00     0.001 A 
HETATM   26  C   UNL     1     -41.207  52.854 -53.621  1.00  0.00     0.007 A 
ENDBRANCH  20  21
ENDBRANCH  19  20
ENDBRANCH  16  19
ENDBRANCH  12  15
BRANCH  12  27
HETATM   27  C   UNL     1     -42.280  60.013 -51.449  1.00  0.00     0.426 C 
HETATM   28  F   UNL     1     -43.334  59.895 -50.608  1.00  0.00    -0.167 F 
HETATM   29  F   UNL     1     -41.202  60.326 -50.687  1.00  0.00    -0.167 F 
HETATM   30  F   UNL     1     -42.503  61.088 -52.239  1.00  0.00    -0.167 F 
ENDBRANCH  12  27
BRANCH   1  31
HETATM   31  C   UNL     1     -43.073  58.875 -56.983  1.00  0.00     0.045 A 
HETATM   32  C   UNL     1     -42.545  57.825 -57.747  1.00  0.00     0.031 A 
HETATM   33  C   UNL     1     -42.140  58.026 -59.071  1.00  0.00     0.009 A 
HETATM   34  C   UNL     1     -42.233  59.291 -59.657  1.00  0.00    -0.062 A 
HETATM   35  C   UNL     1     -41.832  59.493 -61.088  1.00  0.00     0.048 C 
HETATM   36  C   UNL     1     -42.748  60.348 -58.901  1.00  0.00     0.009 A 
HETATM   37  C   UNL     1     -43.155  60.143 -57.576  1.00  0.00     0.031 A 
ENDBRANCH   1  31
TORSDOF 6
ENDMDL
MODEL 3
REMARK VINA RESULT:      -8.7      6.328      9.545
REMARK  6 active torsions:
REMARK  status: ('A' for Active; 'I' for Inactive)
REMARK    1  A    between atoms: C_5  and  N_6 
REMARK    2  A    between atoms: C_17  and  N_18 
REMARK    3  A    between atoms: C_17  and  C_29 
REMARK       I    between atoms: N_18  and  C_19 
REMARK    4  A    between atoms: C_19  and  C_20 
REMARK    5  A    between atoms: C_20  and  C_21 
REMARK    6  A    between atoms: C_21  and  C_22 
ROOT
HETATM    1  N   UNL     1     -43.290  56.179 -55.888  1.00  0.00    -0.248 N 
HETATM    2  C   UNL     1     -44.245  56.816 -55.060  1.00  0.00     0.335 A 
HETATM    3  O   UNL     1     -44.396  56.643 -53.852  1.00  0.00    -0.246 OA
HETATM    4  N   UNL     1     -45.056  57.745 -55.681  1.00  0.00    -0.274 N 
HETATM    5  C   UNL     1     -44.985  58.167 -56.977  1.00  0.00     0.262 A 
HETATM    6  O   UNL     1     -45.676  59.062 -57.442  1.00  0.00    -0.267 OA
HETATM    7  C   UNL     1     -44.018  57.454 -57.780  1.00  0.00     0.101 A 
HETATM    8  C   UNL     1     -43.237  56.527 -57.224  1.00  0.00     0.134 A 
HETATM    9  N   UNL     1     -42.469  55.970 -58.199  1.00  0.00    -0.309 N 
HETATM   10  C   UNL     1     -42.683  56.575 -59.432  1.00  0.00     0.266 A 
HETATM   11  O   UNL     1     -42.059  56.322 -60.450  1.00  0.00    -0.270 OA
HETATM   12  C   UNL     1     -43.820  57.594 -59.259  1.00  0.00     0.249 A 
HETATM   13  H   UNL     1     -45.704  58.228 -55.075  1.00  0.00     0.173 HD
HETATM   14  H   UNL     1     -41.784  55.239 -58.072  1.00  0.00     0.170 HD
ENDROOT
BRANCH  12  15
HETATM   15  N   UNL     1     -43.456  58.966 -59.662  1.00  0.00    -0.332 N 
HETATM   16  C   UNL     1     -42.373  59.644 -59.158  1.00  0.00     0.219 C 
HETATM   17  O   UNL     1     -41.546  59.128 -58.417  1.00  0.00    -0.274 OA
HETATM   18  H   UNL     1     -44.170  59.503 -60.142  1.00  0.00     0.164 HD
BRANCH  16  19
HETATM   19  C   UNL     1     -42.324  61.102 -59.553  1.00  0.00     0.107 C 
BRANCH  19  20
HETATM   20  C   UNL     1     -41.154  61.793 -58.856  1.00  0.00     0.047 C 
BRANCH  20  21
HETATM   21  C   UNL     1     -40.266  62.549 -59.814  1.00  0.00    -0.058 A 
HETATM   22  C   UNL     1     -40.425  62.394 -61.199  1.00  0.00     0.007 A 
HETATM   23  C   UNL     1     -39.614  63.102 -62.088  1.00  0.00     0.001 A 
HETATM   24  C   UNL     1     -38.638  63.972 -61.603  1.00  0.00     0.000 A 
HETATM   25  C   UNL     1     -38.475  64.136 -60.230  1.00  0.00     0.001 A 
HETATM   26  C   UNL     1     -39.286  63.431 -59.339  1.00  0.00     0.007 A 
ENDBRANCH  20  21
ENDBRANCH  19  20
ENDBRANCH  16  19
ENDBRANCH  12  15
BRANCH  12  27
HETATM   27  C   UNL     1     -44.997  57.010 -60.053  1.00  0.00     0.426 C 
HETATM   28  F   UNL     1     -45.753  56.162 -59.319  1.00  0.00    -0.167 F 
HETATM   29  F   UNL     1     -45.821  57.994 -60.491  1.00  0.00    -0.167 F 
HETATM   30  F   UNL     1     -44.588  56.346 -61.157  1.00  0.00    -0.167 F 
ENDBRANCH  12  27
BRANCH   1  31
HETATM   31  C   UNL     1     -42.413  55.201 -55.298  1.00  0.00     0.045 A 
HETATM   32  C   UNL     1     -42.856  53.894 -55.053  1.00  0.00     0.031 A 
HETATM   33  C   UNL     1     -41.997  52.928 -54.519  1.00  0.00     0.009 A 
HETATM   34  C   UNL     1     -40.676  53.252 -54.197  1.00  0.00    -0.062 A 
HETATM   35  C   UNL     1     -39.749  52.203 -53.661  1.00  0.00     0.048 C 
HETATM   36  C   UNL     1     -40.228  54.556 -54.428  1.00  0.00     0.009 A 
HETATM   37  C   UNL     1     -41.089  55.521 -54.963  1.00  0.00     0.031 A 
ENDBRANCH   1  31
TORSDOF 6
ENDMDL
MODEL 4
REMARK VINA RESULT:      -8.7      2.388      3.026
REMARK  6 active torsions:
REMARK  status: ('A' for Active; 'I' for Inactive)
REMARK    1  A    between atoms: C_5  and  N_6 
REMARK    2  A    between atoms: C_17  and  N_18 
REMARK    3  A    between atoms: C_17  and  C_29 
REMARK       I    between atoms: N_18  and  C_19 
REMARK    4  A    between atoms: C_19  and  C_20 
REMARK    5  A    between atoms: C_20  and  C_21 
REMARK    6  A    between atoms: C_21  and  C_22 
ROOT
HETATM    1  N   UNL     1     -44.061  58.634 -53.426  1.00  0.00    -0.248 N 
HETATM    2  C   UNL     1     -44.975  58.164 -54.399  1.00  0.00     0.335 A 
HETATM    3  O   UNL     1     -45.709  58.854 -55.105  1.00  0.00    -0.246 OA
HETATM    4  N   UNL     1     -45.006  56.796 -54.586  1.00  0.00    -0.274 N 
HETATM    5  C   UNL     1     -44.205  55.865 -53.994  1.00  0.00     0.262 A 
HETATM    6  O   UNL     1     -44.222  54.674 -54.272  1.00  0.00    -0.267 OA
HETATM    7  C   UNL     1     -43.321  56.399 -52.982  1.00  0.00     0.101 A 
HETATM    8  C   UNL     1     -43.284  57.712 -52.751  1.00  0.00     0.134 A 
HETATM    9  N   UNL     1     -42.426  57.942 -51.721  1.00  0.00    -0.309 N 
HETATM   10  C   UNL     1     -41.816  56.772 -51.286  1.00  0.00     0.266 A 
HETATM   11  O   UNL     1     -40.942  56.715 -50.436  1.00  0.00    -0.270 OA
HETATM   12  C   UNL     1     -42.438  55.605 -52.069  1.00  0.00     0.249 A 
HETATM   13  H   UNL     1     -45.628  56.473 -55.314  1.00  0.00     0.173 HD
HETATM   14  H   UNL     1     -42.199  58.844 -51.326  1.00  0.00     0.170 HD
ENDROOT
BRANCH  12  15
HETATM   15  N   UNL     1     -41.452  54.782 -52.795  1.00  0.00    -0.332 N 
HETATM   16  C   UNL     1     -40.699  55.248 -53.845  1.00  0.00     0.219 C 
HETATM   17  O   UNL     1     -40.696  56.421 -54.198  1.00  0.00    -0.274 OA
HETATM   18  H   UNL     1     -41.515  53.778 -52.666  1.00  0.00     0.164 HD
BRANCH  16  19
HETATM   19  C   UNL     1     -39.920  54.173 -54.567  1.00  0.00     0.107 C 
BRANCH  19  20
HETATM   20  C   UNL     1     -40.768  52.908 -54.692  1.00  0.00     0.047 C 
BRANCH  20  21
HETATM   21  C   UNL     1     -40.267  51.780 -53.824  1.00  0.00    -0.058 A 
HETATM   22  C   UNL     1     -39.887  52.022 -52.496  1.00  0.00     0.007 A 
HETATM   23  C   UNL     1     -39.437  50.978 -51.687  1.00  0.00     0.001 A 
HETATM   24  C   UNL     1     -39.361  49.683 -52.195  1.00  0.00     0.000 A 
HETATM   25  C   UNL     1     -39.740  49.430 -53.511  1.00  0.00     0.001 A 
HETATM   26  C   UNL     1     -40.193  50.472 -54.322  1.00  0.00     0.007 A 
ENDBRANCH  20  21
ENDBRANCH  19  20
ENDBRANCH  16  19
ENDBRANCH  12  15
BRANCH  12  27
HETATM   27  C   UNL     1     -43.249  54.820 -51.028  1.00  0.00     0.426 C 
HETATM   28  F   UNL     1     -44.348  55.489 -50.608  1.00  0.00    -0.167 F 
HETATM   29  F   UNL     1     -43.678  53.639 -51.539  1.00  0.00    -0.167 F 
HETATM   30  F   UNL     1     -42.513  54.509 -49.937  1.00  0.00    -0.167 F 
ENDBRANCH  12  27
BRANCH   1  31
HETATM   31  C   UNL     1     -43.980  60.051 -53.187  1.00  0.00     0.045 A 
HETATM   32  C   UNL     1     -44.787  60.663 -52.217  1.00  0.00     0.031 A 
HETATM   33  C   UNL     1     -44.683  62.033 -51.950  1.00  0.00     0.009 A 
HETATM   34  C   UNL     1     -43.783  62.828 -52.663  1.00  0.00    -0.062 A 
HETATM   35  C   UNL     1     -43.649  64.288 -52.348  1.00  0.00     0.048 C 
HETATM   36  C   UNL     1     -42.981  62.230 -53.640  1.00  0.00     0.009 A 
HETATM   37  C   UNL     1     -43.086  60.859 -53.904  1.00  0.00     0.031 A 
ENDBRANCH   1  31
TORSDOF 6
ENDMDL
MODEL 5
REMARK VINA RESULT:      -8.5      3.757      4.747
REMARK  6 active torsions:
REMARK  status: ('A' for Active; 'I' for Inactive)
REMARK    1  A    between atoms: C_5  and  N_6 
REMARK    2  A    between atoms: C_17  and  N_18 
REMARK    3  A    between atoms: C_17  and  C_29 
REMARK       I    between atoms: N_18  and  C_19 
REMARK    4  A    between atoms: C_19  and  C_20 
REMARK    5  A    between atoms: C_20  and  C_21 
REMARK    6  A    between atoms: C_21  and  C_22 
ROOT
HETATM    1  N   UNL     1     -43.612  58.862 -56.808  1.00  0.00    -0.248 N 
HETATM    2  C   UNL     1     -44.880  58.244 -56.917  1.00  0.00     0.335 A 
HETATM    3  O   UNL     1     -45.606  58.235 -57.910  1.00  0.00    -0.246 OA
HETATM    4  N   UNL     1     -45.315  57.558 -55.800  1.00  0.00    -0.274 N 
HETATM    5  C   UNL     1     -44.626  57.349 -54.641  1.00  0.00     0.262 A 
HETATM    6  O   UNL     1     -45.032  56.653 -53.721  1.00  0.00    -0.267 OA
HETATM    7  C   UNL     1     -43.356  58.036 -54.573  1.00  0.00     0.101 A 
HETATM    8  C   UNL     1     -42.916  58.734 -55.621  1.00  0.00     0.134 A 
HETATM    9  N   UNL     1     -41.739  59.326 -55.279  1.00  0.00    -0.309 N 
HETATM   10  C   UNL     1     -41.336  58.970 -53.997  1.00  0.00     0.266 A 
HETATM   11  O   UNL     1     -40.277  59.293 -53.484  1.00  0.00    -0.270 OA
HETATM   12  C   UNL     1     -42.453  58.113 -53.380  1.00  0.00     0.249 A 
HETATM   13  H   UNL     1     -46.200  57.082 -55.901  1.00  0.00     0.173 HD
HETATM   14  H   UNL     1     -41.176  59.919 -55.873  1.00  0.00     0.170 HD
ENDROOT
BRANCH  12  15
HETATM   15  N   UNL     1     -41.999  56.788 -52.916  1.00  0.00    -0.332 N 
HETATM   16  C   UNL     1     -41.283  55.914 -53.696  1.00  0.00     0.219 C 
HETATM   17  O   UNL     1     -40.856  56.204 -54.807  1.00  0.00    -0.274 OA
HETATM   18  H   UNL     1     -42.444  56.423 -52.081  1.00  0.00     0.164 HD
BRANCH  16  19
HETATM   19  C   UNL     1     -41.117  54.541 -53.087  1.00  0.00     0.107 C 
BRANCH  19  20
HETATM   20  C   UNL     1     -40.539  53.577 -54.121  1.00  0.00     0.047 C 
BRANCH  20  21
HETATM   21  C   UNL     1     -40.181  52.235 -53.531  1.00  0.00    -0.058 A 
HETATM   22  C   UNL     1     -39.872  52.118 -52.168  1.00  0.00     0.007 A 
HETATM   23  C   UNL     1     -39.554  50.876 -51.617  1.00  0.00     0.001 A 
HETATM   24  C   UNL     1     -39.541  49.738 -52.422  1.00  0.00     0.000 A 
HETATM   25  C   UNL     1     -39.850  49.841 -53.776  1.00  0.00     0.001 A 
HETATM   26  C   UNL     1     -40.171  51.082 -54.328  1.00  0.00     0.007 A 
ENDBRANCH  20  21
ENDBRANCH  19  20
ENDBRANCH  16  19
ENDBRANCH  12  15
BRANCH  12  27
HETATM   27  C   UNL     1     -43.050  58.985 -52.266  1.00  0.00     0.426 C 
HETATM   28  F   UNL     1     -42.104  59.533 -51.468  1.00  0.00    -0.167 F 
HETATM   29  F   UNL     1     -43.768  60.011 -52.787  1.00  0.00    -0.167 F 
HETATM   30  F   UNL     1     -43.904  58.294 -51.479  1.00  0.00    -0.167 F 
ENDBRANCH  12  27
BRANCH   1  31
HETATM   31  C   UNL     1     -43.103  59.590 -57.940  1.00  0.00     0.045 A 
HETATM   32  C   UNL     1     -43.207  60.987 -58.002  1.00  0.00     0.031 A 
HETATM   33  C   UNL     1     -42.677  61.705 -59.079  1.00  0.00     0.009 A 
HETATM   34  C   UNL     1     -42.047  61.039 -60.134  1.00  0.00    -0.062 A 
HETATM   35  C   UNL     1     -41.447  61.816 -61.268  1.00  0.00     0.048 C 
HETATM   36  C   UNL     1     -41.947  59.646 -60.087  1.00  0.00     0.009 A 
HETATM   37  C   UNL     1     -42.477  58.930 -59.007  1.00  0.00     0.031 A 
ENDBRANCH   1  31
TORSDOF 6
ENDMDL
MODEL 6
REMARK VINA RESULT:      -8.4      2.484      3.997
REMARK  6 active torsions:
REMARK  status: ('A' for Active; 'I' for Inactive)
REMARK    1  A    between atoms: C_5  and  N_6 
REMARK    2  A    between atoms: C_17  and  N_18 
REMARK    3  A    between atoms: C_17  and  C_29 
REMARK       I    between atoms: N_18  and  C_19 
REMARK    4  A    between atoms: C_19  and  C_20 
REMARK    5  A    between atoms: C_20  and  C_21 
REMARK    6  A    between atoms: C_21  and  C_22 
ROOT
HETATM    1  N   UNL     1     -42.958  59.137 -51.989  1.00  0.00    -0.248 N 
HETATM    2  C   UNL     1     -41.999  59.545 -52.946  1.00  0.00     0.335 A 
HETATM    3  O   UNL     1     -41.712  60.703 -53.246  1.00  0.00    -0.246 OA
HETATM    4  N   UNL     1     -41.299  58.530 -53.569  1.00  0.00    -0.274 N 
HETATM    5  C   UNL     1     -41.379  57.193 -53.309  1.00  0.00     0.262 A 
HETATM    6  O   UNL     1     -40.664  56.352 -53.834  1.00  0.00    -0.267 OA
HETATM    7  C   UNL     1     -42.402  56.835 -52.353  1.00  0.00     0.101 A 
HETATM    8  C   UNL     1     -43.120  57.785 -51.752  1.00  0.00     0.134 A 
HETATM    9  N   UNL     1     -44.045  57.186 -50.955  1.00  0.00    -0.309 N 
HETATM   10  C   UNL     1     -43.911  55.802 -50.960  1.00  0.00     0.266 A 
HETATM   11  O   UNL     1     -44.559  55.037 -50.265  1.00  0.00    -0.270 OA
HETATM   12  C   UNL     1     -42.819  55.445 -51.980  1.00  0.00     0.249 A 
HETATM   13  H   UNL     1     -40.585  58.831 -54.217  1.00  0.00     0.173 HD
HETATM   14  H   UNL     1     -44.729  57.656 -50.379  1.00  0.00     0.170 HD
ENDROOT
BRANCH  12  15
HETATM   15  N   UNL     1     -41.715  54.647 -51.414  1.00  0.00    -0.332 N 
HETATM   16  C   UNL     1     -41.026  54.998 -50.280  1.00  0.00     0.219 C 
HETATM   17  O   UNL     1     -41.344  55.945 -49.570  1.00  0.00    -0.274 OA
HETATM   18  H   UNL     1     -41.300  53.949 -52.024  1.00  0.00     0.164 HD
BRANCH  16  19
HETATM   19  C   UNL     1     -39.805  54.148 -50.015  1.00  0.00     0.107 C 
BRANCH  19  20
HETATM   20  C   UNL     1     -40.225  52.718 -49.681  1.00  0.00     0.047 C 
BRANCH  20  21
HETATM   21  C   UNL     1     -39.997  51.760 -50.825  1.00  0.00    -0.058 A 
HETATM   22  C   UNL     1     -39.827  52.242 -52.130  1.00  0.00     0.007 A 
HETATM   23  C   UNL     1     -39.602  51.360 -53.188  1.00  0.00     0.001 A 
HETATM   24  C   UNL     1     -39.543  49.987 -52.952  1.00  0.00     0.000 A 
HETATM   25  C   UNL     1     -39.705  49.498 -51.658  1.00  0.00     0.001 A 
HETATM   26  C   UNL     1     -39.928  50.379 -50.599  1.00  0.00     0.007 A 
ENDBRANCH  20  21
ENDBRANCH  19  20
ENDBRANCH  16  19
ENDBRANCH  12  15
BRANCH  12  27
HETATM   27  C   UNL     1     -43.563  54.744 -53.126  1.00  0.00     0.426 C 
HETATM   28  F   UNL     1     -44.293  55.601 -53.877  1.00  0.00    -0.167 F 
HETATM   29  F   UNL     1     -42.692  54.129 -53.964  1.00  0.00    -0.167 F 
HETATM   30  F   UNL     1     -44.395  53.778 -52.678  1.00  0.00    -0.167 F 
ENDBRANCH  12  27
BRANCH   1  31
HETATM   31  C   UNL     1     -43.718  60.149 -51.304  1.00  0.00     0.045 A 
HETATM   32  C   UNL     1     -44.981  60.539 -51.771  1.00  0.00     0.031 A 
HETATM   33  C   UNL     1     -45.743  61.492 -51.086  1.00  0.00     0.009 A 
HETATM   34  C   UNL     1     -45.250  62.094 -49.925  1.00  0.00    -0.062 A 
HETATM   35  C   UNL     1     -46.086  63.086 -49.174  1.00  0.00     0.048 C 
HETATM   36  C   UNL     1     -43.987  61.720 -49.457  1.00  0.00     0.009 A 
HETATM   37  C   UNL     1     -43.227  60.765 -50.143  1.00  0.00     0.031 A 
ENDBRANCH   1  31
TORSDOF 6
ENDMDL
MODEL 7
REMARK VINA RESULT:      -7.9      2.890      3.824
REMARK  6 active torsions:
REMARK  status: ('A' for Active; 'I' for Inactive)
REMARK    1  A    between atoms: C_5  and  N_6 
REMARK    2  A    between atoms: C_17  and  N_18 
REMARK    3  A    between atoms: C_17  and  C_29 
REMARK       I    between atoms: N_18  and  C_19 
REMARK    4  A    between atoms: C_19  and  C_20 
REMARK    5  A    between atoms: C_20  and  C_21 
REMARK    6  A    between atoms: C_21  and  C_22 
ROOT
HETATM    1  N   UNL     1     -42.343  60.022 -51.593  1.00  0.00    -0.248 N 
HETATM    2  C   UNL     1     -41.005  59.690 -51.275  1.00  0.00     0.335 A 
HETATM    3  O   UNL     1     -40.369  60.075 -50.295  1.00  0.00    -0.246 OA
HETATM    4  N   UNL     1     -40.378  58.818 -52.143  1.00  0.00    -0.274 N 
HETATM    5  C   UNL     1     -40.929  58.189 -53.221  1.00  0.00     0.262 A 
HETATM    6  O   UNL     1     -40.344  57.356 -53.898  1.00  0.00    -0.267 OA
HETATM    7  C   UNL     1     -42.283  58.598 -53.518  1.00  0.00     0.101 A 
HETATM    8  C   UNL     1     -42.913  59.462 -52.720  1.00  0.00     0.134 A 
HETATM    9  N   UNL     1     -44.138  59.724 -53.251  1.00  0.00    -0.309 N 
HETATM   10  C   UNL     1     -44.374  58.973 -54.396  1.00  0.00     0.266 A 
HETATM   11  O   UNL     1     -45.427  58.955 -55.013  1.00  0.00    -0.270 OA
HETATM   12  C   UNL     1     -43.089  58.193 -54.715  1.00  0.00     0.249 A 
HETATM   13  H   UNL     1     -39.439  58.550 -51.885  1.00  0.00     0.173 HD
HETATM   14  H   UNL     1     -44.834  60.345 -52.863  1.00  0.00     0.170 HD
ENDROOT
BRANCH  12  15
HETATM   15  N   UNL     1     -43.286  56.734 -54.808  1.00  0.00    -0.332 N 
HETATM   16  C   UNL     1     -43.671  55.950 -53.749  1.00  0.00     0.219 C 
HETATM   17  O   UNL     1     -43.998  56.408 -52.661  1.00  0.00    -0.274 OA
HETATM   18  H   UNL     1     -42.887  56.273 -55.619  1.00  0.00     0.164 HD
BRANCH  16  19
HETATM   19  C   UNL     1     -43.598  54.466 -54.025  1.00  0.00     0.107 C 
BRANCH  19  20
HETATM   20  C   UNL     1     -42.278  54.127 -54.715  1.00  0.00     0.047 C 
BRANCH  20  21
HETATM   21  C   UNL     1     -41.339  53.347 -53.827  1.00  0.00    -0.058 A 
HETATM   22  C   UNL     1     -41.139  53.732 -52.494  1.00  0.00     0.007 A 
HETATM   23  C   UNL     1     -40.282  53.004 -51.667  1.00  0.00     0.001 A 
HETATM   24  C   UNL     1     -39.616  51.885 -52.163  1.00  0.00     0.000 A 
HETATM   25  C   UNL     1     -39.810  51.491 -53.484  1.00  0.00     0.001 A 
HETATM   26  C   UNL     1     -40.668  52.215 -54.313  1.00  0.00     0.007 A 
ENDBRANCH  20  21
ENDBRANCH  19  20
ENDBRANCH  16  19
ENDBRANCH  12  15
BRANCH  12  27
HETATM   27  C   UNL     1     -42.553  58.827 -56.006  1.00  0.00     0.426 C 
HETATM   28  F   UNL     1     -41.838  57.958 -56.758  1.00  0.00    -0.167 F 
HETATM   29  F   UNL     1     -43.570  59.276 -56.783  1.00  0.00    -0.167 F 
HETATM   30  F   UNL     1     -41.769  59.901 -55.760  1.00  0.00    -0.167 F 
ENDBRANCH  12  27
BRANCH   1  31
HETATM   31  C   UNL     1     -43.051  60.926 -50.724  1.00  0.00     0.045 A 
HETATM   32  C   UNL     1     -43.978  60.445 -49.788  1.00  0.00     0.031 A 
HETATM   33  C   UNL     1     -44.638  61.313 -48.912  1.00  0.00     0.009 A 
HETATM   34  C   UNL     1     -44.402  62.689 -48.965  1.00  0.00    -0.062 A 
HETATM   35  C   UNL     1     -45.084  63.611 -47.999  1.00  0.00     0.048 C 
HETATM   36  C   UNL     1     -43.488  63.180 -49.901  1.00  0.00     0.009 A 
HETATM   37  C   UNL     1     -42.828  62.309 -50.776  1.00  0.00     0.031 A 
ENDBRANCH   1  31
TORSDOF 6
ENDMDL
MODEL 8
REMARK VINA RESULT:      -7.7      2.181      3.295
REMARK  6 active torsions:
REMARK  status: ('A' for Active; 'I' for Inactive)
REMARK    1  A    between atoms: C_5  and  N_6 
REMARK    2  A    between atoms: C_17  and  N_18 
REMARK    3  A    between atoms: C_17  and  C_29 
REMARK       I    between atoms: N_18  and  C_19 
REMARK    4  A    between atoms: C_19  and  C_20 
REMARK    5  A    between atoms: C_20  and  C_21 
REMARK    6  A    between atoms: C_21  and  C_22 
ROOT
HETATM    1  N   UNL     1     -43.631  60.396 -51.565  1.00  0.00    -0.248 N 
HETATM    2  C   UNL     1     -42.420  60.770 -50.936  1.00  0.00     0.335 A 
HETATM    3  O   UNL     1     -42.242  61.752 -50.217  1.00  0.00    -0.246 OA
HETATM    4  N   UNL     1     -41.351  59.917 -51.131  1.00  0.00    -0.274 N 
HETATM    5  C   UNL     1     -41.358  58.725 -51.795  1.00  0.00     0.262 A 
HETATM    6  O   UNL     1     -40.397  57.972 -51.854  1.00  0.00    -0.267 OA
HETATM    7  C   UNL     1     -42.610  58.417 -52.448  1.00  0.00     0.101 A 
HETATM    8  C   UNL     1     -43.657  59.232 -52.308  1.00  0.00     0.134 A 
HETATM    9  N   UNL     1     -44.680  58.750 -53.065  1.00  0.00    -0.309 N 
HETATM   10  C   UNL     1     -44.346  57.549 -53.679  1.00  0.00     0.266 A 
HETATM   11  O   UNL     1     -45.113  56.867 -54.339  1.00  0.00    -0.270 OA
HETATM   12  C   UNL     1     -42.870  57.260 -53.364  1.00  0.00     0.249 A 
HETATM   13  H   UNL     1     -40.503  60.167 -50.642  1.00  0.00     0.173 HD
HETATM   14  H   UNL     1     -45.598  59.162 -53.156  1.00  0.00     0.170 HD
ENDROOT
BRANCH  12  15
HETATM   15  N   UNL     1     -42.644  55.953 -52.718  1.00  0.00    -0.332 N 
HETATM   16  C   UNL     1     -43.236  55.576 -51.538  1.00  0.00     0.219 C 
HETATM   17  O   UNL     1     -44.095  56.245 -50.976  1.00  0.00    -0.274 OA
HETATM   18  H   UNL     1     -41.839  55.423 -53.035  1.00  0.00     0.164 HD
BRANCH  16  19
HETATM   19  C   UNL     1     -42.691  54.290 -50.961  1.00  0.00     0.107 C 
BRANCH  19  20
HETATM   20  C   UNL     1     -41.165  54.290 -51.034  1.00  0.00     0.047 C 
BRANCH  20  21
HETATM   21  C   UNL     1     -40.622  53.182 -51.904  1.00  0.00    -0.058 A 
HETATM   22  C   UNL     1     -40.726  53.262 -53.300  1.00  0.00     0.007 A 
HETATM   23  C   UNL     1     -40.212  52.246 -54.107  1.00  0.00     0.001 A 
HETATM   24  C   UNL     1     -39.590  51.141 -53.529  1.00  0.00     0.000 A 
HETATM   25  C   UNL     1     -39.478  51.054 -52.143  1.00  0.00     0.001 A 
HETATM   26  C   UNL     1     -39.989  52.070 -51.334  1.00  0.00     0.007 A 
ENDBRANCH  20  21
ENDBRANCH  19  20
ENDBRANCH  16  19
ENDBRANCH  12  15
BRANCH  12  27
HETATM   27  C   UNL     1     -42.142  57.418 -54.706  1.00  0.00     0.426 C 
HETATM   28  F   UNL     1     -40.939  56.800 -54.726  1.00  0.00    -0.167 F 
HETATM   29  F   UNL     1     -42.874  56.890 -55.719  1.00  0.00    -0.167 F 
HETATM   30  F   UNL     1     -41.943  58.717 -55.029  1.00  0.00    -0.167 F 
ENDBRANCH  12  27
BRANCH   1  31
HETATM   31  C   UNL     1     -44.782  61.244 -51.396  1.00  0.00     0.045 A 
HETATM   32  C   UNL     1     -45.519  61.227 -50.204  1.00  0.00     0.031 A 
HETATM   33  C   UNL     1     -46.613  62.078 -50.018  1.00  0.00     0.009 A 
HETATM   34  C   UNL     1     -47.010  62.955 -51.031  1.00  0.00    -0.062 A 
HETATM   35  C   UNL     1     -48.161  63.892 -50.813  1.00  0.00     0.048 C 
HETATM   36  C   UNL     1     -46.289  62.972 -52.228  1.00  0.00     0.009 A 
HETATM   37  C   UNL     1     -45.193  62.120 -52.411  1.00  0.00     0.031 A 
ENDBRANCH   1  31
TORSDOF 6
ENDMDL
MODEL 9
REMARK VINA RESULT:      -7.6      6.576      9.695
REMARK  6 active torsions:
REMARK  status: ('A' for Active; 'I' for Inactive)
REMARK    1  A    between atoms: C_5  and  N_6 
REMARK    2  A    between atoms: C_17  and  N_18 
REMARK    3  A    between atoms: C_17  and  C_29 
REMARK       I    between atoms: N_18  and  C_19 
REMARK    4  A    between atoms: C_19  and  C_20 
REMARK    5  A    between atoms: C_20  and  C_21 
REMARK    6  A    between atoms: C_21  and  C_22 
ROOT
HETATM    1  N   UNL     1     -43.278  56.114 -55.775  1.00  0.00    -0.248 N 
HETATM    2  C   UNL     1     -44.232  56.724 -54.926  1.00  0.00     0.335 A 
HETATM    3  O   UNL     1     -44.378  56.515 -53.722  1.00  0.00    -0.246 OA
HETATM    4  N   UNL     1     -45.047  57.669 -55.516  1.00  0.00    -0.274 N 
HETATM    5  C   UNL     1     -44.982  58.129 -56.799  1.00  0.00     0.262 A 
HETATM    6  O   UNL     1     -45.676  59.036 -57.235  1.00  0.00    -0.267 OA
HETATM    7  C   UNL     1     -44.016  57.442 -57.627  1.00  0.00     0.101 A 
HETATM    8  C   UNL     1     -43.231  56.501 -57.101  1.00  0.00     0.134 A 
HETATM    9  N   UNL     1     -42.465  55.976 -58.094  1.00  0.00    -0.309 N 
HETATM   10  C   UNL     1     -42.685  56.616 -59.308  1.00  0.00     0.266 A 
HETATM   11  O   UNL     1     -42.064  56.395 -60.335  1.00  0.00    -0.270 OA
HETATM   12  C   UNL     1     -43.823  57.627 -59.101  1.00  0.00     0.249 A 
HETATM   13  H   UNL     1     -45.694  58.131 -54.894  1.00  0.00     0.173 HD
HETATM   14  H   UNL     1     -41.778  55.243 -57.991  1.00  0.00     0.170 HD
ENDROOT
BRANCH  12  15
HETATM   15  N   UNL     1     -43.464  59.011 -59.465  1.00  0.00    -0.332 N 
HETATM   16  C   UNL     1     -42.487  59.735 -58.827  1.00  0.00     0.219 C 
HETATM   17  O   UNL     1     -41.746  59.257 -57.977  1.00  0.00    -0.274 OA
HETATM   18  H   UNL     1     -44.129  59.517 -60.040  1.00  0.00     0.164 HD
BRANCH  16  19
HETATM   19  C   UNL     1     -42.444  61.192 -59.225  1.00  0.00     0.107 C 
BRANCH  19  20
HETATM   20  C   UNL     1     -41.209  61.464 -60.082  1.00  0.00     0.047 C 
BRANCH  20  21
HETATM   21  C   UNL     1     -41.556  61.919 -61.479  1.00  0.00    -0.058 A 
HETATM   22  C   UNL     1     -40.618  62.622 -62.248  1.00  0.00     0.007 A 
HETATM   23  C   UNL     1     -40.930  63.033 -63.545  1.00  0.00     0.001 A 
HETATM   24  C   UNL     1     -42.182  62.745 -64.087  1.00  0.00     0.000 A 
HETATM   25  C   UNL     1     -43.120  62.043 -63.333  1.00  0.00     0.001 A 
HETATM   26  C   UNL     1     -42.809  61.630 -62.036  1.00  0.00     0.007 A 
ENDBRANCH  20  21
ENDBRANCH  19  20
ENDBRANCH  16  19
ENDBRANCH  12  15
BRANCH  12  27
HETATM   27  C   UNL     1     -45.002  57.064 -59.908  1.00  0.00     0.426 C 
HETATM   28  F   UNL     1     -45.928  58.004 -60.208  1.00  0.00    -0.167 F 
HETATM   29  F   UNL     1     -44.577  56.540 -61.084  1.00  0.00    -0.167 F 
HETATM   30  F   UNL     1     -45.631  56.059 -59.257  1.00  0.00    -0.167 F 
ENDBRANCH  12  27
BRANCH   1  31
HETATM   31  C   UNL     1     -42.396  55.122 -55.217  1.00  0.00     0.045 A 
HETATM   32  C   UNL     1     -41.105  55.465 -54.792  1.00  0.00     0.031 A 
HETATM   33  C   UNL     1     -40.260  54.514 -54.211  1.00  0.00     0.009 A 
HETATM   34  C   UNL     1     -40.678  53.190 -54.059  1.00  0.00    -0.062 A 
HETATM   35  C   UNL     1     -39.782  52.184 -53.401  1.00  0.00     0.048 C 
HETATM   36  C   UNL     1     -41.960  52.835 -54.489  1.00  0.00     0.009 A 
HETATM   37  C   UNL     1     -42.805  53.788 -55.070  1.00  0.00     0.031 A 
ENDBRANCH   1  31
TORSDOF 6
ENDMDL
MODEL 10
REMARK VINA RESULT:      -7.6      3.990      7.498
REMARK  6 active torsions:
REMARK  status: ('A' for Active; 'I' for Inactive)
REMARK    1  A    between atoms: C_5  and  N_6 
REMARK    2  A    between atoms: C_17  and  N_18 
REMARK    3  A    between atoms: C_17  and  C_29 
REMARK       I    between atoms: N_18  and  C_19 
REMARK    4  A    between atoms: C_19  and  C_20 
REMARK    5  A    between atoms: C_20  and  C_21 
REMARK    6  A    between atoms: C_21  and  C_22 
ROOT
HETATM    1  N   UNL     1     -43.724  58.192 -57.202  1.00  0.00    -0.248 N 
HETATM    2  C   UNL     1     -43.060  59.418 -57.449  1.00  0.00     0.335 A 
HETATM    3  O   UNL     1     -43.204  60.141 -58.433  1.00  0.00    -0.246 OA
HETATM    4  N   UNL     1     -42.196  59.845 -56.461  1.00  0.00    -0.274 N 
HETATM    5  C   UNL     1     -41.973  59.257 -55.250  1.00  0.00     0.262 A 
HETATM    6  O   UNL     1     -41.261  59.737 -54.379  1.00  0.00    -0.267 OA
HETATM    7  C   UNL     1     -42.647  57.991 -55.072  1.00  0.00     0.101 A 
HETATM    8  C   UNL     1     -43.467  57.530 -56.017  1.00  0.00     0.134 A 
HETATM    9  N   UNL     1     -43.918  56.305 -55.634  1.00  0.00    -0.309 N 
HETATM   10  C   UNL     1     -43.451  55.955 -54.372  1.00  0.00     0.266 A 
HETATM   11  O   UNL     1     -43.777  54.949 -53.763  1.00  0.00    -0.270 OA
HETATM   12  C   UNL     1     -42.478  57.053 -53.915  1.00  0.00     0.249 A 
HETATM   13  H   UNL     1     -41.761  60.742 -56.624  1.00  0.00     0.173 HD
HETATM   14  H   UNL     1     -44.553  55.716 -56.153  1.00  0.00     0.170 HD
ENDROOT
BRANCH  12  15
HETATM   15  N   UNL     1     -42.838  57.665 -52.622  1.00  0.00    -0.332 N 
HETATM   16  C   UNL     1     -44.066  58.220 -52.359  1.00  0.00     0.219 C 
HETATM   17  O   UNL     1     -45.011  58.153 -53.135  1.00  0.00    -0.274 OA
HETATM   18  H   UNL     1     -42.070  57.896 -52.000  1.00  0.00     0.164 HD
BRANCH  16  19
HETATM   19  C   UNL     1     -44.131  58.975 -51.050  1.00  0.00     0.107 C 
BRANCH  19  20
HETATM   20  C   UNL     1     -42.990  59.988 -50.974  1.00  0.00     0.047 C 
BRANCH  20  21
HETATM   21  C   UNL     1     -43.376  61.248 -50.239  1.00  0.00    -0.058 A 
HETATM   22  C   UNL     1     -42.800  62.477 -50.588  1.00  0.00     0.007 A 
HETATM   23  C   UNL     1     -43.166  63.647 -49.919  1.00  0.00     0.001 A 
HETATM   24  C   UNL     1     -44.110  63.600 -48.895  1.00  0.00     0.000 A 
HETATM   25  C   UNL     1     -44.692  62.385 -48.543  1.00  0.00     0.001 A 
HETATM   26  C   UNL     1     -44.330  61.214 -49.212  1.00  0.00     0.007 A 
ENDBRANCH  20  21
ENDBRANCH  19  20
ENDBRANCH  16  19
ENDBRANCH  12  15
BRANCH  12  27
HETATM   27  C   UNL     1     -41.097  56.383 -53.918  1.00  0.00     0.426 C 
HETATM   28  F   UNL     1     -41.004  55.372 -53.024  1.00  0.00    -0.167 F 
HETATM   29  F   UNL     1     -40.817  55.858 -55.137  1.00  0.00    -0.167 F 
HETATM   30  F   UNL     1     -40.104  57.261 -53.653  1.00  0.00    -0.167 F 
ENDBRANCH  12  27
BRANCH   1  31
HETATM   31  C   UNL     1     -44.640  57.695 -58.195  1.00  0.00     0.045 A 
HETATM   32  C   UNL     1     -46.001  58.028 -58.148  1.00  0.00     0.031 A 
HETATM   33  C   UNL     1     -46.888  57.583 -59.133  1.00  0.00     0.009 A 
HETATM   34  C   UNL     1     -46.439  56.775 -60.180  1.00  0.00    -0.062 A 
HETATM   35  C   UNL     1     -47.387  56.331 -61.254  1.00  0.00     0.048 C 
HETATM   36  C   UNL     1     -45.086  56.427 -60.230  1.00  0.00     0.009 A 
HETATM   37  C   UNL     1     -44.199  56.875 -59.244  1.00  0.00     0.031 A 
ENDBRANCH   1  31
TORSDOF 6
ENDMDL
