MODEL 1
REMARK VINA RESULT:      -9.3      0.000      0.000
REMARK  5 active torsions:
REMARK  status: ('A' for Active; 'I' for Inactive)
REMARK    1  A    between atoms: C_4  and  C_5 
REMARK       I    between atoms: C_5  and  N_6 
REMARK    2  A    between atoms: C_9  and  C_10 
REMARK    3  A    between atoms: C_10  and  C_11 
REMARK    4  A    between atoms: N_20  and  C_21 
REMARK    5  A    between atoms: C_21  and  C_22 
ROOT
HETATM    1  C   UNL     1     -42.702  58.347 -52.628  1.00  0.00     0.148 A 
HETATM    2  N   UNL     1     -43.612  58.010 -51.538  1.00  0.00    -0.320 N 
HETATM    3  C   UNL     1     -43.915  56.673 -51.473  1.00  0.00     0.326 A 
HETATM    4  O   UNL     1     -44.587  56.174 -50.588  1.00  0.00    -0.247 OA
HETATM    5  N   UNL     1     -43.381  56.059 -52.554  1.00  0.00    -0.263 N 
HETATM    6  C   UNL     1     -42.682  56.951 -53.311  1.00  0.00     0.262 A 
HETATM    7  O   UNL     1     -42.127  56.680 -54.368  1.00  0.00    -0.270 OA
HETATM    8  H   UNL     1     -43.814  58.595 -50.737  1.00  0.00     0.166 HD
ENDROOT
BRANCH   1   9
HETATM    9  C   UNL     1     -43.328  59.493 -53.498  1.00  0.00     0.031 C 
HETATM   10  C   UNL     1     -42.453  60.049 -54.639  1.00  0.00     0.028 C 
HETATM   11  C   UNL     1     -42.515  59.275 -55.951  1.00  0.00     0.126 C 
HETATM   12  N   UNL     1     -43.874  58.922 -56.375  1.00  0.00    -0.350 N 
HETATM   13  C   UNL     1     -44.010  58.570 -57.719  1.00  0.00     0.251 C 
HETATM   14  C   UNL     1     -44.772  58.414 -55.339  1.00  0.00     0.126 C 
HETATM   15  O   UNL     1     -43.082  58.659 -58.531  1.00  0.00    -0.271 OA
HETATM   16  C   UNL     1     -44.740  59.226 -54.052  1.00  0.00     0.028 C 
BRANCH  13  17
HETATM   17  C   UNL     1     -45.384  58.090 -58.256  1.00  0.00     0.279 C 
HETATM   18  N   UNL     1     -46.079  59.235 -59.039  1.00  0.00    -0.062 N 
HETATM   19  C   UNL     1     -46.377  60.432 -58.165  1.00  0.00     0.270 C 
HETATM   20  H   UNL     1     -45.361  59.563 -59.707  1.00  0.00     0.280 HD
HETATM   21  C   UNL     1     -47.312  58.815 -59.789  1.00  0.00     0.235 C 
HETATM   22  C   UNL     1     -47.006  57.652 -60.712  1.00  0.00     0.028 C 
HETATM   23  C   UNL     1     -46.417  56.483 -59.941  1.00  0.00     0.004 C 
HETATM   24  C   UNL     1     -45.154  56.909 -59.208  1.00  0.00     0.043 C 
ENDBRANCH  13  17
ENDBRANCH   1   9
BRANCH   1  25
HETATM   25  C   UNL     1     -41.356  58.753 -52.029  1.00  0.00    -0.003 A 
HETATM   26  C   UNL     1     -40.173  58.780 -52.767  1.00  0.00     0.126 A 
HETATM   27  N   UNL     1     -38.972  59.157 -52.272  1.00  0.00    -0.272 NA
HETATM   28  C   UNL     1     -38.923  59.521 -50.975  1.00  0.00     0.116 A 
HETATM   29  C   UNL     1     -40.029  59.540 -50.149  1.00  0.00     0.020 A 
HETATM   30  C   UNL     1     -41.256  59.157 -50.685  1.00  0.00     0.013 A 
ENDBRANCH   1  25
BRANCH   5  31
HETATM   31  C   UNL     1     -43.497  54.645 -52.835  1.00  0.00     0.175 C 
BRANCH  31  32
HETATM   32  C   UNL     1     -42.214  53.908 -52.535  1.00  0.00    -0.040 A 
HETATM   33  C   UNL     1     -41.480  53.313 -53.572  1.00  0.00     0.012 A 
HETATM   34  C   UNL     1     -40.302  52.618 -53.293  1.00  0.00     0.043 A 
HETATM   35  C   UNL     1     -39.865  52.507 -51.979  1.00  0.00     0.116 A 
HETATM   36  F   UNL     1     -38.734  51.841 -51.713  1.00  0.00    -0.206 F 
HETATM   37  C   UNL     1     -40.585  53.075 -50.936  1.00  0.00     0.043 A 
HETATM   38  C   UNL     1     -41.762  53.774 -51.212  1.00  0.00     0.012 A 
ENDBRANCH  31  32
ENDBRANCH   5  31
TORSDOF 5
ENDMDL
MODEL 2
REMARK VINA RESULT:      -9.2      2.536      3.238
REMARK  5 active torsions:
REMARK  status: ('A' for Active; 'I' for Inactive)
REMARK    1  A    between atoms: C_4  and  C_5 
REMARK       I    between atoms: C_5  and  N_6 
REMARK    2  A    between atoms: C_9  and  C_10 
REMARK    3  A    between atoms: C_10  and  C_11 
REMARK    4  A    between atoms: N_20  and  C_21 
REMARK    5  A    between atoms: C_21  and  C_22 
ROOT
HETATM    1  C   UNL     1     -43.105  56.944 -54.749  1.00  0.00     0.148 A 
HETATM    2  N   UNL     1     -43.789  55.810 -55.364  1.00  0.00    -0.320 N 
HETATM    3  C   UNL     1     -42.989  54.705 -55.516  1.00  0.00     0.326 A 
HETATM    4  O   UNL     1     -43.389  53.632 -55.929  1.00  0.00    -0.247 OA
HETATM    5  N   UNL     1     -41.724  55.041 -55.171  1.00  0.00    -0.263 N 
HETATM    6  C   UNL     1     -41.675  56.334 -54.742  1.00  0.00     0.262 A 
HETATM    7  O   UNL     1     -40.651  56.916 -54.405  1.00  0.00    -0.270 OA
HETATM    8  H   UNL     1     -44.792  55.700 -55.445  1.00  0.00     0.166 HD
ENDROOT
BRANCH   1   9
HETATM    9  C   UNL     1     -43.272  58.212 -55.657  1.00  0.00     0.031 C 
HETATM   10  C   UNL     1     -42.372  58.290 -56.905  1.00  0.00     0.028 C 
HETATM   11  C   UNL     1     -42.898  57.568 -58.140  1.00  0.00     0.126 C 
HETATM   12  N   UNL     1     -44.315  57.821 -58.425  1.00  0.00    -0.350 N 
HETATM   13  C   UNL     1     -44.731  57.510 -59.720  1.00  0.00     0.251 C 
HETATM   14  C   UNL     1     -45.227  57.793 -57.282  1.00  0.00     0.126 C 
HETATM   15  O   UNL     1     -43.946  57.158 -60.609  1.00  0.00    -0.271 OA
HETATM   16  C   UNL     1     -44.714  58.560 -56.072  1.00  0.00     0.028 C 
BRANCH  13  17
HETATM   17  C   UNL     1     -46.227  57.650 -60.104  1.00  0.00     0.279 C 
HETATM   18  N   UNL     1     -46.427  58.883 -61.025  1.00  0.00    -0.062 N 
HETATM   19  C   UNL     1     -46.058  60.179 -60.340  1.00  0.00     0.270 C 
HETATM   20  H   UNL     1     -45.721  58.764 -61.772  1.00  0.00     0.280 HD
HETATM   21  C   UNL     1     -47.797  58.986 -61.636  1.00  0.00     0.235 C 
HETATM   22  C   UNL     1     -48.150  57.711 -62.376  1.00  0.00     0.028 C 
HETATM   23  C   UNL     1     -48.055  56.504 -61.458  1.00  0.00     0.004 C 
HETATM   24  C   UNL     1     -46.659  56.390 -60.866  1.00  0.00     0.043 C 
ENDBRANCH  13  17
ENDBRANCH   1   9
BRANCH   1  25
HETATM   25  C   UNL     1     -43.683  57.158 -53.352  1.00  0.00    -0.003 A 
HETATM   26  C   UNL     1     -44.506  58.237 -53.028  1.00  0.00     0.126 A 
HETATM   27  N   UNL     1     -45.053  58.441 -51.807  1.00  0.00    -0.272 NA
HETATM   28  C   UNL     1     -44.771  57.543 -50.843  1.00  0.00     0.116 A 
HETATM   29  C   UNL     1     -43.974  56.433 -51.049  1.00  0.00     0.020 A 
HETATM   30  C   UNL     1     -43.432  56.239 -52.317  1.00  0.00     0.013 A 
ENDBRANCH   1  25
BRANCH   5  31
HETATM   31  C   UNL     1     -40.596  54.137 -55.208  1.00  0.00     0.175 C 
BRANCH  31  32
HETATM   32  C   UNL     1     -40.443  53.380 -53.911  1.00  0.00    -0.040 A 
HETATM   33  C   UNL     1     -40.791  53.984 -52.692  1.00  0.00     0.012 A 
HETATM   34  C   UNL     1     -40.636  53.289 -51.492  1.00  0.00     0.043 A 
HETATM   35  C   UNL     1     -40.122  51.999 -51.506  1.00  0.00     0.116 A 
HETATM   36  F   UNL     1     -39.975  51.333 -50.354  1.00  0.00    -0.206 F 
HETATM   37  C   UNL     1     -39.757  51.388 -52.699  1.00  0.00     0.043 A 
HETATM   38  C   UNL     1     -39.915  52.079 -53.903  1.00  0.00     0.012 A 
ENDBRANCH  31  32
ENDBRANCH   5  31
TORSDOF 5
ENDMDL
MODEL 3
REMARK VINA RESULT:      -9.1      2.400      3.684
REMARK  5 active torsions:
REMARK  status: ('A' for Active; 'I' for Inactive)
REMARK    1  A    between atoms: C_4  and  C_5 
REMARK       I    between atoms: C_5  and  N_6 
REMARK    2  A    between atoms: C_9  and  C_10 
REMARK    3  A    between atoms: C_10  and  C_11 
REMARK    4  A    between atoms: N_20  and  C_21 
REMARK    5  A    between atoms: C_21  and  C_22 
ROOT
HETATM    1  C   UNL     1     -43.354  56.477 -53.014  1.00  0.00     0.148 A 
HETATM    2  N   UNL     1     -43.982  55.443 -52.198  1.00  0.00    -0.320 N 
HETATM    3  C   UNL     1     -43.081  54.634 -51.552  1.00  0.00     0.326 A 
HETATM    4  O   UNL     1     -43.397  53.767 -50.758  1.00  0.00    -0.247 OA
HETATM    5  N   UNL     1     -41.836  54.949 -51.982  1.00  0.00    -0.263 N 
HETATM    6  C   UNL     1     -41.887  55.989 -52.862  1.00  0.00     0.262 A 
HETATM    7  O   UNL     1     -40.914  56.457 -53.441  1.00  0.00    -0.270 OA
HETATM    8  H   UNL     1     -44.947  55.438 -51.892  1.00  0.00     0.166 HD
ENDROOT
BRANCH   1   9
HETATM    9  C   UNL     1     -43.921  56.408 -54.476  1.00  0.00     0.031 C 
HETATM   10  C   UNL     1     -45.090  57.355 -54.807  1.00  0.00     0.028 C 
HETATM   11  C   UNL     1     -44.694  58.766 -55.228  1.00  0.00     0.126 C 
HETATM   12  N   UNL     1     -43.606  58.815 -56.211  1.00  0.00    -0.350 N 
HETATM   13  C   UNL     1     -43.475  60.020 -56.900  1.00  0.00     0.251 C 
HETATM   14  C   UNL     1     -42.473  57.920 -55.978  1.00  0.00     0.126 C 
HETATM   15  O   UNL     1     -44.285  60.948 -56.786  1.00  0.00    -0.271 OA
HETATM   16  C   UNL     1     -42.881  56.501 -55.608  1.00  0.00     0.028 C 
BRANCH  13  17
HETATM   17  C   UNL     1     -42.302  60.217 -57.896  1.00  0.00     0.279 C 
HETATM   18  N   UNL     1     -42.839  60.251 -59.352  1.00  0.00    -0.062 N 
HETATM   19  C   UNL     1     -43.502  58.953 -59.751  1.00  0.00     0.270 C 
HETATM   20  H   UNL     1     -43.605  60.947 -59.327  1.00  0.00     0.280 HD
HETATM   21  C   UNL     1     -41.821  60.657 -60.380  1.00  0.00     0.235 C 
HETATM   22  C   UNL     1     -41.194  61.989 -60.016  1.00  0.00     0.028 C 
HETATM   23  C   UNL     1     -40.574  61.939 -58.630  1.00  0.00     0.004 C 
HETATM   24  C   UNL     1     -41.617  61.555 -57.591  1.00  0.00     0.043 C 
ENDBRANCH  13  17
ENDBRANCH   1   9
BRANCH   1  25
HETATM   25  C   UNL     1     -43.616  57.834 -52.362  1.00  0.00    -0.003 A 
HETATM   26  C   UNL     1     -42.755  58.922 -52.501  1.00  0.00     0.126 A 
HETATM   27  N   UNL     1     -42.971  60.142 -51.957  1.00  0.00    -0.272 NA
HETATM   28  C   UNL     1     -44.091  60.305 -51.225  1.00  0.00     0.116 A 
HETATM   29  C   UNL     1     -45.019  59.302 -51.025  1.00  0.00     0.020 A 
HETATM   30  C   UNL     1     -44.780  58.059 -51.604  1.00  0.00     0.013 A 
ENDBRANCH   1  25
BRANCH   5  31
HETATM   31  C   UNL     1     -40.624  54.304 -51.530  1.00  0.00     0.175 C 
BRANCH  31  32
HETATM   32  C   UNL     1     -40.339  53.041 -52.307  1.00  0.00    -0.040 A 
HETATM   33  C   UNL     1     -39.766  51.931 -51.668  1.00  0.00     0.012 A 
HETATM   34  C   UNL     1     -39.489  50.769 -52.389  1.00  0.00     0.043 A 
HETATM   35  C   UNL     1     -39.772  50.719 -53.748  1.00  0.00     0.116 A 
HETATM   36  F   UNL     1     -39.507  49.603 -54.438  1.00  0.00    -0.206 F 
HETATM   37  C   UNL     1     -40.325  51.812 -54.403  1.00  0.00     0.043 A 
HETATM   38  C   UNL     1     -40.607  52.975 -53.684  1.00  0.00     0.012 A 
ENDBRANCH  31  32
ENDBRANCH   5  31
TORSDOF 5
ENDMDL
MODEL 4
REMARK VINA RESULT:      -8.9      2.363      3.185
REMARK  5 active torsions:
REMARK  status: ('A' for Active; 'I' for Inactive)
REMARK    1  A    between atoms: C_4  and  C_5 
REMARK       I    between atoms: C_5  and  N_6 
REMARK    2  A    between atoms: C_9  and  C_10 
REMARK    3  A    between atoms: C_10  and  C_11 
REMARK    4  A    between atoms: N_20  and  C_21 
REMARK    5  A    between atoms: C_21  and  C_22 
ROOT
HETATM    1  C   UNL     1     -43.920  59.444 -51.909  1.00  0.00     0.148 A 
HETATM    2  N   UNL     1     -44.642  58.176 -51.876  1.00  0.00    -0.320 N 
HETATM    3  C   UNL     1     -43.847  57.103 -51.562  1.00  0.00     0.326 A 
HETATM    4  O   UNL     1     -44.270  55.972 -51.400  1.00  0.00    -0.247 OA
HETATM    5  N   UNL     1     -42.561  57.521 -51.512  1.00  0.00    -0.263 N 
HETATM    6  C   UNL     1     -42.489  58.864 -51.733  1.00  0.00     0.262 A 
HETATM    7  O   UNL     1     -41.446  59.504 -51.785  1.00  0.00    -0.270 OA
HETATM    8  H   UNL     1     -45.647  58.072 -51.818  1.00  0.00     0.166 HD
ENDROOT
BRANCH   1   9
HETATM    9  C   UNL     1     -44.174  60.157 -53.284  1.00  0.00     0.031 C 
HETATM   10  C   UNL     1     -42.926  60.529 -54.108  1.00  0.00     0.028 C 
HETATM   11  C   UNL     1     -42.373  59.421 -54.998  1.00  0.00     0.126 C 
HETATM   12  N   UNL     1     -43.394  58.707 -55.773  1.00  0.00    -0.350 N 
HETATM   13  C   UNL     1     -42.917  57.974 -56.859  1.00  0.00     0.251 C 
HETATM   14  C   UNL     1     -44.620  58.347 -55.063  1.00  0.00     0.126 C 
HETATM   15  O   UNL     1     -41.736  58.010 -57.225  1.00  0.00    -0.271 OA
HETATM   16  C   UNL     1     -45.192  59.477 -54.219  1.00  0.00     0.028 C 
BRANCH  13  17
HETATM   17  C   UNL     1     -43.895  57.106 -57.693  1.00  0.00     0.279 C 
HETATM   18  N   UNL     1     -44.319  57.866 -58.979  1.00  0.00    -0.062 N 
HETATM   19  C   UNL     1     -45.065  59.144 -58.672  1.00  0.00     0.270 C 
HETATM   20  H   UNL     1     -43.426  58.172 -59.402  1.00  0.00     0.280 HD
HETATM   21  C   UNL     1     -45.088  57.034 -59.966  1.00  0.00     0.235 C 
HETATM   22  C   UNL     1     -44.317  55.779 -60.324  1.00  0.00     0.028 C 
HETATM   23  C   UNL     1     -43.982  54.972 -59.082  1.00  0.00     0.004 C 
HETATM   24  C   UNL     1     -43.180  55.811 -58.099  1.00  0.00     0.043 C 
ENDBRANCH  13  17
ENDBRANCH   1   9
BRANCH   1  25
HETATM   25  C   UNL     1     -44.382  60.296 -50.729  1.00  0.00    -0.003 A 
HETATM   26  C   UNL     1     -45.443  59.934 -49.899  1.00  0.00     0.126 A 
HETATM   27  N   UNL     1     -45.860  60.654 -48.832  1.00  0.00    -0.272 NA
HETATM   28  C   UNL     1     -45.206  61.803 -48.566  1.00  0.00     0.116 A 
HETATM   29  C   UNL     1     -44.138  62.259 -49.313  1.00  0.00     0.020 A 
HETATM   30  C   UNL     1     -43.721  61.494 -50.399  1.00  0.00     0.013 A 
ENDBRANCH   1  25
BRANCH   5  31
HETATM   31  C   UNL     1     -41.432  56.668 -51.215  1.00  0.00     0.175 C 
BRANCH  31  32
HETATM   32  C   UNL     1     -41.125  55.728 -52.356  1.00  0.00    -0.040 A 
HETATM   33  C   UNL     1     -40.971  54.353 -52.118  1.00  0.00     0.012 A 
HETATM   34  C   UNL     1     -40.673  53.485 -53.170  1.00  0.00     0.043 A 
HETATM   35  C   UNL     1     -40.518  53.991 -54.454  1.00  0.00     0.116 A 
HETATM   36  F   UNL     1     -40.233  53.157 -55.463  1.00  0.00    -0.206 F 
HETATM   37  C   UNL     1     -40.651  55.350 -54.709  1.00  0.00     0.043 A 
HETATM   38  C   UNL     1     -40.953  56.220 -53.660  1.00  0.00     0.012 A 
ENDBRANCH  31  32
ENDBRANCH   5  31
TORSDOF 5
ENDMDL
MODEL 5
REMARK VINA RESULT:      -8.8      2.965      5.557
REMARK  5 active torsions:
REMARK  status: ('A' for Active; 'I' for Inactive)
REMARK    1  A    between atoms: C_4  and  C_5 
REMARK       I    between atoms: C_5  and  N_6 
REMARK    2  A    between atoms: C_9  and  C_10 
REMARK    3  A    between atoms: C_10  and  C_11 
REMARK    4  A    between atoms: N_20  and  C_21 
REMARK    5  A    between atoms: C_21  and  C_22 
ROOT
HETATM    1  C   UNL     1     -41.809  55.118 -53.362  1.00  0.00     0.148 A 
HETATM    2  N   UNL     1     -40.946  56.168 -53.894  1.00  0.00    -0.320 N 
HETATM    3  C   UNL     1     -40.703  57.182 -53.002  1.00  0.00     0.326 A 
HETATM    4  O   UNL     1     -39.943  58.108 -53.219  1.00  0.00    -0.247 OA
HETATM    5  N   UNL     1     -41.470  56.980 -51.904  1.00  0.00    -0.263 N 
HETATM    6  C   UNL     1     -42.179  55.822 -52.026  1.00  0.00     0.262 A 
HETATM    7  O   UNL     1     -42.984  55.410 -51.201  1.00  0.00    -0.270 OA
HETATM    8  H   UNL     1     -40.354  56.086 -54.711  1.00  0.00     0.166 HD
ENDROOT
BRANCH   1   9
HETATM    9  C   UNL     1     -43.016  54.886 -54.337  1.00  0.00     0.031 C 
HETATM   10  C   UNL     1     -44.259  55.770 -54.117  1.00  0.00     0.028 C 
HETATM   11  C   UNL     1     -44.221  57.137 -54.789  1.00  0.00     0.126 C 
HETATM   12  N   UNL     1     -43.765  57.107 -56.183  1.00  0.00    -0.350 N 
HETATM   13  C   UNL     1     -44.075  58.238 -56.939  1.00  0.00     0.251 C 
HETATM   14  C   UNL     1     -42.605  56.266 -56.474  1.00  0.00     0.126 C 
HETATM   15  O   UNL     1     -44.786  59.155 -56.512  1.00  0.00    -0.271 OA
HETATM   16  C   UNL     1     -42.679  54.884 -55.840  1.00  0.00     0.028 C 
BRANCH  13  17
HETATM   17  C   UNL     1     -43.562  58.355 -58.399  1.00  0.00     0.279 C 
HETATM   18  N   UNL     1     -44.733  58.728 -59.347  1.00  0.00    -0.062 N 
HETATM   19  C   UNL     1     -45.810  57.669 -59.375  1.00  0.00     0.270 C 
HETATM   20  H   UNL     1     -45.176  59.548 -58.898  1.00  0.00     0.280 HD
HETATM   21  C   UNL     1     -44.311  59.084 -60.745  1.00  0.00     0.235 C 
HETATM   22  C   UNL     1     -43.273  60.189 -60.725  1.00  0.00     0.028 C 
HETATM   23  C   UNL     1     -42.073  59.796 -59.881  1.00  0.00     0.004 C 
HETATM   24  C   UNL     1     -42.505  59.465 -58.460  1.00  0.00     0.043 C 
ENDBRANCH  13  17
ENDBRANCH   1   9
BRANCH   1  25
HETATM   25  C   UNL     1     -40.974  53.853 -53.174  1.00  0.00    -0.003 A 
HETATM   26  C   UNL     1     -40.488  53.441 -51.933  1.00  0.00     0.126 A 
HETATM   27  N   UNL     1     -39.767  52.314 -51.730  1.00  0.00    -0.272 NA
HETATM   28  C   UNL     1     -39.496  51.550 -52.807  1.00  0.00     0.116 A 
HETATM   29  C   UNL     1     -39.929  51.854 -54.082  1.00  0.00     0.020 A 
HETATM   30  C   UNL     1     -40.679  53.013 -54.263  1.00  0.00     0.013 A 
ENDBRANCH   1  25
BRANCH   5  31
HETATM   31  C   UNL     1     -41.492  57.847 -50.748  1.00  0.00     0.175 C 
BRANCH  31  32
HETATM   32  C   UNL     1     -42.361  59.061 -50.975  1.00  0.00    -0.040 A 
HETATM   33  C   UNL     1     -41.918  60.332 -50.579  1.00  0.00     0.012 A 
HETATM   34  C   UNL     1     -42.727  61.453 -50.775  1.00  0.00     0.043 A 
HETATM   35  C   UNL     1     -43.980  61.302 -51.355  1.00  0.00     0.116 A 
HETATM   36  F   UNL     1     -44.755  62.378 -51.543  1.00  0.00    -0.206 F 
HETATM   37  C   UNL     1     -44.444  60.050 -51.739  1.00  0.00     0.043 A 
HETATM   38  C   UNL     1     -43.636  58.928 -51.548  1.00  0.00     0.012 A 
ENDBRANCH  31  32
ENDBRANCH   5  31
TORSDOF 5
ENDMDL
MODEL 6
REMARK VINA RESULT:      -8.8      1.968      2.756
REMARK  5 active torsions:
REMARK  status: ('A' for Active; 'I' for Inactive)
REMARK    1  A    between atoms: C_4  and  C_5 
REMARK       I    between atoms: C_5  and  N_6 
REMARK    2  A    between atoms: C_9  and  C_10 
REMARK    3  A    between atoms: C_10  and  C_11 
REMARK    4  A    between atoms: N_20  and  C_21 
REMARK    5  A    between atoms: C_21  and  C_22 
ROOT
HETATM    1  C   UNL     1     -42.816  57.560 -52.306  1.00  0.00     0.148 A 
HETATM    2  N   UNL     1     -43.603  56.441 -52.816  1.00  0.00    -0.320 N 
HETATM    3  C   UNL     1     -43.276  55.237 -52.244  1.00  0.00     0.326 A 
HETATM    4  O   UNL     1     -43.870  54.198 -52.469  1.00  0.00    -0.247 OA
HETATM    5  N   UNL     1     -42.193  55.418 -51.454  1.00  0.00    -0.263 N 
HETATM    6  C   UNL     1     -41.823  56.730 -51.446  1.00  0.00     0.262 A 
HETATM    7  O   UNL     1     -40.851  57.174 -50.848  1.00  0.00    -0.270 OA
HETATM    8  H   UNL     1     -44.474  56.517 -53.327  1.00  0.00     0.166 HD
ENDROOT
BRANCH   1   9
HETATM    9  C   UNL     1     -42.161  58.330 -53.506  1.00  0.00     0.031 C 
HETATM   10  C   UNL     1     -41.445  57.471 -54.567  1.00  0.00     0.028 C 
HETATM   11  C   UNL     1     -42.338  56.903 -55.663  1.00  0.00     0.126 C 
HETATM   12  N   UNL     1     -43.278  57.873 -56.235  1.00  0.00    -0.350 N 
HETATM   13  C   UNL     1     -43.826  57.522 -57.468  1.00  0.00     0.251 C 
HETATM   14  C   UNL     1     -43.974  58.744 -55.289  1.00  0.00     0.126 C 
HETATM   15  O   UNL     1     -43.464  56.523 -58.102  1.00  0.00    -0.271 OA
HETATM   16  C   UNL     1     -43.063  59.347 -54.229  1.00  0.00     0.028 C 
BRANCH  13  17
HETATM   17  C   UNL     1     -44.902  58.429 -58.122  1.00  0.00     0.279 C 
HETATM   18  N   UNL     1     -44.327  59.104 -59.396  1.00  0.00    -0.062 N 
HETATM   19  C   UNL     1     -43.158  60.010 -59.089  1.00  0.00     0.270 C 
HETATM   20  H   UNL     1     -43.924  58.322 -59.941  1.00  0.00     0.280 HD
HETATM   21  C   UNL     1     -45.347  59.828 -60.229  1.00  0.00     0.235 C 
HETATM   22  C   UNL     1     -46.495  58.905 -60.590  1.00  0.00     0.028 C 
HETATM   23  C   UNL     1     -47.133  58.315 -59.345  1.00  0.00     0.004 C 
HETATM   24  C   UNL     1     -46.101  57.560 -58.522  1.00  0.00     0.043 C 
ENDBRANCH  13  17
ENDBRANCH   1   9
BRANCH   1  25
HETATM   25  C   UNL     1     -43.733  58.460 -51.480  1.00  0.00    -0.003 A 
HETATM   26  C   UNL     1     -45.048  58.120 -51.163  1.00  0.00     0.126 A 
HETATM   27  N   UNL     1     -45.876  58.884 -50.413  1.00  0.00    -0.272 NA
HETATM   28  C   UNL     1     -45.392  60.056 -49.955  1.00  0.00     0.116 A 
HETATM   29  C   UNL     1     -44.106  60.495 -50.200  1.00  0.00     0.020 A 
HETATM   30  C   UNL     1     -43.270  59.685 -50.964  1.00  0.00     0.013 A 
ENDBRANCH   1  25
BRANCH   5  31
HETATM   31  C   UNL     1     -41.551  54.372 -50.689  1.00  0.00     0.175 C 
BRANCH  31  32
HETATM   32  C   UNL     1     -40.823  53.394 -51.579  1.00  0.00    -0.040 A 
HETATM   33  C   UNL     1     -40.811  53.576 -52.971  1.00  0.00     0.012 A 
HETATM   34  C   UNL     1     -40.149  52.663 -53.794  1.00  0.00     0.043 A 
HETATM   35  C   UNL     1     -39.512  51.565 -53.231  1.00  0.00     0.116 A 
HETATM   36  F   UNL     1     -38.878  50.691 -54.023  1.00  0.00    -0.206 F 
HETATM   37  C   UNL     1     -39.525  51.358 -51.858  1.00  0.00     0.043 A 
HETATM   38  C   UNL     1     -40.182  52.271 -51.030  1.00  0.00     0.012 A 
ENDBRANCH  31  32
ENDBRANCH   5  31
TORSDOF 5
ENDMDL
MODEL 7
REMARK VINA RESULT:      -8.7      1.363      1.980
REMARK  5 active torsions:
REMARK  status: ('A' for Active; 'I' for Inactive)
REMARK    1  A    between atoms: C_4  and  C_5 
REMARK       I    between atoms: C_5  and  N_6 
REMARK    2  A    between atoms: C_9  and  C_10 
REMARK    3  A    between atoms: C_10  and  C_11 
REMARK    4  A    between atoms: N_20  and  C_21 
REMARK    5  A    between atoms: C_21  and  C_22 
ROOT
HETATM    1  C   UNL     1     -42.715  57.316 -53.573  1.00  0.00     0.148 A 
HETATM    2  N   UNL     1     -43.490  56.387 -52.756  1.00  0.00    -0.320 N 
HETATM    3  C   UNL     1     -43.277  55.070 -53.075  1.00  0.00     0.326 A 
HETATM    4  O   UNL     1     -43.761  54.137 -52.459  1.00  0.00    -0.247 OA
HETATM    5  N   UNL     1     -42.496  55.016 -54.179  1.00  0.00    -0.263 N 
HETATM    6  C   UNL     1     -42.140  56.272 -54.571  1.00  0.00     0.262 A 
HETATM    7  O   UNL     1     -41.469  56.527 -55.564  1.00  0.00    -0.270 OA
HETATM    8  H   UNL     1     -43.938  56.609 -51.876  1.00  0.00     0.166 HD
ENDROOT
BRANCH   1   9
HETATM    9  C   UNL     1     -43.675  58.378 -54.215  1.00  0.00     0.031 C 
HETATM   10  C   UNL     1     -43.011  59.624 -54.833  1.00  0.00     0.028 C 
HETATM   11  C   UNL     1     -42.530  59.466 -56.271  1.00  0.00     0.126 C 
HETATM   12  N   UNL     1     -43.499  58.819 -57.161  1.00  0.00    -0.350 N 
HETATM   13  C   UNL     1     -43.273  59.000 -58.526  1.00  0.00     0.251 C 
HETATM   14  C   UNL     1     -44.192  57.645 -56.631  1.00  0.00     0.126 C 
HETATM   15  O   UNL     1     -42.391  59.747 -58.965  1.00  0.00    -0.271 OA
HETATM   16  C   UNL     1     -44.714  57.832 -55.214  1.00  0.00     0.028 C 
BRANCH  13  17
HETATM   17  C   UNL     1     -44.181  58.284 -59.560  1.00  0.00     0.279 C 
HETATM   18  N   UNL     1     -44.033  56.745 -59.424  1.00  0.00    -0.062 N 
HETATM   19  C   UNL     1     -42.627  56.275 -59.719  1.00  0.00     0.270 C 
HETATM   20  H   UNL     1     -44.171  56.561 -58.416  1.00  0.00     0.280 HD
HETATM   21  C   UNL     1     -45.028  55.952 -60.224  1.00  0.00     0.235 C 
HETATM   22  C   UNL     1     -46.444  56.378 -59.889  1.00  0.00     0.028 C 
HETATM   23  C   UNL     1     -46.633  57.869 -60.114  1.00  0.00     0.004 C 
HETATM   24  C   UNL     1     -45.641  58.665 -59.280  1.00  0.00     0.043 C 
ENDBRANCH  13  17
ENDBRANCH   1   9
BRANCH   1  25
HETATM   25  C   UNL     1     -41.651  57.966 -52.691  1.00  0.00    -0.003 A 
HETATM   26  C   UNL     1     -40.475  58.518 -53.199  1.00  0.00     0.126 A 
HETATM   27  N   UNL     1     -39.526  59.122 -52.447  1.00  0.00    -0.272 NA
HETATM   28  C   UNL     1     -39.735  59.181 -51.116  1.00  0.00     0.116 A 
HETATM   29  C   UNL     1     -40.863  58.674 -50.501  1.00  0.00     0.020 A 
HETATM   30  C   UNL     1     -41.830  58.068 -51.299  1.00  0.00     0.013 A 
ENDBRANCH   1  25
BRANCH   5  31
HETATM   31  C   UNL     1     -42.062  53.795 -54.820  1.00  0.00     0.175 C 
BRANCH  31  32
HETATM   32  C   UNL     1     -41.141  52.994 -53.932  1.00  0.00    -0.040 A 
HETATM   33  C   UNL     1     -40.784  51.682 -54.282  1.00  0.00     0.012 A 
HETATM   34  C   UNL     1     -39.944  50.936 -53.453  1.00  0.00     0.043 A 
HETATM   35  C   UNL     1     -39.471  51.494 -52.272  1.00  0.00     0.116 A 
HETATM   36  F   UNL     1     -38.665  50.777 -51.479  1.00  0.00    -0.206 F 
HETATM   37  C   UNL     1     -39.825  52.784 -51.900  1.00  0.00     0.043 A 
HETATM   38  C   UNL     1     -40.661  53.536 -52.728  1.00  0.00     0.012 A 
ENDBRANCH  31  32
ENDBRANCH   5  31
TORSDOF 5
ENDMDL
MODEL 8
REMARK VINA RESULT:      -8.7      2.936      6.840
REMARK  5 active torsions:
REMARK  status: ('A' for Active; 'I' for Inactive)
REMARK    1  A    between atoms: C_4  and  C_5 
REMARK       I    between atoms: C_5  and  N_6 
REMARK    2  A    between atoms: C_9  and  C_10 
REMARK    3  A    between atoms: C_10  and  C_11 
REMARK    4  A    between atoms: N_20  and  C_21 
REMARK    5  A    between atoms: C_21  and  C_22 
ROOT
HETATM    1  C   UNL     1     -43.068  60.279 -52.652  1.00  0.00     0.148 A 
HETATM    2  N   UNL     1     -41.923  60.165 -53.550  1.00  0.00    -0.320 N 
HETATM    3  C   UNL     1     -42.275  60.057 -54.872  1.00  0.00     0.326 A 
HETATM    4  O   UNL     1     -41.470  60.036 -55.787  1.00  0.00    -0.247 OA
HETATM    5  N   UNL     1     -43.621  59.943 -54.951  1.00  0.00    -0.263 N 
HETATM    6  C   UNL     1     -44.179  60.027 -53.710  1.00  0.00     0.262 A 
HETATM    7  O   UNL     1     -45.376  59.916 -53.477  1.00  0.00    -0.270 OA
HETATM    8  H   UNL     1     -40.966  60.398 -53.318  1.00  0.00     0.166 HD
ENDROOT
BRANCH   1   9
HETATM    9  C   UNL     1     -42.968  59.185 -51.532  1.00  0.00     0.031 C 
HETATM   10  C   UNL     1     -44.122  58.167 -51.459  1.00  0.00     0.028 C 
HETATM   11  C   UNL     1     -43.996  56.963 -52.385  1.00  0.00     0.126 C 
HETATM   12  N   UNL     1     -42.667  56.341 -52.383  1.00  0.00    -0.350 N 
HETATM   13  C   UNL     1     -42.612  55.045 -52.895  1.00  0.00     0.251 C 
HETATM   14  C   UNL     1     -41.521  57.247 -52.422  1.00  0.00     0.126 C 
HETATM   15  O   UNL     1     -43.621  54.410 -53.222  1.00  0.00    -0.271 OA
HETATM   16  C   UNL     1     -41.634  58.418 -51.455  1.00  0.00     0.028 C 
BRANCH  13  17
HETATM   17  C   UNL     1     -41.244  54.325 -53.028  1.00  0.00     0.279 C 
HETATM   18  N   UNL     1     -41.061  53.310 -51.867  1.00  0.00    -0.062 N 
HETATM   19  C   UNL     1     -41.042  53.981 -50.514  1.00  0.00     0.270 C 
HETATM   20  H   UNL     1     -41.931  52.750 -51.877  1.00  0.00     0.280 HD
HETATM   21  C   UNL     1     -39.874  52.401 -52.019  1.00  0.00     0.235 C 
HETATM   22  C   UNL     1     -39.919  51.679 -53.351  1.00  0.00     0.028 C 
HETATM   23  C   UNL     1     -39.996  52.666 -54.504  1.00  0.00     0.004 C 
HETATM   24  C   UNL     1     -41.215  53.563 -54.359  1.00  0.00     0.043 C 
ENDBRANCH  13  17
ENDBRANCH   1   9
BRANCH   1  25
HETATM   25  C   UNL     1     -43.089  61.692 -52.072  1.00  0.00    -0.003 A 
HETATM   26  C   UNL     1     -43.268  62.833 -52.855  1.00  0.00     0.126 A 
HETATM   27  N   UNL     1     -43.316  64.094 -52.368  1.00  0.00    -0.272 NA
HETATM   28  C   UNL     1     -43.170  64.251 -51.037  1.00  0.00     0.116 A 
HETATM   29  C   UNL     1     -42.993  63.197 -50.163  1.00  0.00     0.020 A 
HETATM   30  C   UNL     1     -42.959  61.907 -50.687  1.00  0.00     0.013 A 
ENDBRANCH   1  25
BRANCH   5  31
HETATM   31  C   UNL     1     -44.362  59.803 -56.184  1.00  0.00     0.175 C 
BRANCH  31  32
HETATM   32  C   UNL     1     -43.860  58.645 -57.011  1.00  0.00    -0.040 A 
HETATM   33  C   UNL     1     -43.533  58.829 -58.364  1.00  0.00     0.012 A 
HETATM   34  C   UNL     1     -43.082  57.755 -59.133  1.00  0.00     0.043 A 
HETATM   35  C   UNL     1     -42.969  56.497 -58.556  1.00  0.00     0.116 A 
HETATM   36  F   UNL     1     -42.535  55.467 -59.294  1.00  0.00    -0.206 F 
HETATM   37  C   UNL     1     -43.302  56.289 -57.223  1.00  0.00     0.043 A 
HETATM   38  C   UNL     1     -43.749  57.362 -56.449  1.00  0.00     0.012 A 
ENDBRANCH  31  32
ENDBRANCH   5  31
TORSDOF 5
ENDMDL
MODEL 9
REMARK VINA RESULT:      -8.5      2.205      2.929
REMARK  5 active torsions:
REMARK  status: ('A' for Active; 'I' for Inactive)
REMARK    1  A    between atoms: C_4  and  C_5 
REMARK       I    between atoms: C_5  and  N_6 
REMARK    2  A    between atoms: C_9  and  C_10 
REMARK    3  A    between atoms: C_10  and  C_11 
REMARK    4  A    between atoms: N_20  and  C_21 
REMARK    5  A    between atoms: C_21  and  C_22 
ROOT
HETATM    1  C   UNL     1     -43.443  58.155 -53.763  1.00  0.00     0.148 A 
HETATM    2  N   UNL     1     -44.097  56.921 -54.187  1.00  0.00    -0.320 N 
HETATM    3  C   UNL     1     -43.309  55.807 -54.043  1.00  0.00     0.326 A 
HETATM    4  O   UNL     1     -43.694  54.672 -54.259  1.00  0.00    -0.247 OA
HETATM    5  N   UNL     1     -42.069  56.203 -53.671  1.00  0.00    -0.263 N 
HETATM    6  C   UNL     1     -42.030  57.557 -53.513  1.00  0.00     0.262 A 
HETATM    7  O   UNL     1     -41.026  58.194 -53.220  1.00  0.00    -0.270 OA
HETATM    8  H   UNL     1     -45.092  56.799 -54.326  1.00  0.00     0.166 HD
ENDROOT
BRANCH   1   9
HETATM    9  C   UNL     1     -43.513  59.211 -54.922  1.00  0.00     0.031 C 
HETATM   10  C   UNL     1     -42.495  59.044 -56.068  1.00  0.00     0.028 C 
HETATM   11  C   UNL     1     -42.905  58.080 -57.174  1.00  0.00     0.126 C 
HETATM   12  N   UNL     1     -44.286  58.251 -57.640  1.00  0.00    -0.350 N 
HETATM   13  C   UNL     1     -44.576  57.678 -58.878  1.00  0.00     0.251 C 
HETATM   14  C   UNL     1     -45.304  58.444 -56.608  1.00  0.00     0.126 C 
HETATM   15  O   UNL     1     -43.712  57.162 -59.596  1.00  0.00    -0.271 OA
HETATM   16  C   UNL     1     -44.905  59.448 -55.536  1.00  0.00     0.028 C 
BRANCH  13  17
HETATM   17  C   UNL     1     -46.027  57.717 -59.425  1.00  0.00     0.279 C 
HETATM   18  N   UNL     1     -46.151  58.802 -60.528  1.00  0.00    -0.062 N 
HETATM   19  C   UNL     1     -45.874  60.191 -60.003  1.00  0.00     0.270 C 
HETATM   20  H   UNL     1     -45.371  58.599 -61.176  1.00  0.00     0.280 HD
HETATM   21  C   UNL     1     -47.453  58.776 -61.280  1.00  0.00     0.235 C 
HETATM   22  C   UNL     1     -47.708  57.399 -61.861  1.00  0.00     0.028 C 
HETATM   23  C   UNL     1     -47.690  56.338 -60.774  1.00  0.00     0.004 C 
HETATM   24  C   UNL     1     -46.360  56.350 -60.037  1.00  0.00     0.043 C 
ENDBRANCH  13  17
ENDBRANCH   1   9
BRANCH   1  25
HETATM   25  C   UNL     1     -44.128  58.654 -52.492  1.00  0.00    -0.003 A 
HETATM   26  C   UNL     1     -44.995  57.865 -51.736  1.00  0.00     0.126 A 
HETATM   27  N   UNL     1     -45.596  58.269 -50.594  1.00  0.00    -0.272 NA
HETATM   28  C   UNL     1     -45.344  59.524 -50.171  1.00  0.00     0.116 A 
HETATM   29  C   UNL     1     -44.499  60.393 -50.832  1.00  0.00     0.020 A 
HETATM   30  C   UNL     1     -43.882  59.949 -52.000  1.00  0.00     0.013 A 
ENDBRANCH   1  25
BRANCH   5  31
HETATM   31  C   UNL     1     -40.959  55.309 -53.429  1.00  0.00     0.175 C 
BRANCH  31  32
HETATM   32  C   UNL     1     -40.955  54.795 -52.009  1.00  0.00    -0.040 A 
HETATM   33  C   UNL     1     -41.296  55.646 -50.946  1.00  0.00     0.012 A 
HETATM   34  C   UNL     1     -41.277  55.174 -49.633  1.00  0.00     0.043 A 
HETATM   35  C   UNL     1     -40.907  53.859 -49.380  1.00  0.00     0.116 A 
HETATM   36  F   UNL     1     -40.891  53.408 -48.119  1.00  0.00    -0.206 F 
HETATM   37  C   UNL     1     -40.551  53.005 -50.416  1.00  0.00     0.043 A 
HETATM   38  C   UNL     1     -40.572  53.472 -51.732  1.00  0.00     0.012 A 
ENDBRANCH  31  32
ENDBRANCH   5  31
TORSDOF 5
ENDMDL
MODEL 10
REMARK VINA RESULT:      -8.4      3.209      5.654
REMARK  5 active torsions:
REMARK  status: ('A' for Active; 'I' for Inactive)
REMARK    1  A    between atoms: C_4  and  C_5 
REMARK       I    between atoms: C_5  and  N_6 
REMARK    2  A    between atoms: C_9  and  C_10 
REMARK    3  A    between atoms: C_10  and  C_11 
REMARK    4  A    between atoms: N_20  and  C_21 
REMARK    5  A    between atoms: C_21  and  C_22 
ROOT
HETATM    1  C   UNL     1     -41.910  56.135 -52.115  1.00  0.00     0.148 A 
HETATM    2  N   UNL     1     -40.887  57.133 -52.412  1.00  0.00    -0.320 N 
HETATM    3  C   UNL     1     -41.232  58.402 -52.021  1.00  0.00     0.326 A 
HETATM    4  O   UNL     1     -40.486  59.362 -52.101  1.00  0.00    -0.247 OA
HETATM    5  N   UNL     1     -42.515  58.385 -51.590  1.00  0.00    -0.263 N 
HETATM    6  C   UNL     1     -43.015  57.118 -51.636  1.00  0.00     0.262 A 
HETATM    7  O   UNL     1     -44.164  56.812 -51.342  1.00  0.00    -0.270 OA
HETATM    8  H   UNL     1     -39.918  56.937 -52.630  1.00  0.00     0.166 HD
ENDROOT
BRANCH   1   9
HETATM    9  C   UNL     1     -42.261  55.339 -53.421  1.00  0.00     0.031 C 
HETATM   10  C   UNL     1     -43.725  55.407 -53.897  1.00  0.00     0.028 C 
HETATM   11  C   UNL     1     -44.080  56.613 -54.760  1.00  0.00     0.126 C 
HETATM   12  N   UNL     1     -43.107  56.899 -55.820  1.00  0.00    -0.350 N 
HETATM   13  C   UNL     1     -43.567  57.721 -56.849  1.00  0.00     0.251 C 
HETATM   14  C   UNL     1     -41.695  56.825 -55.450  1.00  0.00     0.126 C 
HETATM   15  O   UNL     1     -44.744  58.094 -56.934  1.00  0.00    -0.271 OA
HETATM   16  C   UNL     1     -41.342  55.590 -54.632  1.00  0.00     0.028 C 
BRANCH  13  17
HETATM   17  C   UNL     1     -42.596  58.165 -57.974  1.00  0.00     0.279 C 
HETATM   18  N   UNL     1     -42.996  57.496 -59.317  1.00  0.00    -0.062 N 
HETATM   19  C   UNL     1     -42.896  55.989 -59.260  1.00  0.00     0.270 C 
HETATM   20  H   UNL     1     -44.006  57.694 -59.412  1.00  0.00     0.280 HD
HETATM   21  C   UNL     1     -42.261  58.025 -60.517  1.00  0.00     0.235 C 
HETATM   22  C   UNL     1     -42.408  59.531 -60.613  1.00  0.00     0.028 C 
HETATM   23  C   UNL     1     -41.925  60.207 -59.341  1.00  0.00     0.004 C 
HETATM   24  C   UNL     1     -42.692  59.688 -58.135  1.00  0.00     0.043 C 
ENDBRANCH  13  17
ENDBRANCH   1   9
BRANCH   1  25
HETATM   25  C   UNL     1     -41.387  55.219 -51.010  1.00  0.00    -0.003 A 
HETATM   26  C   UNL     1     -40.824  53.968 -51.262  1.00  0.00     0.126 A 
HETATM   27  N   UNL     1     -40.331  53.146 -50.308  1.00  0.00    -0.272 NA
HETATM   28  C   UNL     1     -40.401  53.567 -49.030  1.00  0.00     0.116 A 
HETATM   29  C   UNL     1     -40.930  54.788 -48.660  1.00  0.00     0.020 A 
HETATM   30  C   UNL     1     -41.422  55.621 -49.662  1.00  0.00     0.013 A 
ENDBRANCH   1  25
BRANCH   5  31
HETATM   31  C   UNL     1     -43.234  59.541 -51.105  1.00  0.00     0.175 C 
BRANCH  31  32
HETATM   32  C   UNL     1     -44.172  60.097 -52.150  1.00  0.00    -0.040 A 
HETATM   33  C   UNL     1     -43.757  60.208 -53.486  1.00  0.00     0.012 A 
HETATM   34  C   UNL     1     -44.619  60.735 -54.449  1.00  0.00     0.043 A 
HETATM   35  C   UNL     1     -45.887  61.163 -54.076  1.00  0.00     0.116 A 
HETATM   36  F   UNL     1     -46.713  61.668 -55.002  1.00  0.00    -0.206 F 
HETATM   37  C   UNL     1     -46.311  61.077 -52.756  1.00  0.00     0.043 A 
HETATM   38  C   UNL     1     -45.453  60.546 -51.791  1.00  0.00     0.012 A 
ENDBRANCH  31  32
ENDBRANCH   5  31
TORSDOF 5
ENDMDL
