MODEL 1
REMARK VINA RESULT:      -8.4      0.000      0.000
REMARK  7 active torsions:
REMARK  status: ('A' for Active; 'I' for Inactive)
REMARK    1  A    between atoms: C_4  and  C_5 
REMARK    2  A    between atoms: C_5  and  N_6 
REMARK       I    between atoms: N_6  and  C_7 
REMARK    3  A    between atoms: N_6  and  C_22 
REMARK    4  A    between atoms: C_7  and  C_8 
REMARK    5  A    between atoms: C_13  and  C_14 
REMARK    6  A    between atoms: C_15  and  O_16 
REMARK    7  A    between atoms: C_22  and  C_23 
ROOT
HETATM    1  N   UNL     1     -42.828  57.653 -55.184  1.00  0.00    -0.343 N 
HETATM    2  C   UNL     1     -43.321  58.215 -54.013  1.00  0.00     0.235 C 
HETATM    3  O   UNL     1     -44.536  58.396 -53.848  1.00  0.00    -0.272 OA
ENDROOT
BRANCH   2   4
HETATM    4  C   UNL     1     -42.378  58.604 -52.900  1.00  0.00     0.195 C 
HETATM    5  C   UNL     1     -42.300  60.087 -52.691  1.00  0.00     0.247 C 
HETATM    6  O   UNL     1     -42.339  60.969 -53.532  1.00  0.00    -0.271 OA
HETATM    7  N   UNL     1     -42.153  60.294 -51.329  1.00  0.00    -0.290 N 
HETATM    8  N   UNL     1     -42.336  59.132 -50.573  1.00  0.00    -0.228 NA
HETATM    9  H   UNL     1     -42.108  61.233 -50.943  1.00  0.00     0.183 HD
HETATM   10  C   UNL     1     -42.937  58.170 -51.533  1.00  0.00     0.134 C 
HETATM   11  H   UNL     1     -43.007  59.299 -49.817  1.00  0.00     0.147 HD
BRANCH  10  12
HETATM   12  C   UNL     1     -42.636  56.717 -51.231  1.00  0.00    -0.004 A 
HETATM   13  C   UNL     1     -43.636  55.808 -50.851  1.00  0.00     0.073 A 
HETATM   14  C   UNL     1     -43.331  54.468 -50.603  1.00  0.00     0.037 A 
HETATM   15  C   UNL     1     -42.025  54.004 -50.742  1.00  0.00     0.003 A 
HETATM   16  C   UNL     1     -41.020  54.881 -51.131  1.00  0.00     0.001 A 
HETATM   17  C   UNL     1     -41.324  56.222 -51.377  1.00  0.00     0.012 A 
BRANCH  13  18
HETATM   18  O   UNL     1     -44.955  56.131 -50.688  1.00  0.00    -0.360 OA
HETATM   19  H   UNL     1     -45.435  55.513 -50.104  1.00  0.00     0.217 HD
ENDBRANCH  13  18
ENDBRANCH  10  12
ENDBRANCH   2   4
BRANCH   1  20
HETATM   20  C   UNL     1     -43.803  57.318 -56.228  1.00  0.00     0.164 C 
BRANCH  20  21
HETATM   21  C   UNL     1     -43.187  57.199 -57.601  1.00  0.00    -0.040 A 
HETATM   22  C   UNL     1     -43.256  55.991 -58.310  1.00  0.00     0.009 A 
HETATM   23  C   UNL     1     -42.740  55.897 -59.604  1.00  0.00     0.001 A 
HETATM   24  C   UNL     1     -42.152  57.009 -60.204  1.00  0.00     0.000 A 
HETATM   25  C   UNL     1     -42.082  58.217 -59.513  1.00  0.00     0.001 A 
HETATM   26  C   UNL     1     -42.605  58.314 -58.223  1.00  0.00     0.009 A 
ENDBRANCH  20  21
ENDBRANCH   1  20
BRANCH   1  27
HETATM   27  C   UNL     1     -41.529  56.976 -55.287  1.00  0.00     0.164 C 
BRANCH  27  28
HETATM   28  C   UNL     1     -41.486  55.509 -54.940  1.00  0.00    -0.040 A 
HETATM   29  C   UNL     1     -40.243  54.855 -54.865  1.00  0.00     0.009 A 
HETATM   30  C   UNL     1     -40.163  53.504 -54.524  1.00  0.00     0.001 A 
HETATM   31  C   UNL     1     -41.324  52.790 -54.241  1.00  0.00     0.000 A 
HETATM   32  C   UNL     1     -42.560  53.430 -54.287  1.00  0.00     0.001 A 
HETATM   33  C   UNL     1     -42.639  54.783 -54.624  1.00  0.00     0.009 A 
ENDBRANCH  27  28
ENDBRANCH   1  27
TORSDOF 7
ENDMDL
MODEL 2
REMARK VINA RESULT:      -8.1      2.253      5.841
REMARK  7 active torsions:
REMARK  status: ('A' for Active; 'I' for Inactive)
REMARK    1  A    between atoms: C_4  and  C_5 
REMARK    2  A    between atoms: C_5  and  N_6 
REMARK       I    between atoms: N_6  and  C_7 
REMARK    3  A    between atoms: N_6  and  C_22 
REMARK    4  A    between atoms: C_7  and  C_8 
REMARK    5  A    between atoms: C_13  and  C_14 
REMARK    6  A    between atoms: C_15  and  O_16 
REMARK    7  A    between atoms: C_22  and  C_23 
ROOT
HETATM    1  N   UNL     1     -41.771  54.254 -53.712  1.00  0.00    -0.343 N 
HETATM    2  C   UNL     1     -41.926  55.109 -52.627  1.00  0.00     0.235 C 
HETATM    3  O   UNL     1     -40.953  55.475 -51.952  1.00  0.00    -0.272 OA
ENDROOT
BRANCH   2   4
HETATM    4  C   UNL     1     -43.293  55.627 -52.257  1.00  0.00     0.195 C 
HETATM    5  C   UNL     1     -43.975  54.789 -51.217  1.00  0.00     0.247 C 
HETATM    6  O   UNL     1     -43.939  53.577 -51.084  1.00  0.00    -0.271 OA
HETATM    7  N   UNL     1     -44.697  55.654 -50.411  1.00  0.00    -0.290 N 
HETATM    8  N   UNL     1     -44.412  57.001 -50.657  1.00  0.00    -0.228 NA
HETATM    9  H   UNL     1     -45.222  55.312 -49.611  1.00  0.00     0.183 HD
HETATM   10  C   UNL     1     -43.185  56.961 -51.495  1.00  0.00     0.134 C 
HETATM   11  H   UNL     1     -44.191  57.485 -49.781  1.00  0.00     0.147 HD
BRANCH  10  12
HETATM   12  C   UNL     1     -43.033  58.140 -52.433  1.00  0.00    -0.004 A 
HETATM   13  C   UNL     1     -41.800  58.779 -52.639  1.00  0.00     0.073 A 
HETATM   14  C   UNL     1     -41.686  59.848 -53.530  1.00  0.00     0.037 A 
HETATM   15  C   UNL     1     -42.795  60.294 -54.244  1.00  0.00     0.003 A 
HETATM   16  C   UNL     1     -44.024  59.668 -54.068  1.00  0.00     0.001 A 
HETATM   17  C   UNL     1     -44.139  58.600 -53.176  1.00  0.00     0.012 A 
BRANCH  13  18
HETATM   18  O   UNL     1     -40.634  58.434 -52.011  1.00  0.00    -0.360 OA
HETATM   19  H   UNL     1     -40.392  59.043 -51.287  1.00  0.00     0.217 HD
ENDBRANCH  13  18
ENDBRANCH  10  12
ENDBRANCH   2   4
BRANCH   1  20
HETATM   20  C   UNL     1     -40.413  53.777 -53.999  1.00  0.00     0.164 C 
BRANCH  20  21
HETATM   21  C   UNL     1     -40.179  52.352 -53.559  1.00  0.00    -0.040 A 
HETATM   22  C   UNL     1     -40.290  51.296 -54.475  1.00  0.00     0.009 A 
HETATM   23  C   UNL     1     -40.014  49.985 -54.083  1.00  0.00     0.001 A 
HETATM   24  C   UNL     1     -39.621  49.715 -52.773  1.00  0.00     0.000 A 
HETATM   25  C   UNL     1     -39.501  50.755 -51.855  1.00  0.00     0.001 A 
HETATM   26  C   UNL     1     -39.768  52.067 -52.247  1.00  0.00     0.009 A 
ENDBRANCH  20  21
ENDBRANCH   1  20
BRANCH   1  27
HETATM   27  C   UNL     1     -42.729  54.151 -54.820  1.00  0.00     0.164 C 
BRANCH  27  28
HETATM   28  C   UNL     1     -42.684  55.230 -55.873  1.00  0.00    -0.040 A 
HETATM   29  C   UNL     1     -43.186  54.959 -57.159  1.00  0.00     0.009 A 
HETATM   30  C   UNL     1     -43.181  55.939 -58.152  1.00  0.00     0.001 A 
HETATM   31  C   UNL     1     -42.688  57.210 -57.870  1.00  0.00     0.000 A 
HETATM   32  C   UNL     1     -42.211  57.501 -56.594  1.00  0.00     0.001 A 
HETATM   33  C   UNL     1     -42.218  56.521 -55.600  1.00  0.00     0.009 A 
ENDBRANCH  27  28
ENDBRANCH   1  27
TORSDOF 7
ENDMDL
MODEL 3
REMARK VINA RESULT:      -7.9      1.428      2.010
REMARK  7 active torsions:
REMARK  status: ('A' for Active; 'I' for Inactive)
REMARK    1  A    between atoms: C_4  and  C_5 
REMARK    2  A    between atoms: C_5  and  N_6 
REMARK       I    between atoms: N_6  and  C_7 
REMARK    3  A    between atoms: N_6  and  C_22 
REMARK    4  A    between atoms: C_7  and  C_8 
REMARK    5  A    between atoms: C_13  and  C_14 
REMARK    6  A    between atoms: C_15  and  O_16 
REMARK    7  A    between atoms: C_22  and  C_23 
ROOT
HETATM    1  N   UNL     1     -42.151  56.424 -55.222  1.00  0.00    -0.343 N 
HETATM    2  C   UNL     1     -42.885  57.224 -54.354  1.00  0.00     0.235 C 
HETATM    3  O   UNL     1     -44.124  57.224 -54.372  1.00  0.00    -0.272 OA
ENDROOT
BRANCH   2   4
HETATM    4  C   UNL     1     -42.180  58.104 -53.351  1.00  0.00     0.195 C 
HETATM    5  C   UNL     1     -42.250  59.560 -53.700  1.00  0.00     0.247 C 
HETATM    6  O   UNL     1     -42.208  60.073 -54.806  1.00  0.00    -0.271 OA
HETATM    7  N   UNL     1     -42.356  60.256 -52.506  1.00  0.00    -0.290 N 
HETATM    8  N   UNL     1     -42.580  59.426 -51.404  1.00  0.00    -0.228 NA
HETATM    9  H   UNL     1     -42.449  61.268 -52.495  1.00  0.00     0.183 HD
HETATM   10  C   UNL     1     -42.933  58.114 -52.009  1.00  0.00     0.134 C 
HETATM   11  H   UNL     1     -43.382  59.759 -50.862  1.00  0.00     0.147 HD
BRANCH  10  12
HETATM   12  C   UNL     1     -42.581  56.917 -51.150  1.00  0.00    -0.004 A 
HETATM   13  C   UNL     1     -41.378  56.840 -50.431  1.00  0.00     0.073 A 
HETATM   14  C   UNL     1     -41.093  55.734 -49.628  1.00  0.00     0.037 A 
HETATM   15  C   UNL     1     -42.007  54.688 -49.515  1.00  0.00     0.003 A 
HETATM   16  C   UNL     1     -43.210  54.748 -50.207  1.00  0.00     0.001 A 
HETATM   17  C   UNL     1     -43.496  55.853 -51.012  1.00  0.00     0.012 A 
BRANCH  13  18
HETATM   18  O   UNL     1     -40.403  57.799 -50.445  1.00  0.00    -0.360 OA
HETATM   19  H   UNL     1     -40.703  58.658 -50.091  1.00  0.00     0.217 HD
ENDBRANCH  13  18
ENDBRANCH  10  12
ENDBRANCH   2   4
BRANCH   1  20
HETATM   20  C   UNL     1     -42.905  55.610 -56.182  1.00  0.00     0.164 C 
BRANCH  20  21
HETATM   21  C   UNL     1     -42.921  56.195 -57.573  1.00  0.00    -0.040 A 
HETATM   22  C   UNL     1     -42.402  57.475 -57.813  1.00  0.00     0.009 A 
HETATM   23  C   UNL     1     -42.361  57.992 -59.109  1.00  0.00     0.001 A 
HETATM   24  C   UNL     1     -42.835  57.235 -60.179  1.00  0.00     0.000 A 
HETATM   25  C   UNL     1     -43.348  55.960 -59.956  1.00  0.00     0.001 A 
HETATM   26  C   UNL     1     -43.381  55.438 -58.662  1.00  0.00     0.009 A 
ENDBRANCH  20  21
ENDBRANCH   1  20
BRANCH   1  27
HETATM   27  C   UNL     1     -40.768  55.996 -54.973  1.00  0.00     0.164 C 
BRANCH  27  28
HETATM   28  C   UNL     1     -40.566  54.619 -54.393  1.00  0.00    -0.040 A 
HETATM   29  C   UNL     1     -40.770  54.415 -53.016  1.00  0.00     0.009 A 
HETATM   30  C   UNL     1     -40.614  53.150 -52.448  1.00  0.00     0.001 A 
HETATM   31  C   UNL     1     -40.266  52.067 -53.250  1.00  0.00     0.000 A 
HETATM   32  C   UNL     1     -40.085  52.248 -54.619  1.00  0.00     0.001 A 
HETATM   33  C   UNL     1     -40.245  53.514 -55.188  1.00  0.00     0.009 A 
ENDBRANCH  27  28
ENDBRANCH   1  27
TORSDOF 7
ENDMDL
MODEL 4
REMARK VINA RESULT:      -7.7      2.393      5.990
REMARK  7 active torsions:
REMARK  status: ('A' for Active; 'I' for Inactive)
REMARK    1  A    between atoms: C_4  and  C_5 
REMARK    2  A    between atoms: C_5  and  N_6 
REMARK       I    between atoms: N_6  and  C_7 
REMARK    3  A    between atoms: N_6  and  C_22 
REMARK    4  A    between atoms: C_7  and  C_8 
REMARK    5  A    between atoms: C_13  and  C_14 
REMARK    6  A    between atoms: C_15  and  O_16 
REMARK    7  A    between atoms: C_22  and  C_23 
ROOT
HETATM    1  N   UNL     1     -42.133  55.517 -54.150  1.00  0.00    -0.343 N 
HETATM    2  C   UNL     1     -43.178  56.103 -54.855  1.00  0.00     0.235 C 
HETATM    3  O   UNL     1     -44.346  55.712 -54.716  1.00  0.00    -0.272 OA
ENDROOT
BRANCH   2   4
HETATM    4  C   UNL     1     -42.911  57.248 -55.800  1.00  0.00     0.195 C 
HETATM    5  C   UNL     1     -43.114  56.879 -57.239  1.00  0.00     0.247 C 
HETATM    6  O   UNL     1     -42.863  55.818 -57.788  1.00  0.00    -0.271 OA
HETATM    7  N   UNL     1     -43.639  57.994 -57.871  1.00  0.00    -0.290 N 
HETATM    8  N   UNL     1     -44.012  59.006 -56.981  1.00  0.00    -0.228 NA
HETATM    9  H   UNL     1     -43.889  57.971 -58.856  1.00  0.00     0.183 HD
HETATM   10  C   UNL     1     -43.983  58.342 -55.651  1.00  0.00     0.134 C 
HETATM   11  H   UNL     1     -44.972  59.312 -57.169  1.00  0.00     0.147 HD
BRANCH  10  12
HETATM   12  C   UNL     1     -43.687  59.275 -54.495  1.00  0.00    -0.004 A 
HETATM   13  C   UNL     1     -42.703  60.273 -54.573  1.00  0.00     0.073 A 
HETATM   14  C   UNL     1     -42.469  61.135 -53.499  1.00  0.00     0.037 A 
HETATM   15  C   UNL     1     -43.221  61.027 -52.331  1.00  0.00     0.003 A 
HETATM   16  C   UNL     1     -44.209  60.056 -52.236  1.00  0.00     0.001 A 
HETATM   17  C   UNL     1     -44.443  59.192 -53.308  1.00  0.00     0.012 A 
BRANCH  13  18
HETATM   18  O   UNL     1     -41.905  60.492 -55.662  1.00  0.00    -0.360 OA
HETATM   19  H   UNL     1     -42.393  60.477 -56.507  1.00  0.00     0.217 HD
ENDBRANCH  13  18
ENDBRANCH  10  12
ENDBRANCH   2   4
BRANCH   1  20
HETATM   20  C   UNL     1     -42.468  54.396 -53.264  1.00  0.00     0.164 C 
BRANCH  20  21
HETATM   21  C   UNL     1     -41.375  53.359 -53.181  1.00  0.00    -0.040 A 
HETATM   22  C   UNL     1     -40.685  53.146 -51.978  1.00  0.00     0.009 A 
HETATM   23  C   UNL     1     -39.717  52.144 -51.883  1.00  0.00     0.001 A 
HETATM   24  C   UNL     1     -39.430  51.344 -52.987  1.00  0.00     0.000 A 
HETATM   25  C   UNL     1     -40.112  51.540 -54.186  1.00  0.00     0.001 A 
HETATM   26  C   UNL     1     -41.086  52.535 -54.279  1.00  0.00     0.009 A 
ENDBRANCH  20  21
ENDBRANCH   1  20
BRANCH   1  27
HETATM   27  C   UNL     1     -40.852  56.182 -53.878  1.00  0.00     0.164 C 
BRANCH  27  28
HETATM   28  C   UNL     1     -40.805  57.139 -52.714  1.00  0.00    -0.040 A 
HETATM   29  C   UNL     1     -40.055  58.324 -52.826  1.00  0.00     0.009 A 
HETATM   30  C   UNL     1     -40.007  59.244 -51.777  1.00  0.00     0.001 A 
HETATM   31  C   UNL     1     -40.719  59.000 -50.607  1.00  0.00     0.000 A 
HETATM   32  C   UNL     1     -41.486  57.843 -50.490  1.00  0.00     0.001 A 
HETATM   33  C   UNL     1     -41.537  56.924 -51.541  1.00  0.00     0.009 A 
ENDBRANCH  27  28
ENDBRANCH   1  27
TORSDOF 7
ENDMDL
MODEL 5
REMARK VINA RESULT:      -7.6      1.955      5.644
REMARK  7 active torsions:
REMARK  status: ('A' for Active; 'I' for Inactive)
REMARK    1  A    between atoms: C_4  and  C_5 
REMARK    2  A    between atoms: C_5  and  N_6 
REMARK       I    between atoms: N_6  and  C_7 
REMARK    3  A    between atoms: N_6  and  C_22 
REMARK    4  A    between atoms: C_7  and  C_8 
REMARK    5  A    between atoms: C_13  and  C_14 
REMARK    6  A    between atoms: C_15  and  O_16 
REMARK    7  A    between atoms: C_22  and  C_23 
ROOT
HETATM    1  N   UNL     1     -42.226  56.027 -53.845  1.00  0.00    -0.343 N 
HETATM    2  C   UNL     1     -42.404  57.049 -52.920  1.00  0.00     0.235 C 
HETATM    3  O   UNL     1     -41.436  57.634 -52.414  1.00  0.00    -0.272 OA
ENDROOT
BRANCH   2   4
HETATM    4  C   UNL     1     -43.794  57.482 -52.523  1.00  0.00     0.195 C 
HETATM    5  C   UNL     1     -44.189  57.000 -51.159  1.00  0.00     0.247 C 
HETATM    6  O   UNL     1     -43.916  55.937 -50.627  1.00  0.00    -0.271 OA
HETATM    7  N   UNL     1     -44.963  57.998 -50.587  1.00  0.00    -0.290 N 
HETATM    8  N   UNL     1     -44.960  59.186 -51.324  1.00  0.00    -0.228 NA
HETATM    9  H   UNL     1     -45.323  57.906 -49.642  1.00  0.00     0.183 HD
HETATM   10  C   UNL     1     -43.848  59.004 -52.294  1.00  0.00     0.134 C 
HETATM   11  H   UNL     1     -44.735  59.981 -50.719  1.00  0.00     0.147 HD
BRANCH  10  12
HETATM   12  C   UNL     1     -44.021  59.767 -53.591  1.00  0.00    -0.004 A 
HETATM   13  C   UNL     1     -42.980  60.515 -54.163  1.00  0.00     0.073 A 
HETATM   14  C   UNL     1     -43.161  61.188 -55.374  1.00  0.00     0.037 A 
HETATM   15  C   UNL     1     -44.380  61.118 -56.044  1.00  0.00     0.003 A 
HETATM   16  C   UNL     1     -45.421  60.373 -55.504  1.00  0.00     0.001 A 
HETATM   17  C   UNL     1     -45.241  59.701 -54.293  1.00  0.00     0.012 A 
BRANCH  13  18
HETATM   18  O   UNL     1     -41.735  60.657 -53.615  1.00  0.00    -0.360 OA
HETATM   19  H   UNL     1     -41.327  61.524 -53.803  1.00  0.00     0.217 HD
ENDBRANCH  13  18
ENDBRANCH  10  12
ENDBRANCH   2   4
BRANCH   1  20
HETATM   20  C   UNL     1     -40.846  55.648 -54.167  1.00  0.00     0.164 C 
BRANCH  20  21
HETATM   21  C   UNL     1     -40.504  54.239 -53.750  1.00  0.00    -0.040 A 
HETATM   22  C   UNL     1     -40.492  53.880 -52.394  1.00  0.00     0.009 A 
HETATM   23  C   UNL     1     -40.236  52.562 -52.011  1.00  0.00     0.001 A 
HETATM   24  C   UNL     1     -39.992  51.588 -52.978  1.00  0.00     0.000 A 
HETATM   25  C   UNL     1     -40.007  51.929 -54.328  1.00  0.00     0.001 A 
HETATM   26  C   UNL     1     -40.271  53.244 -54.713  1.00  0.00     0.009 A 
ENDBRANCH  20  21
ENDBRANCH   1  20
BRANCH   1  27
HETATM   27  C   UNL     1     -43.243  55.619 -54.823  1.00  0.00     0.164 C 
BRANCH  27  28
HETATM   28  C   UNL     1     -43.117  56.173 -56.220  1.00  0.00    -0.040 A 
HETATM   29  C   UNL     1     -42.962  57.560 -56.400  1.00  0.00     0.009 A 
HETATM   30  C   UNL     1     -42.821  58.106 -57.677  1.00  0.00     0.001 A 
HETATM   31  C   UNL     1     -42.817  57.272 -58.791  1.00  0.00     0.000 A 
HETATM   32  C   UNL     1     -42.943  55.894 -58.627  1.00  0.00     0.001 A 
HETATM   33  C   UNL     1     -43.082  55.348 -57.350  1.00  0.00     0.009 A 
ENDBRANCH  27  28
ENDBRANCH   1  27
TORSDOF 7
ENDMDL
MODEL 6
REMARK VINA RESULT:      -7.4      2.397      6.481
REMARK  7 active torsions:
REMARK  status: ('A' for Active; 'I' for Inactive)
REMARK    1  A    between atoms: C_4  and  C_5 
REMARK    2  A    between atoms: C_5  and  N_6 
REMARK       I    between atoms: N_6  and  C_7 
REMARK    3  A    between atoms: N_6  and  C_22 
REMARK    4  A    between atoms: C_7  and  C_8 
REMARK    5  A    between atoms: C_13  and  C_14 
REMARK    6  A    between atoms: C_15  and  O_16 
REMARK    7  A    between atoms: C_22  and  C_23 
ROOT
HETATM    1  N   UNL     1     -42.521  56.106 -53.456  1.00  0.00    -0.343 N 
HETATM    2  C   UNL     1     -43.345  56.499 -54.504  1.00  0.00     0.235 C 
HETATM    3  O   UNL     1     -44.411  57.096 -54.295  1.00  0.00    -0.272 OA
ENDROOT
BRANCH   2   4
HETATM    4  C   UNL     1     -42.946  56.218 -55.932  1.00  0.00     0.195 C 
HETATM    5  C   UNL     1     -43.373  54.860 -56.402  1.00  0.00     0.247 C 
HETATM    6  O   UNL     1     -43.410  53.819 -55.767  1.00  0.00    -0.271 OA
HETATM    7  N   UNL     1     -43.718  54.986 -57.738  1.00  0.00    -0.290 N 
HETATM    8  N   UNL     1     -43.774  56.315 -58.168  1.00  0.00    -0.228 NA
HETATM    9  H   UNL     1     -44.071  54.193 -58.267  1.00  0.00     0.183 HD
HETATM   10  C   UNL     1     -43.743  57.102 -56.907  1.00  0.00     0.134 C 
HETATM   11  H   UNL     1     -44.663  56.500 -58.643  1.00  0.00     0.147 HD
BRANCH  10  12
HETATM   12  C   UNL     1     -43.137  58.482 -57.048  1.00  0.00    -0.004 A 
HETATM   13  C   UNL     1     -42.074  58.747 -57.926  1.00  0.00     0.073 A 
HETATM   14  C   UNL     1     -41.553  60.036 -58.053  1.00  0.00     0.037 A 
HETATM   15  C   UNL     1     -42.088  61.090 -57.317  1.00  0.00     0.003 A 
HETATM   16  C   UNL     1     -43.150  60.856 -56.451  1.00  0.00     0.001 A 
HETATM   17  C   UNL     1     -43.671  59.566 -56.322  1.00  0.00     0.012 A 
BRANCH  13  18
HETATM   18  O   UNL     1     -41.466  57.807 -58.711  1.00  0.00    -0.360 OA
HETATM   19  H   UNL     1     -40.623  58.114 -59.097  1.00  0.00     0.217 HD
ENDBRANCH  13  18
ENDBRANCH  10  12
ENDBRANCH   2   4
BRANCH   1  20
HETATM   20  C   UNL     1     -42.985  56.397 -52.094  1.00  0.00     0.164 C 
BRANCH  20  21
HETATM   21  C   UNL     1     -42.408  57.673 -51.531  1.00  0.00    -0.040 A 
HETATM   22  C   UNL     1     -43.089  58.890 -51.680  1.00  0.00     0.009 A 
HETATM   23  C   UNL     1     -42.586  60.059 -51.106  1.00  0.00     0.001 A 
HETATM   24  C   UNL     1     -41.400  60.025 -50.376  1.00  0.00     0.000 A 
HETATM   25  C   UNL     1     -40.716  58.823 -50.214  1.00  0.00     0.001 A 
HETATM   26  C   UNL     1     -41.222  57.651 -50.780  1.00  0.00     0.009 A 
ENDBRANCH  20  21
ENDBRANCH   1  20
BRANCH   1  27
HETATM   27  C   UNL     1     -41.082  55.845 -53.595  1.00  0.00     0.164 C 
BRANCH  27  28
HETATM   28  C   UNL     1     -40.622  54.417 -53.445  1.00  0.00    -0.040 A 
HETATM   29  C   UNL     1     -40.493  53.867 -52.156  1.00  0.00     0.009 A 
HETATM   30  C   UNL     1     -40.091  52.542 -51.979  1.00  0.00     0.001 A 
HETATM   31  C   UNL     1     -39.826  51.744 -53.088  1.00  0.00     0.000 A 
HETATM   32  C   UNL     1     -39.974  52.267 -54.370  1.00  0.00     0.001 A 
HETATM   33  C   UNL     1     -40.379  53.591 -54.548  1.00  0.00     0.009 A 
ENDBRANCH  27  28
ENDBRANCH   1  27
TORSDOF 7
ENDMDL
MODEL 7
REMARK VINA RESULT:      -7.4      2.046      5.710
REMARK  7 active torsions:
REMARK  status: ('A' for Active; 'I' for Inactive)
REMARK    1  A    between atoms: C_4  and  C_5 
REMARK    2  A    between atoms: C_5  and  N_6 
REMARK       I    between atoms: N_6  and  C_7 
REMARK    3  A    between atoms: N_6  and  C_22 
REMARK    4  A    between atoms: C_7  and  C_8 
REMARK    5  A    between atoms: C_13  and  C_14 
REMARK    6  A    between atoms: C_15  and  O_16 
REMARK    7  A    between atoms: C_22  and  C_23 
ROOT
HETATM    1  N   UNL     1     -43.087  58.952 -52.687  1.00  0.00    -0.343 N 
HETATM    2  C   UNL     1     -42.875  58.670 -54.031  1.00  0.00     0.235 C 
HETATM    3  O   UNL     1     -41.936  59.184 -54.655  1.00  0.00    -0.272 OA
ENDROOT
BRANCH   2   4
HETATM    4  C   UNL     1     -43.782  57.709 -54.759  1.00  0.00     0.195 C 
HETATM    5  C   UNL     1     -44.716  58.395 -55.712  1.00  0.00     0.247 C 
HETATM    6  O   UNL     1     -45.271  59.473 -55.578  1.00  0.00    -0.271 OA
HETATM    7  N   UNL     1     -44.863  57.558 -56.806  1.00  0.00    -0.290 N 
HETATM    8  N   UNL     1     -43.970  56.481 -56.798  1.00  0.00    -0.228 NA
HETATM    9  H   UNL     1     -45.433  57.829 -57.602  1.00  0.00     0.183 HD
HETATM   10  C   UNL     1     -42.982  56.843 -55.748  1.00  0.00     0.134 C 
HETATM   11  H   UNL     1     -43.481  56.416 -57.695  1.00  0.00     0.147 HD
BRANCH  10  12
HETATM   12  C   UNL     1     -42.333  55.656 -55.067  1.00  0.00    -0.004 A 
HETATM   13  C   UNL     1     -43.086  54.605 -54.518  1.00  0.00     0.073 A 
HETATM   14  C   UNL     1     -42.458  53.511 -53.918  1.00  0.00     0.037 A 
HETATM   15  C   UNL     1     -41.069  53.436 -53.865  1.00  0.00     0.003 A 
HETATM   16  C   UNL     1     -40.302  54.457 -54.413  1.00  0.00     0.001 A 
HETATM   17  C   UNL     1     -40.929  55.552 -55.012  1.00  0.00     0.012 A 
BRANCH  13  18
HETATM   18  O   UNL     1     -44.452  54.551 -54.513  1.00  0.00    -0.360 OA
HETATM   19  H   UNL     1     -44.802  53.639 -54.532  1.00  0.00     0.217 HD
ENDBRANCH  13  18
ENDBRANCH  10  12
ENDBRANCH   2   4
BRANCH   1  20
HETATM   20  C   UNL     1     -42.175  59.909 -52.051  1.00  0.00     0.164 C 
BRANCH  20  21
HETATM   21  C   UNL     1     -42.867  61.165 -51.580  1.00  0.00    -0.040 A 
HETATM   22  C   UNL     1     -43.338  62.108 -52.505  1.00  0.00     0.009 A 
HETATM   23  C   UNL     1     -44.033  63.240 -52.073  1.00  0.00     0.001 A 
HETATM   24  C   UNL     1     -44.264  63.441 -50.713  1.00  0.00     0.000 A 
HETATM   25  C   UNL     1     -43.807  62.509 -49.784  1.00  0.00     0.001 A 
HETATM   26  C   UNL     1     -43.121  61.373 -50.216  1.00  0.00     0.009 A 
ENDBRANCH  20  21
ENDBRANCH   1  20
BRANCH   1  27
HETATM   27  C   UNL     1     -43.827  58.074 -51.771  1.00  0.00     0.164 C 
BRANCH  27  28
HETATM   28  C   UNL     1     -43.139  56.810 -51.319  1.00  0.00    -0.040 A 
HETATM   29  C   UNL     1     -41.734  56.778 -51.250  1.00  0.00     0.009 A 
HETATM   30  C   UNL     1     -41.064  55.633 -50.815  1.00  0.00     0.001 A 
HETATM   31  C   UNL     1     -41.789  54.509 -50.431  1.00  0.00     0.000 A 
HETATM   32  C   UNL     1     -43.181  54.534 -50.471  1.00  0.00     0.001 A 
HETATM   33  C   UNL     1     -43.851  55.681 -50.902  1.00  0.00     0.009 A 
ENDBRANCH  27  28
ENDBRANCH   1  27
TORSDOF 7
ENDMDL
MODEL 8
REMARK VINA RESULT:      -7.1      2.563      4.805
REMARK  7 active torsions:
REMARK  status: ('A' for Active; 'I' for Inactive)
REMARK    1  A    between atoms: C_4  and  C_5 
REMARK    2  A    between atoms: C_5  and  N_6 
REMARK       I    between atoms: N_6  and  C_7 
REMARK    3  A    between atoms: N_6  and  C_22 
REMARK    4  A    between atoms: C_7  and  C_8 
REMARK    5  A    between atoms: C_13  and  C_14 
REMARK    6  A    between atoms: C_15  and  O_16 
REMARK    7  A    between atoms: C_22  and  C_23 
ROOT
HETATM    1  N   UNL     1     -42.157  57.448 -54.333  1.00  0.00    -0.343 N 
HETATM    2  C   UNL     1     -42.907  56.342 -53.954  1.00  0.00     0.235 C 
HETATM    3  O   UNL     1     -43.610  55.731 -54.772  1.00  0.00    -0.272 OA
ENDROOT
BRANCH   2   4
HETATM    4  C   UNL     1     -42.868  55.847 -52.529  1.00  0.00     0.195 C 
HETATM    5  C   UNL     1     -44.009  56.357 -51.701  1.00  0.00     0.247 C 
HETATM    6  O   UNL     1     -44.543  57.453 -51.748  1.00  0.00    -0.271 OA
HETATM    7  N   UNL     1     -44.359  55.340 -50.827  1.00  0.00    -0.290 N 
HETATM    8  N   UNL     1     -43.725  54.128 -51.113  1.00  0.00    -0.228 NA
HETATM    9  H   UNL     1     -45.136  55.447 -50.182  1.00  0.00     0.183 HD
HETATM   10  C   UNL     1     -43.148  54.335 -52.468  1.00  0.00     0.134 C 
HETATM   11  H   UNL     1     -44.412  53.369 -51.167  1.00  0.00     0.147 HD
BRANCH  10  12
HETATM   12  C   UNL     1     -41.906  53.515 -52.748  1.00  0.00    -0.004 A 
HETATM   13  C   UNL     1     -40.973  53.204 -51.746  1.00  0.00     0.073 A 
HETATM   14  C   UNL     1     -39.849  52.424 -52.029  1.00  0.00     0.037 A 
HETATM   15  C   UNL     1     -39.639  51.929 -53.314  1.00  0.00     0.003 A 
HETATM   16  C   UNL     1     -40.556  52.212 -54.319  1.00  0.00     0.001 A 
HETATM   17  C   UNL     1     -41.679  52.993 -54.037  1.00  0.00     0.012 A 
BRANCH  13  18
HETATM   18  O   UNL     1     -41.065  53.617 -50.445  1.00  0.00    -0.360 OA
HETATM   19  H   UNL     1     -41.664  54.379 -50.324  1.00  0.00     0.217 HD
ENDBRANCH  13  18
ENDBRANCH  10  12
ENDBRANCH   2   4
BRANCH   1  20
HETATM   20  C   UNL     1     -42.261  57.882 -55.731  1.00  0.00     0.164 C 
BRANCH  20  21
HETATM   21  C   UNL     1     -42.932  59.224 -55.888  1.00  0.00    -0.040 A 
HETATM   22  C   UNL     1     -42.225  60.316 -56.414  1.00  0.00     0.009 A 
HETATM   23  C   UNL     1     -42.862  61.542 -56.617  1.00  0.00     0.001 A 
HETATM   24  C   UNL     1     -44.211  61.690 -56.299  1.00  0.00     0.000 A 
HETATM   25  C   UNL     1     -44.926  60.612 -55.782  1.00  0.00     0.001 A 
HETATM   26  C   UNL     1     -44.293  59.384 -55.587  1.00  0.00     0.009 A 
ENDBRANCH  20  21
ENDBRANCH   1  20
BRANCH   1  27
HETATM   27  C   UNL     1     -40.973  57.926 -53.606  1.00  0.00     0.164 C 
BRANCH  27  28
HETATM   28  C   UNL     1     -41.209  58.829 -52.421  1.00  0.00    -0.040 A 
HETATM   29  C   UNL     1     -42.207  59.818 -52.496  1.00  0.00     0.009 A 
HETATM   30  C   UNL     1     -42.468  60.656 -51.412  1.00  0.00     0.001 A 
HETATM   31  C   UNL     1     -41.746  60.510 -50.231  1.00  0.00     0.000 A 
HETATM   32  C   UNL     1     -40.772  59.519 -50.133  1.00  0.00     0.001 A 
HETATM   33  C   UNL     1     -40.512  58.677 -51.217  1.00  0.00     0.009 A 
ENDBRANCH  27  28
ENDBRANCH   1  27
TORSDOF 7
ENDMDL
MODEL 9
REMARK VINA RESULT:      -7.1      2.445      5.748
REMARK  7 active torsions:
REMARK  status: ('A' for Active; 'I' for Inactive)
REMARK    1  A    between atoms: C_4  and  C_5 
REMARK    2  A    between atoms: C_5  and  N_6 
REMARK       I    between atoms: N_6  and  C_7 
REMARK    3  A    between atoms: N_6  and  C_22 
REMARK    4  A    between atoms: C_7  and  C_8 
REMARK    5  A    between atoms: C_13  and  C_14 
REMARK    6  A    between atoms: C_15  and  O_16 
REMARK    7  A    between atoms: C_22  and  C_23 
ROOT
HETATM    1  N   UNL     1     -43.764  59.352 -54.884  1.00  0.00    -0.343 N 
HETATM    2  C   UNL     1     -43.110  58.549 -55.811  1.00  0.00     0.235 C 
HETATM    3  O   UNL     1     -41.949  58.796 -56.169  1.00  0.00    -0.272 OA
ENDROOT
BRANCH   2   4
HETATM    4  C   UNL     1     -43.801  57.341 -56.392  1.00  0.00     0.195 C 
HETATM    5  C   UNL     1     -44.572  57.651 -57.640  1.00  0.00     0.247 C 
HETATM    6  O   UNL     1     -45.206  58.660 -57.902  1.00  0.00    -0.271 OA
HETATM    7  N   UNL     1     -44.455  56.549 -58.472  1.00  0.00    -0.290 N 
HETATM    8  N   UNL     1     -43.518  55.616 -58.018  1.00  0.00    -0.228 NA
HETATM    9  H   UNL     1     -44.875  56.542 -59.397  1.00  0.00     0.183 HD
HETATM   10  C   UNL     1     -42.774  56.342 -56.955  1.00  0.00     0.134 C 
HETATM   11  H   UNL     1     -42.861  55.375 -58.766  1.00  0.00     0.147 HD
BRANCH  10  12
HETATM   12  C   UNL     1     -42.200  55.448 -55.875  1.00  0.00    -0.004 A 
HETATM   13  C   UNL     1     -42.782  54.217 -55.534  1.00  0.00     0.073 A 
HETATM   14  C   UNL     1     -42.215  53.404 -54.551  1.00  0.00     0.037 A 
HETATM   15  C   UNL     1     -41.049  53.794 -53.897  1.00  0.00     0.003 A 
HETATM   16  C   UNL     1     -40.446  55.002 -54.227  1.00  0.00     0.001 A 
HETATM   17  C   UNL     1     -41.014  55.818 -55.209  1.00  0.00     0.012 A 
BRANCH  13  18
HETATM   18  O   UNL     1     -43.918  53.713 -56.104  1.00  0.00    -0.360 OA
HETATM   19  H   UNL     1     -44.326  54.319 -56.752  1.00  0.00     0.217 HD
ENDBRANCH  13  18
ENDBRANCH  10  12
ENDBRANCH   2   4
BRANCH   1  20
HETATM   20  C   UNL     1     -43.035  60.521 -54.377  1.00  0.00     0.164 C 
BRANCH  20  21
HETATM   21  C   UNL     1     -42.364  60.271 -53.048  1.00  0.00    -0.040 A 
HETATM   22  C   UNL     1     -42.844  60.885 -51.882  1.00  0.00     0.009 A 
HETATM   23  C   UNL     1     -42.263  60.607 -50.643  1.00  0.00     0.001 A 
HETATM   24  C   UNL     1     -41.198  59.712 -50.556  1.00  0.00     0.000 A 
HETATM   25  C   UNL     1     -40.716  59.091 -51.705  1.00  0.00     0.001 A 
HETATM   26  C   UNL     1     -41.302  59.361 -52.943  1.00  0.00     0.009 A 
ENDBRANCH  20  21
ENDBRANCH   1  20
BRANCH   1  27
HETATM   27  C   UNL     1     -44.895  58.903 -54.062  1.00  0.00     0.164 C 
BRANCH  27  28
HETATM   28  C   UNL     1     -44.590  57.964 -52.922  1.00  0.00    -0.040 A 
HETATM   29  C   UNL     1     -43.719  56.880 -53.136  1.00  0.00     0.009 A 
HETATM   30  C   UNL     1     -43.396  56.003 -52.099  1.00  0.00     0.001 A 
HETATM   31  C   UNL     1     -43.927  56.207 -50.829  1.00  0.00     0.000 A 
HETATM   32  C   UNL     1     -44.770  57.290 -50.595  1.00  0.00     0.001 A 
HETATM   33  C   UNL     1     -45.091  58.169 -51.632  1.00  0.00     0.009 A 
ENDBRANCH  27  28
ENDBRANCH   1  27
TORSDOF 7
ENDMDL
MODEL 10
REMARK VINA RESULT:      -7.0     16.764     19.750
REMARK  7 active torsions:
REMARK  status: ('A' for Active; 'I' for Inactive)
REMARK    1  A    between atoms: C_4  and  C_5 
REMARK    2  A    between atoms: C_5  and  N_6 
REMARK       I    between atoms: N_6  and  C_7 
REMARK    3  A    between atoms: N_6  and  C_22 
REMARK    4  A    between atoms: C_7  and  C_8 
REMARK    5  A    between atoms: C_13  and  C_14 
REMARK    6  A    between atoms: C_15  and  O_16 
REMARK    7  A    between atoms: C_22  and  C_23 
ROOT
HETATM    1  N   UNL     1     -32.849  39.325 -55.188  1.00  0.00    -0.343 N 
HETATM    2  C   UNL     1     -34.184  39.615 -55.445  1.00  0.00     0.235 C 
HETATM    3  O   UNL     1     -34.935  38.779 -55.967  1.00  0.00    -0.272 OA
ENDROOT
BRANCH   2   4
HETATM    4  C   UNL     1     -34.754  40.962 -55.073  1.00  0.00     0.195 C 
HETATM    5  C   UNL     1     -35.176  41.767 -56.266  1.00  0.00     0.247 C 
HETATM    6  O   UNL     1     -34.644  41.828 -57.361  1.00  0.00    -0.271 OA
HETATM    7  N   UNL     1     -36.310  42.473 -55.894  1.00  0.00    -0.290 N 
HETATM    8  N   UNL     1     -36.823  42.075 -54.656  1.00  0.00    -0.228 NA
HETATM    9  H   UNL     1     -36.797  43.070 -56.556  1.00  0.00     0.183 HD
HETATM   10  C   UNL     1     -36.110  40.804 -54.363  1.00  0.00     0.134 C 
HETATM   11  H   UNL     1     -37.825  41.874 -54.732  1.00  0.00     0.147 HD
BRANCH  10  12
HETATM   12  C   UNL     1     -35.947  40.507 -52.887  1.00  0.00    -0.004 A 
HETATM   13  C   UNL     1     -35.461  41.463 -51.980  1.00  0.00     0.073 A 
HETATM   14  C   UNL     1     -35.346  41.167 -50.620  1.00  0.00     0.037 A 
HETATM   15  C   UNL     1     -35.724  39.918 -50.134  1.00  0.00     0.003 A 
HETATM   16  C   UNL     1     -36.221  38.961 -51.010  1.00  0.00     0.001 A 
HETATM   17  C   UNL     1     -36.336  39.254 -52.371  1.00  0.00     0.012 A 
BRANCH  13  18
HETATM   18  O   UNL     1     -35.065  42.726 -52.324  1.00  0.00    -0.360 OA
HETATM   19  H   UNL     1     -34.189  42.752 -52.754  1.00  0.00     0.217 HD
ENDBRANCH  13  18
ENDBRANCH  10  12
ENDBRANCH   2   4
BRANCH   1  20
HETATM   20  C   UNL     1     -32.362  38.001 -55.595  1.00  0.00     0.164 C 
BRANCH  20  21
HETATM   21  C   UNL     1     -30.868  37.957 -55.805  1.00  0.00    -0.040 A 
HETATM   22  C   UNL     1     -30.056  37.166 -54.979  1.00  0.00     0.009 A 
HETATM   23  C   UNL     1     -28.682  37.076 -55.211  1.00  0.00     0.001 A 
HETATM   24  C   UNL     1     -28.105  37.775 -56.271  1.00  0.00     0.000 A 
HETATM   25  C   UNL     1     -28.901  38.560 -57.102  1.00  0.00     0.001 A 
HETATM   26  C   UNL     1     -30.275  38.642 -56.876  1.00  0.00     0.009 A 
ENDBRANCH  20  21
ENDBRANCH   1  20
BRANCH   1  27
HETATM   27  C   UNL     1     -32.036  40.020 -54.183  1.00  0.00     0.164 C 
BRANCH  27  28
HETATM   28  C   UNL     1     -32.133  39.533 -52.759  1.00  0.00    -0.040 A 
HETATM   29  C   UNL     1     -31.840  40.418 -51.706  1.00  0.00     0.009 A 
HETATM   30  C   UNL     1     -31.940  40.008 -50.375  1.00  0.00     0.001 A 
HETATM   31  C   UNL     1     -32.350  38.711 -50.078  1.00  0.00     0.000 A 
HETATM   32  C   UNL     1     -32.668  37.831 -51.109  1.00  0.00     0.001 A 
HETATM   33  C   UNL     1     -32.570  38.242 -52.441  1.00  0.00     0.009 A 
ENDBRANCH  27  28
ENDBRANCH   1  27
TORSDOF 7
ENDMDL
