MODEL 1
REMARK VINA RESULT:      -8.6      0.000      0.000
REMARK  3 active torsions:
REMARK  status: ('A' for Active; 'I' for Inactive)
REMARK    1  A    between atoms: C_2  and  C_3 
REMARK    2  A    between atoms: C_6  and  N_7 
REMARK    3  A    between atoms: C_14  and  C_15 
REMARK       I    between atoms: C_15  and  N_16 
ROOT
HETATM    1  N   UNL     1     -42.332  57.153 -56.278  1.00  0.00    -0.252 N 
HETATM    2  C   UNL     1     -41.719  57.749 -55.194  1.00  0.00     0.238 C 
HETATM    3  O   UNL     1     -41.489  58.926 -54.959  1.00  0.00    -0.272 OA
HETATM    4  C   UNL     1     -41.490  56.716 -54.130  1.00  0.00     0.135 C 
HETATM    5  C   UNL     1     -41.614  55.425 -54.897  1.00  0.00     0.130 C 
HETATM    6  C   UNL     1     -42.489  55.800 -56.052  1.00  0.00     0.238 C 
HETATM    7  O   UNL     1     -43.177  54.968 -56.618  1.00  0.00    -0.272 OA
HETATM    8  C   UNL     1     -42.570  56.703 -53.057  1.00  0.00     0.298 C 
HETATM    9  N   UNL     1     -43.090  55.246 -53.038  1.00  0.00    -0.028 N 
HETATM   10  H   UNL     1     -44.044  55.304 -53.459  1.00  0.00     0.287 HD
HETATM   11  C   UNL     1     -42.258  54.390 -53.981  1.00  0.00     0.242 C 
HETATM   12  C   UNL     1     -43.261  54.764 -51.701  1.00  0.00     0.203 C 
HETATM   13  C   UNL     1     -42.410  53.881 -51.171  1.00  0.00     0.037 C 
HETATM   14  C   UNL     1     -41.317  53.281 -51.926  1.00  0.00    -0.026 A 
HETATM   15  C   UNL     1     -41.234  53.505 -53.307  1.00  0.00    -0.016 A 
HETATM   16  C   UNL     1     -40.405  52.428 -51.294  1.00  0.00     0.012 A 
HETATM   17  C   UNL     1     -39.418  51.781 -52.035  1.00  0.00     0.001 A 
HETATM   18  C   UNL     1     -39.350  51.967 -53.411  1.00  0.00     0.001 A 
HETATM   19  C   UNL     1     -40.258  52.814 -54.047  1.00  0.00     0.010 A 
ENDROOT
BRANCH   1  20
HETATM   20  C   UNL     1     -42.821  57.851 -57.430  1.00  0.00     0.045 A 
HETATM   21  C   UNL     1     -42.011  58.074 -58.558  1.00  0.00     0.031 A 
HETATM   22  C   UNL     1     -42.498  58.726 -59.705  1.00  0.00     0.017 A 
HETATM   23  C   UNL     1     -43.816  59.176 -59.750  1.00  0.00     0.009 A 
HETATM   24  C   UNL     1     -44.631  58.983 -58.635  1.00  0.00     0.017 A 
HETATM   25  C   UNL     1     -44.142  58.323 -57.499  1.00  0.00     0.031 A 
BRANCH  23  26
HETATM   26  C   UNL     1     -44.392  59.862 -60.938  1.00  0.00     0.155 C 
HETATM   27  C   UNL     1     -45.886  60.017 -61.044  1.00  0.00     0.096 C 
HETATM   28  O   UNL     1     -43.637  60.288 -61.810  1.00  0.00    -0.293 OA
ENDBRANCH  23  26
ENDBRANCH   1  20
BRANCH   8  29
HETATM   29  C   UNL     1     -43.786  57.622 -53.287  1.00  0.00     0.248 C 
HETATM   30  N   UNL     1     -43.745  58.895 -52.826  1.00  0.00    -0.368 N 
HETATM   31  H   UNL     1     -42.871  59.410 -52.718  1.00  0.00     0.159 HD
HETATM   32  H   UNL     1     -44.542  59.488 -53.055  1.00  0.00     0.159 HD
HETATM   33  O   UNL     1     -44.771  57.165 -53.869  1.00  0.00    -0.271 OA
ENDBRANCH   8  29
TORSDOF 3
ENDMDL
MODEL 2
REMARK VINA RESULT:      -8.6      3.163      7.968
REMARK  3 active torsions:
REMARK  status: ('A' for Active; 'I' for Inactive)
REMARK    1  A    between atoms: C_2  and  C_3 
REMARK    2  A    between atoms: C_6  and  N_7 
REMARK    3  A    between atoms: C_14  and  C_15 
REMARK       I    between atoms: C_15  and  N_16 
ROOT
HETATM    1  N   UNL     1     -41.130  55.306 -52.982  1.00  0.00    -0.252 N 
HETATM    2  C   UNL     1     -40.694  56.179 -53.958  1.00  0.00     0.238 C 
HETATM    3  O   UNL     1     -39.926  56.007 -54.893  1.00  0.00    -0.272 OA
HETATM    4  C   UNL     1     -41.472  57.459 -53.856  1.00  0.00     0.135 C 
HETATM    5  C   UNL     1     -42.047  57.381 -52.466  1.00  0.00     0.130 C 
HETATM    6  C   UNL     1     -42.099  55.908 -52.204  1.00  0.00     0.238 C 
HETATM    7  O   UNL     1     -42.900  55.435 -51.415  1.00  0.00    -0.272 OA
HETATM    8  C   UNL     1     -42.646  57.530 -54.822  1.00  0.00     0.298 C 
HETATM    9  N   UNL     1     -43.877  57.811 -53.927  1.00  0.00    -0.028 N 
HETATM   10  H   UNL     1     -44.415  56.916 -53.937  1.00  0.00     0.287 HD
HETATM   11  C   UNL     1     -43.429  58.024 -52.489  1.00  0.00     0.242 C 
HETATM   12  C   UNL     1     -44.730  58.808 -54.498  1.00  0.00     0.203 C 
HETATM   13  C   UNL     1     -44.777  60.045 -53.997  1.00  0.00     0.037 C 
HETATM   14  C   UNL     1     -44.051  60.444 -52.798  1.00  0.00    -0.026 A 
HETATM   15  C   UNL     1     -43.398  59.467 -52.036  1.00  0.00    -0.016 A 
HETATM   16  C   UNL     1     -44.071  61.776 -52.369  1.00  0.00     0.012 A 
HETATM   17  C   UNL     1     -43.455  62.138 -51.172  1.00  0.00     0.001 A 
HETATM   18  C   UNL     1     -42.836  61.170 -50.389  1.00  0.00     0.001 A 
HETATM   19  C   UNL     1     -42.816  59.840 -50.811  1.00  0.00     0.010 A 
ENDROOT
BRANCH   1  20
HETATM   20  C   UNL     1     -40.709  53.943 -52.854  1.00  0.00     0.045 A 
HETATM   21  C   UNL     1     -40.207  53.435 -51.641  1.00  0.00     0.031 A 
HETATM   22  C   UNL     1     -39.827  52.089 -51.501  1.00  0.00     0.017 A 
HETATM   23  C   UNL     1     -39.939  51.212 -52.578  1.00  0.00     0.009 A 
HETATM   24  C   UNL     1     -40.416  51.698 -53.795  1.00  0.00     0.017 A 
HETATM   25  C   UNL     1     -40.803  53.039 -53.924  1.00  0.00     0.031 A 
BRANCH  23  26
HETATM   26  C   UNL     1     -39.564  49.774 -52.488  1.00  0.00     0.155 C 
HETATM   27  C   UNL     1     -39.461  49.126 -51.134  1.00  0.00     0.096 C 
HETATM   28  O   UNL     1     -39.346  49.146 -53.521  1.00  0.00    -0.293 OA
ENDBRANCH  23  26
ENDBRANCH   1  20
BRANCH   8  29
HETATM   29  C   UNL     1     -42.952  56.259 -55.638  1.00  0.00     0.248 C 
HETATM   30  N   UNL     1     -42.368  56.098 -56.849  1.00  0.00    -0.368 N 
HETATM   31  H   UNL     1     -41.466  56.514 -57.081  1.00  0.00     0.159 HD
HETATM   32  H   UNL     1     -42.545  55.216 -57.327  1.00  0.00     0.159 HD
HETATM   33  O   UNL     1     -43.735  55.431 -55.171  1.00  0.00    -0.271 OA
ENDBRANCH   8  29
TORSDOF 3
ENDMDL
MODEL 3
REMARK VINA RESULT:      -8.5      2.267      2.728
REMARK  3 active torsions:
REMARK  status: ('A' for Active; 'I' for Inactive)
REMARK    1  A    between atoms: C_2  and  C_3 
REMARK    2  A    between atoms: C_6  and  N_7 
REMARK    3  A    between atoms: C_14  and  C_15 
REMARK       I    between atoms: C_15  and  N_16 
ROOT
HETATM    1  N   UNL     1     -42.850  57.827 -54.563  1.00  0.00    -0.252 N 
HETATM    2  C   UNL     1     -41.585  58.090 -54.077  1.00  0.00     0.238 C 
HETATM    3  O   UNL     1     -40.963  59.140 -54.007  1.00  0.00    -0.272 OA
HETATM    4  C   UNL     1     -41.049  56.858 -53.409  1.00  0.00     0.135 C 
HETATM    5  C   UNL     1     -41.934  55.774 -53.965  1.00  0.00     0.130 C 
HETATM    6  C   UNL     1     -43.188  56.510 -54.321  1.00  0.00     0.238 C 
HETATM    7  O   UNL     1     -44.265  55.940 -54.359  1.00  0.00    -0.272 OA
HETATM    8  C   UNL     1     -41.239  56.859 -51.898  1.00  0.00     0.298 C 
HETATM    9  N   UNL     1     -42.003  55.548 -51.596  1.00  0.00    -0.028 N 
HETATM   10  H   UNL     1     -42.964  55.862 -51.335  1.00  0.00     0.287 HD
HETATM   11  C   UNL     1     -42.152  54.733 -52.872  1.00  0.00     0.242 C 
HETATM   12  C   UNL     1     -41.467  54.875 -50.453  1.00  0.00     0.203 C 
HETATM   13  C   UNL     1     -40.735  53.766 -50.585  1.00  0.00     0.037 C 
HETATM   14  C   UNL     1     -40.506  53.114 -51.868  1.00  0.00    -0.026 A 
HETATM   15  C   UNL     1     -41.203  53.562 -52.998  1.00  0.00    -0.016 A 
HETATM   16  C   UNL     1     -39.659  52.004 -51.956  1.00  0.00     0.012 A 
HETATM   17  C   UNL     1     -39.515  51.324 -53.165  1.00  0.00     0.001 A 
HETATM   18  C   UNL     1     -40.230  51.738 -54.283  1.00  0.00     0.001 A 
HETATM   19  C   UNL     1     -41.078  52.843 -54.200  1.00  0.00     0.010 A 
ENDROOT
BRANCH   1  20
HETATM   20  C   UNL     1     -43.723  58.801 -55.148  1.00  0.00     0.045 A 
HETATM   21  C   UNL     1     -43.816  58.967 -56.542  1.00  0.00     0.031 A 
HETATM   22  C   UNL     1     -44.699  59.896 -57.121  1.00  0.00     0.017 A 
HETATM   23  C   UNL     1     -45.513  60.688 -56.314  1.00  0.00     0.009 A 
HETATM   24  C   UNL     1     -45.423  60.553 -54.929  1.00  0.00     0.017 A 
HETATM   25  C   UNL     1     -44.549  59.617 -54.359  1.00  0.00     0.031 A 
BRANCH  23  26
HETATM   26  C   UNL     1     -46.475  61.680 -56.867  1.00  0.00     0.155 C 
HETATM   27  C   UNL     1     -47.437  62.367 -55.936  1.00  0.00     0.096 C 
HETATM   28  O   UNL     1     -46.465  61.916 -58.073  1.00  0.00    -0.293 OA
ENDBRANCH  23  26
ENDBRANCH   1  20
BRANCH   8  29
HETATM   29  C   UNL     1     -42.062  58.019 -51.304  1.00  0.00     0.248 C 
HETATM   30  N   UNL     1     -41.418  59.131 -50.878  1.00  0.00    -0.368 N 
HETATM   31  H   UNL     1     -40.530  59.436 -51.276  1.00  0.00     0.159 HD
HETATM   32  H   UNL     1     -42.003  59.899 -50.551  1.00  0.00     0.159 HD
HETATM   33  O   UNL     1     -43.284  57.892 -51.216  1.00  0.00    -0.271 OA
ENDBRANCH   8  29
TORSDOF 3
ENDMDL
MODEL 4
REMARK VINA RESULT:      -8.4     15.765     19.644
REMARK  3 active torsions:
REMARK  status: ('A' for Active; 'I' for Inactive)
REMARK    1  A    between atoms: C_2  and  C_3 
REMARK    2  A    between atoms: C_6  and  N_7 
REMARK    3  A    between atoms: C_14  and  C_15 
REMARK       I    between atoms: C_15  and  N_16 
ROOT
HETATM    1  N   UNL     1     -34.650  39.494 -53.336  1.00  0.00    -0.252 N 
HETATM    2  C   UNL     1     -36.012  39.276 -53.408  1.00  0.00     0.238 C 
HETATM    3  O   UNL     1     -36.827  39.039 -52.528  1.00  0.00    -0.272 OA
HETATM    4  C   UNL     1     -36.481  39.560 -54.805  1.00  0.00     0.135 C 
HETATM    5  C   UNL     1     -35.199  39.511 -55.596  1.00  0.00     0.130 C 
HETATM    6  C   UNL     1     -34.159  39.852 -54.575  1.00  0.00     0.238 C 
HETATM    7  O   UNL     1     -33.097  40.354 -54.901  1.00  0.00    -0.272 OA
HETATM    8  C   UNL     1     -37.058  40.958 -54.976  1.00  0.00     0.298 C 
HETATM    9  N   UNL     1     -36.240  41.584 -56.131  1.00  0.00    -0.028 N 
HETATM   10  H   UNL     1     -35.640  42.301 -55.666  1.00  0.00     0.287 HD
HETATM   11  C   UNL     1     -35.292  40.545 -56.712  1.00  0.00     0.242 C 
HETATM   12  C   UNL     1     -37.079  42.286 -57.053  1.00  0.00     0.203 C 
HETATM   13  C   UNL     1     -37.353  41.783 -58.259  1.00  0.00     0.037 C 
HETATM   14  C   UNL     1     -36.758  40.550 -58.758  1.00  0.00    -0.026 A 
HETATM   15  C   UNL     1     -35.735  39.936 -58.023  1.00  0.00    -0.016 A 
HETATM   16  C   UNL     1     -37.149  40.025 -59.995  1.00  0.00     0.012 A 
HETATM   17  C   UNL     1     -36.513  38.899 -60.514  1.00  0.00     0.001 A 
HETATM   18  C   UNL     1     -35.471  38.304 -59.811  1.00  0.00     0.001 A 
HETATM   19  C   UNL     1     -35.076  38.825 -58.578  1.00  0.00     0.010 A 
ENDROOT
BRANCH   1  20
HETATM   20  C   UNL     1     -33.876  39.448 -52.131  1.00  0.00     0.045 A 
HETATM   21  C   UNL     1     -33.877  40.513 -51.211  1.00  0.00     0.031 A 
HETATM   22  C   UNL     1     -33.148  40.458 -50.010  1.00  0.00     0.017 A 
HETATM   23  C   UNL     1     -32.393  39.328 -49.699  1.00  0.00     0.009 A 
HETATM   24  C   UNL     1     -32.362  38.269 -50.606  1.00  0.00     0.017 A 
HETATM   25  C   UNL     1     -33.100  38.327 -51.796  1.00  0.00     0.031 A 
BRANCH  23  26
HETATM   26  C   UNL     1     -31.610  39.205 -48.439  1.00  0.00     0.155 C 
HETATM   27  C   UNL     1     -32.237  38.531 -47.249  1.00  0.00     0.096 C 
HETATM   28  O   UNL     1     -30.468  39.658 -48.397  1.00  0.00    -0.293 OA
ENDBRANCH  23  26
ENDBRANCH   1  20
BRANCH   8  29
HETATM   29  C   UNL     1     -36.946  41.907 -53.767  1.00  0.00     0.248 C 
HETATM   30  N   UNL     1     -37.930  41.907 -52.837  1.00  0.00    -0.368 N 
HETATM   31  H   UNL     1     -38.503  41.085 -52.647  1.00  0.00     0.159 HD
HETATM   32  H   UNL     1     -37.787  42.502 -52.022  1.00  0.00     0.159 HD
HETATM   33  O   UNL     1     -35.969  42.654 -53.690  1.00  0.00    -0.271 OA
ENDBRANCH   8  29
TORSDOF 3
ENDMDL
MODEL 5
REMARK VINA RESULT:      -8.3      3.648      5.321
REMARK  3 active torsions:
REMARK  status: ('A' for Active; 'I' for Inactive)
REMARK    1  A    between atoms: C_2  and  C_3 
REMARK    2  A    between atoms: C_6  and  N_7 
REMARK    3  A    between atoms: C_14  and  C_15 
REMARK       I    between atoms: C_15  and  N_16 
ROOT
HETATM    1  N   UNL     1     -43.122  56.231 -52.512  1.00  0.00    -0.252 N 
HETATM    2  C   UNL     1     -43.737  55.216 -53.217  1.00  0.00     0.238 C 
HETATM    3  O   UNL     1     -44.755  55.222 -53.894  1.00  0.00    -0.272 OA
HETATM    4  C   UNL     1     -42.847  54.008 -53.217  1.00  0.00     0.135 C 
HETATM    5  C   UNL     1     -41.905  54.296 -52.077  1.00  0.00     0.130 C 
HETATM    6  C   UNL     1     -41.918  55.791 -51.998  1.00  0.00     0.238 C 
HETATM    7  O   UNL     1     -40.971  56.406 -51.537  1.00  0.00    -0.272 OA
HETATM    8  C   UNL     1     -41.999  53.882 -54.476  1.00  0.00     0.298 C 
HETATM    9  N   UNL     1     -40.542  53.791 -53.962  1.00  0.00    -0.028 N 
HETATM   10  H   UNL     1     -40.116  54.707 -54.225  1.00  0.00     0.287 HD
HETATM   11  C   UNL     1     -40.535  53.737 -52.442  1.00  0.00     0.242 C 
HETATM   12  C   UNL     1     -39.801  52.780 -54.653  1.00  0.00     0.203 C 
HETATM   13  C   UNL     1     -39.496  51.622 -54.061  1.00  0.00     0.037 C 
HETATM   14  C   UNL     1     -39.805  51.338 -52.666  1.00  0.00    -0.026 A 
HETATM   15  C   UNL     1     -40.299  52.365 -51.851  1.00  0.00    -0.016 A 
HETATM   16  C   UNL     1     -39.538  50.075 -52.125  1.00  0.00     0.012 A 
HETATM   17  C   UNL     1     -39.746  49.834 -50.768  1.00  0.00     0.001 A 
HETATM   18  C   UNL     1     -40.201  50.856 -49.943  1.00  0.00     0.001 A 
HETATM   19  C   UNL     1     -40.466  52.118 -50.477  1.00  0.00     0.010 A 
ENDROOT
BRANCH   1  20
HETATM   20  C   UNL     1     -43.614  57.572 -52.408  1.00  0.00     0.045 A 
HETATM   21  C   UNL     1     -44.523  57.950 -51.403  1.00  0.00     0.031 A 
HETATM   22  C   UNL     1     -44.980  59.274 -51.274  1.00  0.00     0.017 A 
HETATM   23  C   UNL     1     -44.537  60.258 -52.156  1.00  0.00     0.009 A 
HETATM   24  C   UNL     1     -43.650  59.901 -53.172  1.00  0.00     0.017 A 
HETATM   25  C   UNL     1     -43.190  58.582 -53.287  1.00  0.00     0.031 A 
BRANCH  23  26
HETATM   26  C   UNL     1     -44.975  61.677 -52.065  1.00  0.00     0.155 C 
HETATM   27  C   UNL     1     -46.074  62.046 -51.105  1.00  0.00     0.096 C 
HETATM   28  O   UNL     1     -44.431  62.519 -52.776  1.00  0.00    -0.293 OA
ENDBRANCH  23  26
ENDBRANCH   1  20
BRANCH   8  29
HETATM   29  C   UNL     1     -42.062  55.055 -55.474  1.00  0.00     0.248 C 
HETATM   30  N   UNL     1     -42.996  55.034 -56.454  1.00  0.00    -0.368 N 
HETATM   31  H   UNL     1     -43.888  54.551 -56.350  1.00  0.00     0.159 HD
HETATM   32  H   UNL     1     -43.046  55.857 -57.053  1.00  0.00     0.159 HD
HETATM   33  O   UNL     1     -41.247  55.971 -55.362  1.00  0.00    -0.271 OA
ENDBRANCH   8  29
TORSDOF 3
ENDMDL
MODEL 6
REMARK VINA RESULT:      -8.3      2.894      7.857
REMARK  3 active torsions:
REMARK  status: ('A' for Active; 'I' for Inactive)
REMARK    1  A    between atoms: C_2  and  C_3 
REMARK    2  A    between atoms: C_6  and  N_7 
REMARK    3  A    between atoms: C_14  and  C_15 
REMARK       I    between atoms: C_15  and  N_16 
ROOT
HETATM    1  N   UNL     1     -41.913  55.343 -53.906  1.00  0.00    -0.252 N 
HETATM    2  C   UNL     1     -43.273  55.574 -53.935  1.00  0.00     0.238 C 
HETATM    3  O   UNL     1     -44.212  54.829 -53.696  1.00  0.00    -0.272 OA
HETATM    4  C   UNL     1     -43.518  57.040 -54.143  1.00  0.00     0.135 C 
HETATM    5  C   UNL     1     -42.193  57.520 -54.676  1.00  0.00     0.130 C 
HETATM    6  C   UNL     1     -41.225  56.520 -54.125  1.00  0.00     0.238 C 
HETATM    7  O   UNL     1     -40.054  56.808 -53.945  1.00  0.00    -0.272 OA
HETATM    8  C   UNL     1     -43.779  57.799 -52.848  1.00  0.00     0.298 C 
HETATM    9  N   UNL     1     -42.729  58.935 -52.838  1.00  0.00    -0.028 N 
HETATM   10  H   UNL     1     -42.052  58.657 -52.092  1.00  0.00     0.287 HD
HETATM   11  C   UNL     1     -41.951  58.929 -54.145  1.00  0.00     0.242 C 
HETATM   12  C   UNL     1     -43.302  60.180 -52.428  1.00  0.00     0.203 C 
HETATM   13  C   UNL     1     -43.536  61.156 -53.309  1.00  0.00     0.037 C 
HETATM   14  C   UNL     1     -43.149  61.068 -54.711  1.00  0.00    -0.026 A 
HETATM   15  C   UNL     1     -42.359  59.994 -55.138  1.00  0.00    -0.016 A 
HETATM   16  C   UNL     1     -43.498  62.087 -55.606  1.00  0.00     0.012 A 
HETATM   17  C   UNL     1     -43.047  62.048 -56.925  1.00  0.00     0.001 A 
HETATM   18  C   UNL     1     -42.231  61.005 -57.349  1.00  0.00     0.001 A 
HETATM   19  C   UNL     1     -41.879  59.989 -56.460  1.00  0.00     0.010 A 
ENDROOT
BRANCH   1  20
HETATM   20  C   UNL     1     -41.302  54.084 -53.599  1.00  0.00     0.045 A 
HETATM   21  C   UNL     1     -40.848  53.780 -52.302  1.00  0.00     0.031 A 
HETATM   22  C   UNL     1     -40.282  52.531 -51.988  1.00  0.00     0.017 A 
HETATM   23  C   UNL     1     -40.153  51.552 -52.970  1.00  0.00     0.009 A 
HETATM   24  C   UNL     1     -40.579  51.839 -54.267  1.00  0.00     0.017 A 
HETATM   25  C   UNL     1     -41.153  53.081 -54.571  1.00  0.00     0.031 A 
BRANCH  23  26
HETATM   26  C   UNL     1     -39.574  50.208 -52.697  1.00  0.00     0.155 C 
HETATM   27  C   UNL     1     -39.303  49.802 -51.273  1.00  0.00     0.096 C 
HETATM   28  O   UNL     1     -39.327  49.459 -53.639  1.00  0.00    -0.293 OA
ENDBRANCH  23  26
ENDBRANCH   1  20
BRANCH   8  29
HETATM   29  C   UNL     1     -43.613  57.007 -51.536  1.00  0.00     0.248 C 
HETATM   30  N   UNL     1     -44.679  56.344 -51.029  1.00  0.00    -0.368 N 
HETATM   31  H   UNL     1     -45.432  55.987 -51.617  1.00  0.00     0.159 HD
HETATM   32  H   UNL     1     -44.511  55.782 -50.196  1.00  0.00     0.159 HD
HETATM   33  O   UNL     1     -42.517  57.016 -50.975  1.00  0.00    -0.271 OA
ENDBRANCH   8  29
TORSDOF 3
ENDMDL
MODEL 7
REMARK VINA RESULT:      -8.1      3.051      5.040
REMARK  3 active torsions:
REMARK  status: ('A' for Active; 'I' for Inactive)
REMARK    1  A    between atoms: C_2  and  C_3 
REMARK    2  A    between atoms: C_6  and  N_7 
REMARK    3  A    between atoms: C_14  and  C_15 
REMARK       I    between atoms: C_15  and  N_16 
ROOT
HETATM    1  N   UNL     1     -43.276  57.515 -52.821  1.00  0.00    -0.252 N 
HETATM    2  C   UNL     1     -43.991  56.506 -53.436  1.00  0.00     0.238 C 
HETATM    3  O   UNL     1     -45.075  56.530 -54.000  1.00  0.00    -0.272 OA
HETATM    4  C   UNL     1     -43.139  55.273 -53.506  1.00  0.00     0.135 C 
HETATM    5  C   UNL     1     -42.073  55.554 -52.480  1.00  0.00     0.130 C 
HETATM    6  C   UNL     1     -42.037  57.050 -52.431  1.00  0.00     0.238 C 
HETATM    7  O   UNL     1     -41.029  57.645 -52.087  1.00  0.00    -0.272 OA
HETATM    8  C   UNL     1     -42.435  55.100 -54.846  1.00  0.00     0.298 C 
HETATM    9  N   UNL     1     -40.934  54.976 -54.490  1.00  0.00    -0.028 N 
HETATM   10  H   UNL     1     -40.514  55.875 -54.816  1.00  0.00     0.287 HD
HETATM   11  C   UNL     1     -40.765  54.949 -52.978  1.00  0.00     0.242 C 
HETATM   12  C   UNL     1     -40.299  53.933 -55.235  1.00  0.00     0.203 C 
HETATM   13  C   UNL     1     -39.964  52.777 -54.656  1.00  0.00     0.037 C 
HETATM   14  C   UNL     1     -40.128  52.527 -53.230  1.00  0.00    -0.026 A 
HETATM   15  C   UNL     1     -40.504  53.581 -52.388  1.00  0.00    -0.016 A 
HETATM   16  C   UNL     1     -39.839  51.266 -52.695  1.00  0.00     0.012 A 
HETATM   17  C   UNL     1     -39.906  51.054 -51.319  1.00  0.00     0.001 A 
HETATM   18  C   UNL     1     -40.242  52.104 -50.470  1.00  0.00     0.001 A 
HETATM   19  C   UNL     1     -40.529  53.363 -50.999  1.00  0.00     0.010 A 
ENDROOT
BRANCH   1  20
HETATM   20  C   UNL     1     -43.718  58.872 -52.693  1.00  0.00     0.045 A 
HETATM   21  C   UNL     1     -43.391  59.849 -53.651  1.00  0.00     0.031 A 
HETATM   22  C   UNL     1     -43.853  61.173 -53.549  1.00  0.00     0.017 A 
HETATM   23  C   UNL     1     -44.658  61.554 -52.477  1.00  0.00     0.009 A 
HETATM   24  C   UNL     1     -44.979  60.607 -51.506  1.00  0.00     0.017 A 
HETATM   25  C   UNL     1     -44.524  59.286 -51.620  1.00  0.00     0.031 A 
BRANCH  23  26
HETATM   26  C   UNL     1     -45.188  62.937 -52.320  1.00  0.00     0.155 C 
HETATM   27  C   UNL     1     -46.096  63.247 -51.160  1.00  0.00     0.096 C 
HETATM   28  O   UNL     1     -44.874  63.796 -53.140  1.00  0.00    -0.293 OA
ENDBRANCH  23  26
ENDBRANCH   1  20
BRANCH   8  29
HETATM   29  C   UNL     1     -42.574  56.257 -55.856  1.00  0.00     0.248 C 
HETATM   30  N   UNL     1     -43.581  56.223 -56.760  1.00  0.00    -0.368 N 
HETATM   31  H   UNL     1     -44.463  55.744 -56.579  1.00  0.00     0.159 HD
HETATM   32  H   UNL     1     -43.676  57.036 -57.366  1.00  0.00     0.159 HD
HETATM   33  O   UNL     1     -41.751  57.172 -55.823  1.00  0.00    -0.271 OA
ENDBRANCH   8  29
TORSDOF 3
ENDMDL
MODEL 8
REMARK VINA RESULT:      -8.1      3.261      8.128
REMARK  3 active torsions:
REMARK  status: ('A' for Active; 'I' for Inactive)
REMARK    1  A    between atoms: C_2  and  C_3 
REMARK    2  A    between atoms: C_6  and  N_7 
REMARK    3  A    between atoms: C_14  and  C_15 
REMARK       I    between atoms: C_15  and  N_16 
ROOT
HETATM    1  N   UNL     1     -42.085  56.700 -52.026  1.00  0.00    -0.252 N 
HETATM    2  C   UNL     1     -41.561  57.874 -52.530  1.00  0.00     0.238 C 
HETATM    3  O   UNL     1     -40.530  58.081 -53.153  1.00  0.00    -0.272 OA
HETATM    4  C   UNL     1     -42.575  58.970 -52.376  1.00  0.00     0.135 C 
HETATM    5  C   UNL     1     -43.512  58.404 -51.340  1.00  0.00     0.130 C 
HETATM    6  C   UNL     1     -43.343  56.926 -51.503  1.00  0.00     0.238 C 
HETATM    7  O   UNL     1     -44.231  56.151 -51.190  1.00  0.00    -0.272 OA
HETATM    8  C   UNL     1     -43.396  59.216 -53.635  1.00  0.00     0.298 C 
HETATM    9  N   UNL     1     -44.868  59.075 -53.179  1.00  0.00    -0.028 N 
HETATM   10  H   UNL     1     -45.187  58.177 -53.606  1.00  0.00     0.287 HD
HETATM   11  C   UNL     1     -44.923  58.876 -51.672  1.00  0.00     0.242 C 
HETATM   12  C   UNL     1     -45.693  60.106 -53.731  1.00  0.00     0.203 C 
HETATM   13  C   UNL     1     -46.136  61.114 -52.975  1.00  0.00     0.037 C 
HETATM   14  C   UNL     1     -45.898  61.193 -51.539  1.00  0.00    -0.026 A 
HETATM   15  C   UNL     1     -45.320  60.101 -50.879  1.00  0.00    -0.016 A 
HETATM   16  C   UNL     1     -46.312  62.317 -50.815  1.00  0.00     0.012 A 
HETATM   17  C   UNL     1     -46.169  62.351 -49.429  1.00  0.00     0.001 A 
HETATM   18  C   UNL     1     -45.631  61.258 -48.759  1.00  0.00     0.001 A 
HETATM   19  C   UNL     1     -45.219  60.134 -49.477  1.00  0.00     0.010 A 
ENDROOT
BRANCH   1  20
HETATM   20  C   UNL     1     -41.456  55.416 -52.117  1.00  0.00     0.045 A 
HETATM   21  C   UNL     1     -40.892  54.788 -50.992  1.00  0.00     0.031 A 
HETATM   22  C   UNL     1     -40.307  53.512 -51.070  1.00  0.00     0.017 A 
HETATM   23  C   UNL     1     -40.270  52.829 -52.285  1.00  0.00     0.009 A 
HETATM   24  C   UNL     1     -40.807  53.441 -53.417  1.00  0.00     0.017 A 
HETATM   25  C   UNL     1     -41.399  54.709 -53.329  1.00  0.00     0.031 A 
BRANCH  23  26
HETATM   26  C   UNL     1     -39.676  51.472 -52.428  1.00  0.00     0.155 C 
HETATM   27  C   UNL     1     -39.513  50.884 -53.804  1.00  0.00     0.096 C 
HETATM   28  O   UNL     1     -39.331  50.859 -51.421  1.00  0.00    -0.293 OA
ENDBRANCH  23  26
ENDBRANCH   1  20
BRANCH   8  29
HETATM   29  C   UNL     1     -43.180  58.236 -54.805  1.00  0.00     0.248 C 
HETATM   30  N   UNL     1     -42.239  58.520 -55.736  1.00  0.00    -0.368 N 
HETATM   31  H   UNL     1     -41.411  59.077 -55.524  1.00  0.00     0.159 HD
HETATM   32  H   UNL     1     -42.084  57.817 -56.456  1.00  0.00     0.159 HD
HETATM   33  O   UNL     1     -43.886  57.229 -54.870  1.00  0.00    -0.271 OA
ENDBRANCH   8  29
TORSDOF 3
ENDMDL
MODEL 9
REMARK VINA RESULT:      -8.0      2.730      7.873
REMARK  3 active torsions:
REMARK  status: ('A' for Active; 'I' for Inactive)
REMARK    1  A    between atoms: C_2  and  C_3 
REMARK    2  A    between atoms: C_6  and  N_7 
REMARK    3  A    between atoms: C_14  and  C_15 
REMARK       I    between atoms: C_15  and  N_16 
ROOT
HETATM    1  N   UNL     1     -42.561  55.769 -53.489  1.00  0.00    -0.252 N 
HETATM    2  C   UNL     1     -43.340  56.312 -52.487  1.00  0.00     0.238 C 
HETATM    3  O   UNL     1     -43.581  55.907 -51.359  1.00  0.00    -0.272 OA
HETATM    4  C   UNL     1     -43.776  57.689 -52.896  1.00  0.00     0.135 C 
HETATM    5  C   UNL     1     -43.549  57.674 -54.385  1.00  0.00     0.130 C 
HETATM    6  C   UNL     1     -42.477  56.644 -54.554  1.00  0.00     0.238 C 
HETATM    7  O   UNL     1     -41.720  56.672 -55.510  1.00  0.00    -0.272 OA
HETATM    8  C   UNL     1     -42.900  58.795 -52.322  1.00  0.00     0.298 C 
HETATM    9  N   UNL     1     -42.425  59.602 -53.554  1.00  0.00    -0.028 N 
HETATM   10  H   UNL     1     -41.412  59.368 -53.643  1.00  0.00     0.287 HD
HETATM   11  C   UNL     1     -43.099  59.068 -54.809  1.00  0.00     0.242 C 
HETATM   12  C   UNL     1     -42.502  61.012 -53.323  1.00  0.00     0.203 C 
HETATM   13  C   UNL     1     -43.452  61.755 -53.896  1.00  0.00     0.037 C 
HETATM   14  C   UNL     1     -44.410  61.217 -54.855  1.00  0.00    -0.026 A 
HETATM   15  C   UNL     1     -44.245  59.908 -55.327  1.00  0.00    -0.016 A 
HETATM   16  C   UNL     1     -45.437  62.024 -55.356  1.00  0.00     0.012 A 
HETATM   17  C   UNL     1     -46.294  61.538 -56.342  1.00  0.00     0.001 A 
HETATM   18  C   UNL     1     -46.117  60.253 -56.845  1.00  0.00     0.001 A 
HETATM   19  C   UNL     1     -45.092  59.446 -56.350  1.00  0.00     0.010 A 
ENDROOT
BRANCH   1  20
HETATM   20  C   UNL     1     -41.863  54.521 -53.399  1.00  0.00     0.045 A 
HETATM   21  C   UNL     1     -41.983  53.534 -54.394  1.00  0.00     0.031 A 
HETATM   22  C   UNL     1     -41.270  52.323 -54.328  1.00  0.00     0.017 A 
HETATM   23  C   UNL     1     -40.416  52.069 -53.257  1.00  0.00     0.009 A 
HETATM   24  C   UNL     1     -40.297  53.026 -52.249  1.00  0.00     0.017 A 
HETATM   25  C   UNL     1     -41.002  54.235 -52.327  1.00  0.00     0.031 A 
BRANCH  23  26
HETATM   26  C   UNL     1     -39.627  50.812 -53.136  1.00  0.00     0.155 C 
HETATM   27  C   UNL     1     -39.485  49.917 -54.338  1.00  0.00     0.096 C 
HETATM   28  O   UNL     1     -39.109  50.531 -52.058  1.00  0.00    -0.293 OA
ENDBRANCH  23  26
ENDBRANCH   1  20
BRANCH   8  29
HETATM   29  C   UNL     1     -41.642  58.352 -51.549  1.00  0.00     0.248 C 
HETATM   30  N   UNL     1     -41.734  58.124 -50.217  1.00  0.00    -0.368 N 
HETATM   31  H   UNL     1     -42.602  57.824 -49.773  1.00  0.00     0.159 HD
HETATM   32  H   UNL     1     -40.897  57.772 -49.757  1.00  0.00     0.159 HD
HETATM   33  O   UNL     1     -40.581  58.236 -52.164  1.00  0.00    -0.271 OA
ENDBRANCH   8  29
TORSDOF 3
ENDMDL
MODEL 10
REMARK VINA RESULT:      -7.8     16.916     18.961
REMARK  3 active torsions:
REMARK  status: ('A' for Active; 'I' for Inactive)
REMARK    1  A    between atoms: C_2  and  C_3 
REMARK    2  A    between atoms: C_6  and  N_7 
REMARK    3  A    between atoms: C_14  and  C_15 
REMARK       I    between atoms: C_15  and  N_16 
ROOT
HETATM    1  N   UNL     1     -35.187  39.527 -54.412  1.00  0.00    -0.252 N 
HETATM    2  C   UNL     1     -34.416  38.390 -54.273  1.00  0.00     0.238 C 
HETATM    3  O   UNL     1     -33.977  37.620 -55.115  1.00  0.00    -0.272 OA
HETATM    4  C   UNL     1     -33.972  38.269 -52.845  1.00  0.00     0.135 C 
HETATM    5  C   UNL     1     -34.933  39.180 -52.126  1.00  0.00     0.130 C 
HETATM    6  C   UNL     1     -35.338  40.152 -53.190  1.00  0.00     0.238 C 
HETATM    7  O   UNL     1     -35.721  41.275 -52.906  1.00  0.00    -0.272 OA
HETATM    8  C   UNL     1     -32.571  38.815 -52.600  1.00  0.00     0.298 C 
HETATM    9  N   UNL     1     -32.747  39.860 -51.472  1.00  0.00    -0.028 N 
HETATM   10  H   UNL     1     -32.610  40.780 -51.946  1.00  0.00     0.287 HD
HETATM   11  C   UNL     1     -34.185  39.844 -50.976  1.00  0.00     0.242 C 
HETATM   12  C   UNL     1     -31.716  39.749 -50.485  1.00  0.00     0.203 C 
HETATM   13  C   UNL     1     -31.965  39.226 -49.282  1.00  0.00     0.037 C 
HETATM   14  C   UNL     1     -33.298  38.819 -48.854  1.00  0.00    -0.026 A 
HETATM   15  C   UNL     1     -34.401  39.127 -49.661  1.00  0.00    -0.016 A 
HETATM   16  C   UNL     1     -33.484  38.197 -47.614  1.00  0.00     0.012 A 
HETATM   17  C   UNL     1     -34.768  37.894 -47.165  1.00  0.00     0.001 A 
HETATM   18  C   UNL     1     -35.872  38.229 -47.942  1.00  0.00     0.001 A 
HETATM   19  C   UNL     1     -35.692  38.852 -49.178  1.00  0.00     0.010 A 
ENDROOT
BRANCH   1  20
HETATM   20  C   UNL     1     -35.680  40.037 -55.657  1.00  0.00     0.045 A 
HETATM   21  C   UNL     1     -34.986  41.028 -56.376  1.00  0.00     0.031 A 
HETATM   22  C   UNL     1     -35.446  41.504 -57.616  1.00  0.00     0.017 A 
HETATM   23  C   UNL     1     -36.620  40.998 -58.171  1.00  0.00     0.009 A 
HETATM   24  C   UNL     1     -37.334  40.029 -57.466  1.00  0.00     0.017 A 
HETATM   25  C   UNL     1     -36.864  39.551 -56.235  1.00  0.00     0.031 A 
BRANCH  23  26
HETATM   26  C   UNL     1     -37.152  41.453 -59.484  1.00  0.00     0.155 C 
HETATM   27  C   UNL     1     -37.471  40.430 -60.541  1.00  0.00     0.096 C 
HETATM   28  O   UNL     1     -37.319  42.655 -59.680  1.00  0.00    -0.293 OA
ENDBRANCH  23  26
ENDBRANCH   1  20
BRANCH   8  29
HETATM   29  C   UNL     1     -31.888  39.527 -53.784  1.00  0.00     0.248 C 
HETATM   30  N   UNL     1     -31.169  38.793 -54.667  1.00  0.00    -0.368 N 
HETATM   31  H   UNL     1     -31.372  37.812 -54.855  1.00  0.00     0.159 HD
HETATM   32  H   UNL     1     -30.788  39.292 -55.469  1.00  0.00     0.159 HD
HETATM   33  O   UNL     1     -32.000  40.749 -53.883  1.00  0.00    -0.271 OA
ENDBRANCH   8  29
TORSDOF 3
ENDMDL
