MODEL 1
REMARK VINA RESULT:      -8.7      0.000      0.000
REMARK  2 active torsions:
REMARK  status: ('A' for Active; 'I' for Inactive)
REMARK    1  A    between atoms: C_4  and  C_5 
REMARK       I    between atoms: C_5  and  N_6 
REMARK    2  A    between atoms: N_6  and  N_7 
ROOT
HETATM    1  N   UNL     1     -41.003  55.485 -51.690  1.00  0.00    -0.282 N 
HETATM    2  C   UNL     1     -41.688  56.489 -52.228  1.00  0.00     0.127 C 
HETATM    3  C   UNL     1     -41.688  57.811 -51.545  1.00  0.00     0.015 A 
HETATM    4  C   UNL     1     -42.732  58.717 -51.821  1.00  0.00    -0.042 A 
HETATM    5  C   UNL     1     -42.795  59.956 -51.173  1.00  0.00     0.008 A 
HETATM    6  C   UNL     1     -41.798  60.321 -50.274  1.00  0.00     0.001 A 
HETATM    7  C   UNL     1     -40.739  59.455 -50.020  1.00  0.00     0.001 A 
HETATM    8  C   UNL     1     -40.681  58.209 -50.651  1.00  0.00     0.016 A 
HETATM    9  C   UNL     1     -43.799  58.312 -52.806  1.00  0.00     0.070 C 
HETATM   10  C   UNL     1     -43.196  57.463 -53.937  1.00  0.00     0.035 C 
HETATM   11  C   UNL     1     -44.296  56.856 -54.836  1.00  0.00     0.031 C 
HETATM   12  C   UNL     1     -44.102  57.493 -56.207  1.00  0.00     0.002 C 
HETATM   13  C   UNL     1     -42.607  57.739 -56.278  1.00  0.00     0.002 C 
HETATM   14  C   UNL     1     -42.283  58.265 -54.887  1.00  0.00     0.031 C 
HETATM   15  N   UNL     1     -42.397  56.349 -53.349  1.00  0.00    -0.365 N 
HETATM   16  H   UNL     1     -42.384  55.458 -53.815  1.00  0.00     0.162 HD
HETATM   17  H   UNL     1     -40.551  55.663 -50.785  1.00  0.00     0.188 HD
ENDROOT
BRANCH   1  18
HETATM   18  N   UNL     1     -40.863  54.243 -52.147  1.00  0.00    -0.264 N 
HETATM   19  C   UNL     1     -40.062  53.418 -51.367  1.00  0.00     0.270 C 
HETATM   20  O   UNL     1     -39.554  53.840 -50.330  1.00  0.00    -0.266 OA
HETATM   21  H   UNL     1     -41.368  53.895 -52.952  1.00  0.00     0.190 HD
BRANCH  19  22
HETATM   22  C   UNL     1     -39.895  52.014 -51.812  1.00  0.00     0.033 A 
HETATM   23  C   UNL     1     -39.827  50.947 -50.906  1.00  0.00     0.017 A 
HETATM   24  C   UNL     1     -39.663  49.644 -51.380  1.00  0.00     0.001 A 
HETATM   25  C   UNL     1     -39.574  49.402 -52.753  1.00  0.00     0.000 A 
HETATM   26  C   UNL     1     -39.659  50.461 -53.656  1.00  0.00     0.001 A 
HETATM   27  C   UNL     1     -39.825  51.765 -53.189  1.00  0.00     0.017 A 
ENDBRANCH  19  22
ENDBRANCH   1  18
TORSDOF 2
ENDMDL
MODEL 2
REMARK VINA RESULT:      -8.6      2.406      3.539
REMARK  2 active torsions:
REMARK  status: ('A' for Active; 'I' for Inactive)
REMARK    1  A    between atoms: C_4  and  C_5 
REMARK       I    between atoms: C_5  and  N_6 
REMARK    2  A    between atoms: N_6  and  N_7 
ROOT
HETATM    1  N   UNL     1     -41.433  56.063 -54.633  1.00  0.00    -0.282 N 
HETATM    2  C   UNL     1     -42.067  56.734 -55.588  1.00  0.00     0.127 C 
HETATM    3  C   UNL     1     -42.419  58.161 -55.355  1.00  0.00     0.015 A 
HETATM    4  C   UNL     1     -43.455  58.736 -56.119  1.00  0.00    -0.042 A 
HETATM    5  C   UNL     1     -43.849  60.063 -55.907  1.00  0.00     0.008 A 
HETATM    6  C   UNL     1     -43.189  60.841 -54.960  1.00  0.00     0.001 A 
HETATM    7  C   UNL     1     -42.139  60.299 -54.225  1.00  0.00     0.001 A 
HETATM    8  C   UNL     1     -41.753  58.970 -54.420  1.00  0.00     0.016 A 
HETATM    9  C   UNL     1     -44.153  57.885 -57.148  1.00  0.00     0.070 C 
HETATM   10  C   UNL     1     -43.162  56.910 -57.805  1.00  0.00     0.035 C 
HETATM   11  C   UNL     1     -43.889  55.884 -58.701  1.00  0.00     0.031 C 
HETATM   12  C   UNL     1     -43.411  56.168 -60.120  1.00  0.00     0.002 C 
HETATM   13  C   UNL     1     -41.997  56.680 -59.925  1.00  0.00     0.002 C 
HETATM   14  C   UNL     1     -42.133  57.603 -58.722  1.00  0.00     0.031 C 
HETATM   15  N   UNL     1     -42.419  56.170 -56.744  1.00  0.00    -0.365 N 
HETATM   16  H   UNL     1     -42.167  55.209 -56.903  1.00  0.00     0.162 HD
HETATM   17  H   UNL     1     -41.271  56.556 -53.746  1.00  0.00     0.188 HD
ENDROOT
BRANCH   1  18
HETATM   18  N   UNL     1     -41.017  54.798 -54.649  1.00  0.00    -0.264 N 
HETATM   19  C   UNL     1     -40.864  54.215 -53.397  1.00  0.00     0.270 C 
HETATM   20  O   UNL     1     -41.119  54.850 -52.376  1.00  0.00    -0.266 OA
HETATM   21  H   UNL     1     -40.904  54.270 -55.504  1.00  0.00     0.190 HD
BRANCH  19  22
HETATM   22  C   UNL     1     -40.431  52.798 -53.356  1.00  0.00     0.033 A 
HETATM   23  C   UNL     1     -40.503  51.963 -54.479  1.00  0.00     0.017 A 
HETATM   24  C   UNL     1     -40.087  50.633 -54.382  1.00  0.00     0.001 A 
HETATM   25  C   UNL     1     -39.593  50.138 -53.173  1.00  0.00     0.000 A 
HETATM   26  C   UNL     1     -39.504  50.973 -52.060  1.00  0.00     0.001 A 
HETATM   27  C   UNL     1     -39.915  52.302 -52.151  1.00  0.00     0.017 A 
ENDBRANCH  19  22
ENDBRANCH   1  18
TORSDOF 2
ENDMDL
MODEL 3
REMARK VINA RESULT:      -8.4      2.502      6.431
REMARK  2 active torsions:
REMARK  status: ('A' for Active; 'I' for Inactive)
REMARK    1  A    between atoms: C_4  and  C_5 
REMARK       I    between atoms: C_5  and  N_6 
REMARK    2  A    between atoms: N_6  and  N_7 
ROOT
HETATM    1  N   UNL     1     -41.326  55.081 -54.614  1.00  0.00    -0.282 N 
HETATM    2  C   UNL     1     -41.442  55.532 -53.370  1.00  0.00     0.127 C 
HETATM    3  C   UNL     1     -41.098  54.627 -52.239  1.00  0.00     0.015 A 
HETATM    4  C   UNL     1     -41.633  54.903 -50.964  1.00  0.00    -0.042 A 
HETATM    5  C   UNL     1     -41.369  54.057 -49.880  1.00  0.00     0.008 A 
HETATM    6  C   UNL     1     -40.539  52.953 -50.045  1.00  0.00     0.001 A 
HETATM    7  C   UNL     1     -39.971  52.690 -51.288  1.00  0.00     0.001 A 
HETATM    8  C   UNL     1     -40.245  53.520 -52.379  1.00  0.00     0.016 A 
HETATM    9  C   UNL     1     -42.522  56.108 -50.798  1.00  0.00     0.070 C 
HETATM   10  C   UNL     1     -42.044  57.260 -51.698  1.00  0.00     0.035 C 
HETATM   11  C   UNL     1     -43.057  58.425 -51.710  1.00  0.00     0.031 C 
HETATM   12  C   UNL     1     -42.333  59.604 -51.070  1.00  0.00     0.002 C 
HETATM   13  C   UNL     1     -40.882  59.379 -51.447  1.00  0.00     0.002 C 
HETATM   14  C   UNL     1     -40.707  57.881 -51.244  1.00  0.00     0.031 C 
HETATM   15  N   UNL     1     -41.878  56.762 -53.094  1.00  0.00    -0.365 N 
HETATM   16  H   UNL     1     -42.097  57.375 -53.861  1.00  0.00     0.162 HD
HETATM   17  H   UNL     1     -41.058  54.096 -54.729  1.00  0.00     0.188 HD
ENDROOT
BRANCH   1  18
HETATM   18  N   UNL     1     -41.565  55.728 -55.753  1.00  0.00    -0.264 N 
HETATM   19  C   UNL     1     -42.618  55.224 -56.504  1.00  0.00     0.270 C 
HETATM   20  O   UNL     1     -43.267  54.260 -56.103  1.00  0.00    -0.266 OA
HETATM   21  H   UNL     1     -41.076  56.575 -56.014  1.00  0.00     0.190 HD
BRANCH  19  22
HETATM   22  C   UNL     1     -42.948  55.924 -57.769  1.00  0.00     0.033 A 
HETATM   23  C   UNL     1     -43.595  55.279 -58.832  1.00  0.00     0.017 A 
HETATM   24  C   UNL     1     -43.877  55.986 -60.003  1.00  0.00     0.001 A 
HETATM   25  C   UNL     1     -43.523  57.332 -60.113  1.00  0.00     0.000 A 
HETATM   26  C   UNL     1     -42.895  57.979 -59.050  1.00  0.00     0.001 A 
HETATM   27  C   UNL     1     -42.613  57.280 -57.876  1.00  0.00     0.017 A 
ENDBRANCH  19  22
ENDBRANCH   1  18
TORSDOF 2
ENDMDL
MODEL 4
REMARK VINA RESULT:      -8.4      2.650      6.769
REMARK  2 active torsions:
REMARK  status: ('A' for Active; 'I' for Inactive)
REMARK    1  A    between atoms: C_4  and  C_5 
REMARK       I    between atoms: C_5  and  N_6 
REMARK    2  A    between atoms: N_6  and  N_7 
ROOT
HETATM    1  N   UNL     1     -42.666  53.932 -55.129  1.00  0.00    -0.282 N 
HETATM    2  C   UNL     1     -42.505  54.419 -53.903  1.00  0.00     0.127 C 
HETATM    3  C   UNL     1     -41.640  53.682 -52.942  1.00  0.00     0.015 A 
HETATM    4  C   UNL     1     -41.817  53.906 -51.562  1.00  0.00    -0.042 A 
HETATM    5  C   UNL     1     -41.054  53.206 -50.619  1.00  0.00     0.008 A 
HETATM    6  C   UNL     1     -40.081  52.305 -51.043  1.00  0.00     0.001 A 
HETATM    7  C   UNL     1     -39.868  52.101 -52.403  1.00  0.00     0.001 A 
HETATM    8  C   UNL     1     -40.638  52.785 -53.348  1.00  0.00     0.016 A 
HETATM    9  C   UNL     1     -42.866  54.892 -51.118  1.00  0.00     0.070 C 
HETATM   10  C   UNL     1     -42.957  56.066 -52.107  1.00  0.00     0.035 C 
HETATM   11  C   UNL     1     -44.167  56.975 -51.796  1.00  0.00     0.031 C 
HETATM   12  C   UNL     1     -43.575  58.321 -51.394  1.00  0.00     0.002 C 
HETATM   13  C   UNL     1     -42.291  58.401 -52.198  1.00  0.00     0.002 C 
HETATM   14  C   UNL     1     -41.725  56.994 -52.075  1.00  0.00     0.031 C 
HETATM   15  N   UNL     1     -43.107  55.536 -53.493  1.00  0.00    -0.365 N 
HETATM   16  H   UNL     1     -43.680  56.039 -54.150  1.00  0.00     0.162 HD
HETATM   17  H   UNL     1     -42.227  53.026 -55.332  1.00  0.00     0.188 HD
ENDROOT
BRANCH   1  18
HETATM   18  N   UNL     1     -43.377  54.442 -56.133  1.00  0.00    -0.264 N 
HETATM   19  C   UNL     1     -42.810  55.551 -56.748  1.00  0.00     0.270 C 
HETATM   20  O   UNL     1     -41.724  55.988 -56.372  1.00  0.00    -0.266 OA
HETATM   21  H   UNL     1     -44.221  54.008 -56.482  1.00  0.00     0.190 HD
BRANCH  19  22
HETATM   22  C   UNL     1     -43.544  56.143 -57.892  1.00  0.00     0.033 A 
HETATM   23  C   UNL     1     -44.204  57.376 -57.798  1.00  0.00     0.017 A 
HETATM   24  C   UNL     1     -44.885  57.884 -58.907  1.00  0.00     0.001 A 
HETATM   25  C   UNL     1     -44.903  57.171 -60.107  1.00  0.00     0.000 A 
HETATM   26  C   UNL     1     -44.232  55.954 -60.207  1.00  0.00     0.001 A 
HETATM   27  C   UNL     1     -43.548  55.441 -59.105  1.00  0.00     0.017 A 
ENDBRANCH  19  22
ENDBRANCH   1  18
TORSDOF 2
ENDMDL
MODEL 5
REMARK VINA RESULT:      -8.3      2.242      4.855
REMARK  2 active torsions:
REMARK  status: ('A' for Active; 'I' for Inactive)
REMARK    1  A    between atoms: C_4  and  C_5 
REMARK       I    between atoms: C_5  and  N_6 
REMARK    2  A    between atoms: N_6  and  N_7 
ROOT
HETATM    1  N   UNL     1     -41.734  55.619 -56.232  1.00  0.00    -0.282 N 
HETATM    2  C   UNL     1     -42.172  56.847 -55.976  1.00  0.00     0.127 C 
HETATM    3  C   UNL     1     -43.025  57.533 -56.984  1.00  0.00     0.015 A 
HETATM    4  C   UNL     1     -43.110  58.940 -56.954  1.00  0.00    -0.042 A 
HETATM    5  C   UNL     1     -43.868  59.632 -57.906  1.00  0.00     0.008 A 
HETATM    6  C   UNL     1     -44.580  58.927 -58.873  1.00  0.00     0.001 A 
HETATM    7  C   UNL     1     -44.537  57.537 -58.892  1.00  0.00     0.001 A 
HETATM    8  C   UNL     1     -43.768  56.842 -57.955  1.00  0.00     0.016 A 
HETATM    9  C   UNL     1     -42.343  59.689 -55.895  1.00  0.00     0.070 C 
HETATM   10  C   UNL     1     -42.317  58.890 -54.581  1.00  0.00     0.035 C 
HETATM   11  C   UNL     1     -41.359  59.528 -53.551  1.00  0.00     0.031 C 
HETATM   12  C   UNL     1     -42.244  59.985 -52.397  1.00  0.00     0.002 C 
HETATM   13  C   UNL     1     -43.379  58.979 -52.397  1.00  0.00     0.002 C 
HETATM   14  C   UNL     1     -43.688  58.816 -53.879  1.00  0.00     0.031 C 
HETATM   15  N   UNL     1     -41.857  57.498 -54.856  1.00  0.00    -0.365 N 
HETATM   16  H   UNL     1     -41.291  57.026 -54.171  1.00  0.00     0.162 HD
HETATM   17  H   UNL     1     -41.962  55.226 -57.154  1.00  0.00     0.188 HD
ENDROOT
BRANCH   1  18
HETATM   18  N   UNL     1     -40.982  54.833 -55.464  1.00  0.00    -0.264 N 
HETATM   19  C   UNL     1     -41.688  53.932 -54.679  1.00  0.00     0.270 C 
HETATM   20  O   UNL     1     -42.915  53.884 -54.731  1.00  0.00    -0.266 OA
HETATM   21  H   UNL     1     -39.971  54.829 -55.510  1.00  0.00     0.190 HD
BRANCH  19  22
HETATM   22  C   UNL     1     -40.900  53.011 -53.825  1.00  0.00     0.033 A 
HETATM   23  C   UNL     1     -40.289  51.858 -54.336  1.00  0.00     0.017 A 
HETATM   24  C   UNL     1     -39.562  51.023 -53.485  1.00  0.00     0.001 A 
HETATM   25  C   UNL     1     -39.437  51.337 -52.131  1.00  0.00     0.000 A 
HETATM   26  C   UNL     1     -40.029  52.493 -51.624  1.00  0.00     0.001 A 
HETATM   27  C   UNL     1     -40.754  53.333 -52.469  1.00  0.00     0.017 A 
ENDBRANCH  19  22
ENDBRANCH   1  18
TORSDOF 2
ENDMDL
MODEL 6
REMARK VINA RESULT:      -8.1      2.566      3.828
REMARK  2 active torsions:
REMARK  status: ('A' for Active; 'I' for Inactive)
REMARK    1  A    between atoms: C_4  and  C_5 
REMARK       I    between atoms: C_5  and  N_6 
REMARK    2  A    between atoms: N_6  and  N_7 
ROOT
HETATM    1  N   UNL     1     -43.197  56.087 -54.329  1.00  0.00    -0.282 N 
HETATM    2  C   UNL     1     -43.568  56.792 -55.392  1.00  0.00     0.127 C 
HETATM    3  C   UNL     1     -44.216  58.117 -55.190  1.00  0.00     0.015 A 
HETATM    4  C   UNL     1     -45.007  58.649 -56.228  1.00  0.00    -0.042 A 
HETATM    5  C   UNL     1     -45.669  59.873 -56.068  1.00  0.00     0.008 A 
HETATM    6  C   UNL     1     -45.516  60.596 -54.889  1.00  0.00     0.001 A 
HETATM    7  C   UNL     1     -44.707  60.103 -53.870  1.00  0.00     0.001 A 
HETATM    8  C   UNL     1     -44.059  58.873 -54.017  1.00  0.00     0.016 A 
HETATM    9  C   UNL     1     -45.154  57.860 -57.503  1.00  0.00     0.070 C 
HETATM   10  C   UNL     1     -43.848  57.119 -57.834  1.00  0.00     0.035 C 
HETATM   11  C   UNL     1     -44.037  56.136 -59.009  1.00  0.00     0.031 C 
HETATM   12  C   UNL     1     -43.156  56.668 -60.134  1.00  0.00     0.002 C 
HETATM   13  C   UNL     1     -42.004  57.329 -59.402  1.00  0.00     0.002 C 
HETATM   14  C   UNL     1     -42.700  58.057 -58.260  1.00  0.00     0.031 C 
HETATM   15  N   UNL     1     -43.400  56.347 -56.638  1.00  0.00    -0.365 N 
HETATM   16  H   UNL     1     -42.950  55.457 -56.771  1.00  0.00     0.162 HD
HETATM   17  H   UNL     1     -43.436  56.474 -53.408  1.00  0.00     0.188 HD
ENDROOT
BRANCH   1  18
HETATM   18  N   UNL     1     -42.593  54.901 -54.294  1.00  0.00    -0.264 N 
HETATM   19  C   UNL     1     -41.608  54.774 -53.323  1.00  0.00     0.270 C 
HETATM   20  O   UNL     1     -41.355  55.705 -52.562  1.00  0.00    -0.266 OA
HETATM   21  H   UNL     1     -42.885  54.121 -54.869  1.00  0.00     0.190 HD
BRANCH  19  22
HETATM   22  C   UNL     1     -40.922  53.463 -53.219  1.00  0.00     0.033 A 
HETATM   23  C   UNL     1     -40.297  53.040 -52.038  1.00  0.00     0.017 A 
HETATM   24  C   UNL     1     -39.661  51.798 -51.997  1.00  0.00     0.001 A 
HETATM   25  C   UNL     1     -39.653  50.975 -53.125  1.00  0.00     0.000 A 
HETATM   26  C   UNL     1     -40.290  51.387 -54.295  1.00  0.00     0.001 A 
HETATM   27  C   UNL     1     -40.929  52.625 -54.342  1.00  0.00     0.017 A 
ENDBRANCH  19  22
ENDBRANCH   1  18
TORSDOF 2
ENDMDL
MODEL 7
REMARK VINA RESULT:      -8.0      3.378      7.853
REMARK  2 active torsions:
REMARK  status: ('A' for Active; 'I' for Inactive)
REMARK    1  A    between atoms: C_4  and  C_5 
REMARK       I    between atoms: C_5  and  N_6 
REMARK    2  A    between atoms: N_6  and  N_7 
ROOT
HETATM    1  N   UNL     1     -43.206  55.710 -56.266  1.00  0.00    -0.282 N 
HETATM    2  C   UNL     1     -42.933  55.740 -54.966  1.00  0.00     0.127 C 
HETATM    3  C   UNL     1     -42.009  54.721 -54.399  1.00  0.00     0.015 A 
HETATM    4  C   UNL     1     -42.067  54.449 -53.017  1.00  0.00    -0.042 A 
HETATM    5  C   UNL     1     -41.246  53.470 -52.445  1.00  0.00     0.008 A 
HETATM    6  C   UNL     1     -40.331  52.781 -53.237  1.00  0.00     0.001 A 
HETATM    7  C   UNL     1     -40.234  53.066 -54.595  1.00  0.00     0.001 A 
HETATM    8  C   UNL     1     -41.065  54.029 -55.175  1.00  0.00     0.016 A 
HETATM    9  C   UNL     1     -43.055  55.210 -52.170  1.00  0.00     0.070 C 
HETATM   10  C   UNL     1     -43.200  56.655 -52.678  1.00  0.00     0.035 C 
HETATM   11  C   UNL     1     -44.360  57.388 -51.969  1.00  0.00     0.031 C 
HETATM   12  C   UNL     1     -43.707  58.514 -51.175  1.00  0.00     0.002 C 
HETATM   13  C   UNL     1     -42.492  58.880 -52.006  1.00  0.00     0.002 C 
HETATM   14  C   UNL     1     -41.949  57.522 -52.430  1.00  0.00     0.031 C 
HETATM   15  N   UNL     1     -43.475  56.639 -54.144  1.00  0.00    -0.365 N 
HETATM   16  H   UNL     1     -44.089  57.335 -54.533  1.00  0.00     0.162 HD
HETATM   17  H   UNL     1     -42.804  54.935 -56.808  1.00  0.00     0.188 HD
ENDROOT
BRANCH   1  18
HETATM   18  N   UNL     1     -43.984  56.532 -56.966  1.00  0.00    -0.264 N 
HETATM   19  C   UNL     1     -43.746  56.543 -58.335  1.00  0.00     0.270 C 
HETATM   20  O   UNL     1     -42.882  55.819 -58.824  1.00  0.00    -0.266 OA
HETATM   21  H   UNL     1     -44.750  57.047 -56.551  1.00  0.00     0.190 HD
BRANCH  19  22
HETATM   22  C   UNL     1     -44.605  57.419 -59.168  1.00  0.00     0.033 A 
HETATM   23  C   UNL     1     -44.102  58.551 -59.824  1.00  0.00     0.017 A 
HETATM   24  C   UNL     1     -44.957  59.344 -60.592  1.00  0.00     0.001 A 
HETATM   25  C   UNL     1     -46.307  59.008 -60.712  1.00  0.00     0.000 A 
HETATM   26  C   UNL     1     -46.804  57.873 -60.075  1.00  0.00     0.001 A 
HETATM   27  C   UNL     1     -45.956  57.075 -59.309  1.00  0.00     0.017 A 
ENDBRANCH  19  22
ENDBRANCH   1  18
TORSDOF 2
ENDMDL
MODEL 8
REMARK VINA RESULT:      -7.9      1.848      3.962
REMARK  2 active torsions:
REMARK  status: ('A' for Active; 'I' for Inactive)
REMARK    1  A    between atoms: C_4  and  C_5 
REMARK       I    between atoms: C_5  and  N_6 
REMARK    2  A    between atoms: N_6  and  N_7 
ROOT
HETATM    1  N   UNL     1     -42.199  55.819 -54.874  1.00  0.00    -0.282 N 
HETATM    2  C   UNL     1     -42.168  57.023 -54.313  1.00  0.00     0.127 C 
HETATM    3  C   UNL     1     -43.213  58.017 -54.678  1.00  0.00     0.015 A 
HETATM    4  C   UNL     1     -42.948  59.386 -54.471  1.00  0.00    -0.042 A 
HETATM    5  C   UNL     1     -43.884  60.360 -54.837  1.00  0.00     0.008 A 
HETATM    6  C   UNL     1     -45.109  59.978 -55.376  1.00  0.00     0.001 A 
HETATM    7  C   UNL     1     -45.402  58.629 -55.551  1.00  0.00     0.001 A 
HETATM    8  C   UNL     1     -44.464  57.653 -55.204  1.00  0.00     0.016 A 
HETATM    9  C   UNL     1     -41.621  59.784 -53.876  1.00  0.00     0.070 C 
HETATM   10  C   UNL     1     -41.160  58.744 -52.841  1.00  0.00     0.035 C 
HETATM   11  C   UNL     1     -39.711  59.012 -52.378  1.00  0.00     0.031 C 
HETATM   12  C   UNL     1     -39.812  59.357 -50.897  1.00  0.00     0.002 C 
HETATM   13  C   UNL     1     -41.008  58.553 -50.424  1.00  0.00     0.002 C 
HETATM   14  C   UNL     1     -42.011  58.739 -51.554  1.00  0.00     0.031 C 
HETATM   15  N   UNL     1     -41.220  57.382 -53.447  1.00  0.00    -0.365 N 
HETATM   16  H   UNL     1     -40.523  56.703 -53.192  1.00  0.00     0.162 HD
HETATM   17  H   UNL     1     -42.920  55.657 -55.588  1.00  0.00     0.188 HD
ENDROOT
BRANCH   1  18
HETATM   18  N   UNL     1     -41.377  54.792 -54.673  1.00  0.00    -0.264 N 
HETATM   19  C   UNL     1     -41.801  53.880 -53.714  1.00  0.00     0.270 C 
HETATM   20  O   UNL     1     -42.871  54.040 -53.130  1.00  0.00    -0.266 OA
HETATM   21  H   UNL     1     -40.549  54.636 -55.233  1.00  0.00     0.190 HD
BRANCH  19  22
HETATM   22  C   UNL     1     -40.938  52.700 -53.469  1.00  0.00     0.033 A 
HETATM   23  C   UNL     1     -40.176  52.563 -52.300  1.00  0.00     0.017 A 
HETATM   24  C   UNL     1     -39.376  51.432 -52.124  1.00  0.00     0.001 A 
HETATM   25  C   UNL     1     -39.339  50.438 -53.103  1.00  0.00     0.000 A 
HETATM   26  C   UNL     1     -40.110  50.565 -54.258  1.00  0.00     0.001 A 
HETATM   27  C   UNL     1     -40.913  51.690 -54.440  1.00  0.00     0.017 A 
ENDBRANCH  19  22
ENDBRANCH   1  18
TORSDOF 2
ENDMDL
MODEL 9
REMARK VINA RESULT:      -7.7      2.856      7.251
REMARK  2 active torsions:
REMARK  status: ('A' for Active; 'I' for Inactive)
REMARK    1  A    between atoms: C_4  and  C_5 
REMARK       I    between atoms: C_5  and  N_6 
REMARK    2  A    between atoms: N_6  and  N_7 
ROOT
HETATM    1  N   UNL     1     -42.561  57.328 -50.788  1.00  0.00    -0.282 N 
HETATM    2  C   UNL     1     -42.174  56.326 -51.570  1.00  0.00     0.127 C 
HETATM    3  C   UNL     1     -41.526  55.138 -50.952  1.00  0.00     0.015 A 
HETATM    4  C   UNL     1     -40.719  54.310 -51.759  1.00  0.00    -0.042 A 
HETATM    5  C   UNL     1     -40.057  53.204 -51.212  1.00  0.00     0.008 A 
HETATM    6  C   UNL     1     -40.223  52.889 -49.867  1.00  0.00     0.001 A 
HETATM    7  C   UNL     1     -41.047  53.674 -49.066  1.00  0.00     0.001 A 
HETATM    8  C   UNL     1     -41.697  54.789 -49.602  1.00  0.00     0.016 A 
HETATM    9  C   UNL     1     -40.557  54.656 -53.216  1.00  0.00     0.070 C 
HETATM   10  C   UNL     1     -41.861  55.246 -53.779  1.00  0.00     0.035 C 
HETATM   11  C   UNL     1     -41.658  55.809 -55.203  1.00  0.00     0.031 C 
HETATM   12  C   UNL     1     -42.523  54.943 -56.112  1.00  0.00     0.002 C 
HETATM   13  C   UNL     1     -43.683  54.539 -55.223  1.00  0.00     0.002 C 
HETATM   14  C   UNL     1     -43.000  54.214 -53.901  1.00  0.00     0.031 C 
HETATM   15  N   UNL     1     -42.326  56.354 -52.894  1.00  0.00    -0.365 N 
HETATM   16  H   UNL     1     -42.777  57.153 -53.307  1.00  0.00     0.162 HD
HETATM   17  H   UNL     1     -42.334  57.254 -49.789  1.00  0.00     0.188 HD
ENDROOT
BRANCH   1  18
HETATM   18  N   UNL     1     -43.168  58.460 -51.137  1.00  0.00    -0.264 N 
HETATM   19  C   UNL     1     -44.555  58.429 -51.064  1.00  0.00     0.270 C 
HETATM   20  O   UNL     1     -45.138  57.415 -50.684  1.00  0.00    -0.266 OA
HETATM   21  H   UNL     1     -42.662  59.309 -51.355  1.00  0.00     0.190 HD
BRANCH  19  22
HETATM   22  C   UNL     1     -45.283  59.672 -51.412  1.00  0.00     0.033 A 
HETATM   23  C   UNL     1     -45.692  60.595 -50.440  1.00  0.00     0.017 A 
HETATM   24  C   UNL     1     -46.380  61.748 -50.824  1.00  0.00     0.001 A 
HETATM   25  C   UNL     1     -46.653  61.986 -52.172  1.00  0.00     0.000 A 
HETATM   26  C   UNL     1     -46.231  61.078 -53.142  1.00  0.00     0.001 A 
HETATM   27  C   UNL     1     -45.542  59.926 -52.766  1.00  0.00     0.017 A 
ENDBRANCH  19  22
ENDBRANCH   1  18
TORSDOF 2
ENDMDL
MODEL 10
REMARK VINA RESULT:      -7.7      2.573      7.280
REMARK  2 active torsions:
REMARK  status: ('A' for Active; 'I' for Inactive)
REMARK    1  A    between atoms: C_4  and  C_5 
REMARK       I    between atoms: C_5  and  N_6 
REMARK    2  A    between atoms: N_6  and  N_7 
ROOT
HETATM    1  N   UNL     1     -42.295  57.435 -50.653  1.00  0.00    -0.282 N 
HETATM    2  C   UNL     1     -42.007  56.388 -51.418  1.00  0.00     0.127 C 
HETATM    3  C   UNL     1     -41.409  55.179 -50.791  1.00  0.00     0.015 A 
HETATM    4  C   UNL     1     -40.692  54.278 -51.605  1.00  0.00    -0.042 A 
HETATM    5  C   UNL     1     -40.078  53.148 -51.053  1.00  0.00     0.008 A 
HETATM    6  C   UNL     1     -40.205  52.882 -49.692  1.00  0.00     0.001 A 
HETATM    7  C   UNL     1     -40.942  53.741 -48.883  1.00  0.00     0.001 A 
HETATM    8  C   UNL     1     -41.542  54.881 -49.425  1.00  0.00     0.016 A 
HETATM    9  C   UNL     1     -40.572  54.573 -53.078  1.00  0.00     0.070 C 
HETATM   10  C   UNL     1     -41.859  55.229 -53.604  1.00  0.00     0.035 C 
HETATM   11  C   UNL     1     -41.683  55.737 -55.052  1.00  0.00     0.031 C 
HETATM   12  C   UNL     1     -42.640  54.903 -55.897  1.00  0.00     0.002 C 
HETATM   13  C   UNL     1     -43.783  54.600 -54.948  1.00  0.00     0.002 C 
HETATM   14  C   UNL     1     -43.066  54.269 -53.647  1.00  0.00     0.031 C 
HETATM   15  N   UNL     1     -42.215  56.389 -52.736  1.00  0.00    -0.365 N 
HETATM   16  H   UNL     1     -42.632  57.203 -53.154  1.00  0.00     0.162 HD
HETATM   17  H   UNL     1     -42.030  57.375 -49.662  1.00  0.00     0.188 HD
ENDROOT
BRANCH   1  18
HETATM   18  N   UNL     1     -42.844  58.594 -51.011  1.00  0.00    -0.264 N 
HETATM   19  C   UNL     1     -42.026  59.705 -50.852  1.00  0.00     0.270 C 
HETATM   20  O   UNL     1     -40.880  59.581 -50.424  1.00  0.00    -0.266 OA
HETATM   21  H   UNL     1     -43.755  58.657 -51.447  1.00  0.00     0.190 HD
BRANCH  19  22
HETATM   22  C   UNL     1     -42.576  61.019 -51.263  1.00  0.00     0.033 A 
HETATM   23  C   UNL     1     -42.790  62.058 -50.346  1.00  0.00     0.017 A 
HETATM   24  C   UNL     1     -43.315  63.274 -50.787  1.00  0.00     0.001 A 
HETATM   25  C   UNL     1     -43.620  63.459 -52.137  1.00  0.00     0.000 A 
HETATM   26  C   UNL     1     -43.391  62.433 -53.053  1.00  0.00     0.001 A 
HETATM   27  C   UNL     1     -42.864  61.217 -52.620  1.00  0.00     0.017 A 
ENDBRANCH  19  22
ENDBRANCH   1  18
TORSDOF 2
ENDMDL
