MODEL 1
REMARK VINA RESULT:      -8.9      0.000      0.000
REMARK  5 active torsions:
REMARK  status: ('A' for Active; 'I' for Inactive)
REMARK    1  A    between atoms: C_5  and  C_6 
REMARK    2  A    between atoms: C_10  and  C_11 
REMARK       I    between atoms: C_11  and  N_12 
REMARK    3  A    between atoms: N_12  and  C_13 
REMARK    4  A    between atoms: C_15  and  O_16 
REMARK    5  A    between atoms: C_19  and  O_20 
ROOT
HETATM    1  C   UNL     1     -40.978  54.839 -53.265  1.00  0.00     0.068 A 
HETATM    2  N   UNL     1     -40.791  55.617 -52.171  1.00  0.00    -0.248 NA
HETATM    3  C   UNL     1     -41.320  56.850 -52.122  1.00  0.00     0.068 A 
HETATM    4  C   UNL     1     -42.058  57.417 -53.179  1.00  0.00     0.008 A 
HETATM    5  C   UNL     1     -42.150  56.631 -54.351  1.00  0.00     0.047 A 
HETATM    6  C   UNL     1     -41.616  55.339 -54.386  1.00  0.00     0.050 A 
HETATM    7  C   UNL     1     -41.149  57.577 -50.952  1.00  0.00     0.032 A 
HETATM    8  C   UNL     1     -41.716  58.840 -50.774  1.00  0.00     0.002 A 
HETATM    9  C   UNL     1     -42.493  59.389 -51.781  1.00  0.00     0.001 A 
HETATM   10  C   UNL     1     -42.672  58.683 -52.971  1.00  0.00     0.015 A 
ENDROOT
BRANCH   5  11
HETATM   11  C   UNL     1     -42.860  57.049 -55.590  1.00  0.00     0.257 C 
HETATM   12  N   UNL     1     -42.100  57.087 -56.746  1.00  0.00    -0.323 N 
HETATM   13  H   UNL     1     -41.119  56.857 -56.667  1.00  0.00     0.169 HD
HETATM   14  O   UNL     1     -44.056  57.303 -55.490  1.00  0.00    -0.267 OA
BRANCH  12  15
HETATM   15  C   UNL     1     -42.544  57.490 -58.029  1.00  0.00     0.040 A 
HETATM   16  C   UNL     1     -42.372  58.785 -58.531  1.00  0.00     0.066 A 
HETATM   17  C   UNL     1     -42.828  59.121 -59.806  1.00  0.00     0.073 A 
HETATM   18  C   UNL     1     -43.440  58.145 -60.592  1.00  0.00     0.073 A 
HETATM   19  C   UNL     1     -43.603  56.844 -60.115  1.00  0.00     0.073 A 
HETATM   20  C   UNL     1     -43.184  56.526 -58.822  1.00  0.00     0.066 A 
BRANCH  17  21
HETATM   21  O   UNL     1     -42.732  60.354 -60.393  1.00  0.00    -0.356 OA
HETATM   22  C   UNL     1     -41.647  61.179 -59.986  1.00  0.00     0.210 C 
ENDBRANCH  17  21
BRANCH  19  23
HETATM   23  O   UNL     1     -44.197  55.979 -60.993  1.00  0.00    -0.356 OA
HETATM   24  C   UNL     1     -44.705  54.772 -60.436  1.00  0.00     0.210 C 
ENDBRANCH  19  23
ENDBRANCH  12  15
ENDBRANCH   5  11
BRANCH   1  25
HETATM   25  C   UNL     1     -40.520  53.436 -53.149  1.00  0.00    -0.007 A 
HETATM   26  C   UNL     1     -40.563  52.545 -54.238  1.00  0.00     0.014 A 
HETATM   27  C   UNL     1     -40.184  51.203 -54.106  1.00  0.00     0.007 A 
HETATM   28  C   UNL     1     -39.759  50.705 -52.873  1.00  0.00    -0.062 A 
HETATM   29  C   UNL     1     -39.368  49.266 -52.717  1.00  0.00     0.048 C 
HETATM   30  C   UNL     1     -39.694  51.575 -51.783  1.00  0.00     0.007 A 
HETATM   31  C   UNL     1     -40.072  52.918 -51.920  1.00  0.00     0.014 A 
ENDBRANCH   1  25
TORSDOF 5
ENDMDL
MODEL 2
REMARK VINA RESULT:      -8.8      0.737      2.494
REMARK  5 active torsions:
REMARK  status: ('A' for Active; 'I' for Inactive)
REMARK    1  A    between atoms: C_5  and  C_6 
REMARK    2  A    between atoms: C_10  and  C_11 
REMARK       I    between atoms: C_11  and  N_12 
REMARK    3  A    between atoms: N_12  and  C_13 
REMARK    4  A    between atoms: C_15  and  O_16 
REMARK    5  A    between atoms: C_19  and  O_20 
ROOT
HETATM    1  C   UNL     1     -41.108  55.164 -52.557  1.00  0.00     0.068 A 
HETATM    2  N   UNL     1     -40.960  56.135 -51.623  1.00  0.00    -0.248 NA
HETATM    3  C   UNL     1     -41.505  57.347 -51.820  1.00  0.00     0.068 A 
HETATM    4  C   UNL     1     -42.220  57.695 -52.982  1.00  0.00     0.008 A 
HETATM    5  C   UNL     1     -42.269  56.702 -53.989  1.00  0.00     0.047 A 
HETATM    6  C   UNL     1     -41.719  55.435 -53.768  1.00  0.00     0.050 A 
HETATM    7  C   UNL     1     -41.375  58.282 -50.802  1.00  0.00     0.032 A 
HETATM    8  C   UNL     1     -41.961  59.546 -50.877  1.00  0.00     0.002 A 
HETATM    9  C   UNL     1     -42.715  59.885 -51.990  1.00  0.00     0.001 A 
HETATM   10  C   UNL     1     -42.853  58.966 -53.030  1.00  0.00     0.015 A 
ENDROOT
BRANCH   5  11
HETATM   11  C   UNL     1     -42.948  56.870 -55.302  1.00  0.00     0.257 C 
HETATM   12  N   UNL     1     -42.124  56.974 -56.408  1.00  0.00    -0.323 N 
HETATM   13  H   UNL     1     -41.125  56.956 -56.248  1.00  0.00     0.169 HD
HETATM   14  O   UNL     1     -44.175  56.881 -55.299  1.00  0.00    -0.267 OA
BRANCH  12  15
HETATM   15  C   UNL     1     -42.537  57.177 -57.747  1.00  0.00     0.040 A 
HETATM   16  C   UNL     1     -43.038  56.155 -58.560  1.00  0.00     0.066 A 
HETATM   17  C   UNL     1     -43.432  56.418 -59.873  1.00  0.00     0.073 A 
HETATM   18  C   UNL     1     -43.345  57.721 -60.364  1.00  0.00     0.073 A 
HETATM   19  C   UNL     1     -42.867  58.755 -59.561  1.00  0.00     0.073 A 
HETATM   20  C   UNL     1     -42.432  58.477 -58.263  1.00  0.00     0.066 A 
BRANCH  17  21
HETATM   21  O   UNL     1     -43.918  55.500 -60.764  1.00  0.00    -0.356 OA
HETATM   22  C   UNL     1     -45.002  54.688 -60.326  1.00  0.00     0.210 C 
ENDBRANCH  17  21
BRANCH  19  23
HETATM   23  O   UNL     1     -42.853  59.988 -60.155  1.00  0.00    -0.356 OA
HETATM   24  C   UNL     1     -41.802  60.862 -59.763  1.00  0.00     0.210 C 
ENDBRANCH  19  23
ENDBRANCH  12  15
ENDBRANCH   5  11
BRANCH   1  25
HETATM   25  C   UNL     1     -40.637  53.815 -52.169  1.00  0.00    -0.007 A 
HETATM   26  C   UNL     1     -40.195  52.877 -53.121  1.00  0.00     0.014 A 
HETATM   27  C   UNL     1     -39.807  51.582 -52.754  1.00  0.00     0.007 A 
HETATM   28  C   UNL     1     -39.860  51.180 -51.418  1.00  0.00    -0.062 A 
HETATM   29  C   UNL     1     -39.464  49.790 -51.016  1.00  0.00     0.048 C 
HETATM   30  C   UNL     1     -40.282  52.099 -50.455  1.00  0.00     0.007 A 
HETATM   31  C   UNL     1     -40.666  53.394 -50.828  1.00  0.00     0.014 A 
ENDBRANCH   1  25
TORSDOF 5
ENDMDL
MODEL 3
REMARK VINA RESULT:      -8.4      1.555      2.604
REMARK  5 active torsions:
REMARK  status: ('A' for Active; 'I' for Inactive)
REMARK    1  A    between atoms: C_5  and  C_6 
REMARK    2  A    between atoms: C_10  and  C_11 
REMARK       I    between atoms: C_11  and  N_12 
REMARK    3  A    between atoms: N_12  and  C_13 
REMARK    4  A    between atoms: C_15  and  O_16 
REMARK    5  A    between atoms: C_19  and  O_20 
ROOT
HETATM    1  C   UNL     1     -40.961  55.151 -53.302  1.00  0.00     0.068 A 
HETATM    2  N   UNL     1     -40.866  55.850 -52.145  1.00  0.00    -0.248 NA
HETATM    3  C   UNL     1     -41.310  57.116 -52.083  1.00  0.00     0.068 A 
HETATM    4  C   UNL     1     -41.862  57.797 -53.185  1.00  0.00     0.008 A 
HETATM    5  C   UNL     1     -41.852  57.087 -54.408  1.00  0.00     0.047 A 
HETATM    6  C   UNL     1     -41.410  55.761 -54.460  1.00  0.00     0.050 A 
HETATM    7  C   UNL     1     -41.243  57.761 -50.855  1.00  0.00     0.032 A 
HETATM    8  C   UNL     1     -41.739  59.052 -50.668  1.00  0.00     0.002 A 
HETATM    9  C   UNL     1     -42.337  59.715 -51.728  1.00  0.00     0.001 A 
HETATM   10  C   UNL     1     -42.408  59.093 -52.974  1.00  0.00     0.015 A 
ENDROOT
BRANCH   5  11
HETATM   11  C   UNL     1     -42.363  57.627 -55.698  1.00  0.00     0.257 C 
HETATM   12  N   UNL     1     -43.416  56.940 -56.274  1.00  0.00    -0.323 N 
HETATM   13  H   UNL     1     -43.746  56.109 -55.800  1.00  0.00     0.169 HD
HETATM   14  O   UNL     1     -41.827  58.643 -56.129  1.00  0.00    -0.267 OA
BRANCH  12  15
HETATM   15  C   UNL     1     -44.038  57.239 -57.510  1.00  0.00     0.040 A 
HETATM   16  C   UNL     1     -43.887  56.452 -58.657  1.00  0.00     0.066 A 
HETATM   17  C   UNL     1     -44.529  56.797 -59.848  1.00  0.00     0.073 A 
HETATM   18  C   UNL     1     -45.346  57.927 -59.880  1.00  0.00     0.073 A 
HETATM   19  C   UNL     1     -45.524  58.711 -58.741  1.00  0.00     0.073 A 
HETATM   20  C   UNL     1     -44.844  58.385 -57.566  1.00  0.00     0.066 A 
BRANCH  17  21
HETATM   21  O   UNL     1     -44.441  56.118 -61.033  1.00  0.00    -0.356 OA
HETATM   22  C   UNL     1     -44.940  54.785 -61.050  1.00  0.00     0.210 C 
ENDBRANCH  17  21
BRANCH  19  23
HETATM   23  O   UNL     1     -46.368  59.777 -58.900  1.00  0.00    -0.356 OA
HETATM   24  C   UNL     1     -47.236  59.727 -60.026  1.00  0.00     0.210 C 
ENDBRANCH  19  23
ENDBRANCH  12  15
ENDBRANCH   5  11
BRANCH   1  25
HETATM   25  C   UNL     1     -40.621  53.713 -53.221  1.00  0.00    -0.007 A 
HETATM   26  C   UNL     1     -40.120  53.130 -52.042  1.00  0.00     0.014 A 
HETATM   27  C   UNL     1     -39.744  51.782 -51.990  1.00  0.00     0.007 A 
HETATM   28  C   UNL     1     -39.849  50.973 -53.122  1.00  0.00    -0.062 A 
HETATM   29  C   UNL     1     -39.432  49.533 -53.082  1.00  0.00     0.048 C 
HETATM   30  C   UNL     1     -40.358  51.527 -54.299  1.00  0.00     0.007 A 
HETATM   31  C   UNL     1     -40.735  52.876 -54.346  1.00  0.00     0.014 A 
ENDBRANCH   1  25
TORSDOF 5
ENDMDL
MODEL 4
REMARK VINA RESULT:      -8.2      2.946      6.206
REMARK  5 active torsions:
REMARK  status: ('A' for Active; 'I' for Inactive)
REMARK    1  A    between atoms: C_5  and  C_6 
REMARK    2  A    between atoms: C_10  and  C_11 
REMARK       I    between atoms: C_11  and  N_12 
REMARK    3  A    between atoms: N_12  and  C_13 
REMARK    4  A    between atoms: C_15  and  O_16 
REMARK    5  A    between atoms: C_19  and  O_20 
ROOT
HETATM    1  C   UNL     1     -41.415  54.847 -54.123  1.00  0.00     0.068 A 
HETATM    2  N   UNL     1     -41.943  54.614 -55.350  1.00  0.00    -0.248 NA
HETATM    3  C   UNL     1     -42.368  55.637 -56.107  1.00  0.00     0.068 A 
HETATM    4  C   UNL     1     -42.325  56.981 -55.686  1.00  0.00     0.008 A 
HETATM    5  C   UNL     1     -41.872  57.192 -54.363  1.00  0.00     0.047 A 
HETATM    6  C   UNL     1     -41.409  56.124 -53.589  1.00  0.00     0.050 A 
HETATM    7  C   UNL     1     -42.842  55.344 -57.378  1.00  0.00     0.032 A 
HETATM    8  C   UNL     1     -43.244  56.340 -58.269  1.00  0.00     0.002 A 
HETATM    9  C   UNL     1     -43.155  57.671 -57.892  1.00  0.00     0.001 A 
HETATM   10  C   UNL     1     -42.691  57.992 -56.616  1.00  0.00     0.015 A 
ENDROOT
BRANCH   5  11
HETATM   11  C   UNL     1     -41.771  58.527 -53.712  1.00  0.00     0.257 C 
HETATM   12  N   UNL     1     -42.929  59.010 -53.128  1.00  0.00    -0.323 N 
HETATM   13  H   UNL     1     -43.762  58.442 -53.205  1.00  0.00     0.169 HD
HETATM   14  O   UNL     1     -40.674  59.075 -53.729  1.00  0.00    -0.267 OA
BRANCH  12  15
HETATM   15  C   UNL     1     -43.086  60.264 -52.488  1.00  0.00     0.040 A 
HETATM   16  C   UNL     1     -42.945  61.487 -53.152  1.00  0.00     0.066 A 
HETATM   17  C   UNL     1     -43.116  62.693 -52.468  1.00  0.00     0.073 A 
HETATM   18  C   UNL     1     -43.453  62.667 -51.115  1.00  0.00     0.073 A 
HETATM   19  C   UNL     1     -43.617  61.457 -50.443  1.00  0.00     0.073 A 
HETATM   20  C   UNL     1     -43.401  60.256 -51.122  1.00  0.00     0.066 A 
BRANCH  17  21
HETATM   21  O   UNL     1     -42.986  63.945 -53.005  1.00  0.00    -0.356 OA
HETATM   22  C   UNL     1     -43.238  64.077 -54.399  1.00  0.00     0.210 C 
ENDBRANCH  17  21
BRANCH  19  23
HETATM   23  O   UNL     1     -43.969  61.572 -49.126  1.00  0.00    -0.356 OA
HETATM   24  C   UNL     1     -45.257  61.079 -48.776  1.00  0.00     0.210 C 
ENDBRANCH  19  23
ENDBRANCH  12  15
ENDBRANCH   5  11
BRANCH   1  25
HETATM   25  C   UNL     1     -40.805  53.680 -53.446  1.00  0.00    -0.007 A 
HETATM   26  C   UNL     1     -40.373  52.547 -54.160  1.00  0.00     0.014 A 
HETATM   27  C   UNL     1     -39.851  51.422 -53.508  1.00  0.00     0.007 A 
HETATM   28  C   UNL     1     -39.756  51.392 -52.116  1.00  0.00    -0.062 A 
HETATM   29  C   UNL     1     -39.216  50.186 -51.407  1.00  0.00     0.048 C 
HETATM   30  C   UNL     1     -40.165  52.512 -51.389  1.00  0.00     0.007 A 
HETATM   31  C   UNL     1     -40.684  53.635 -52.046  1.00  0.00     0.014 A 
ENDBRANCH   1  25
TORSDOF 5
ENDMDL
MODEL 5
REMARK VINA RESULT:      -8.2      2.542      9.082
REMARK  5 active torsions:
REMARK  status: ('A' for Active; 'I' for Inactive)
REMARK    1  A    between atoms: C_5  and  C_6 
REMARK    2  A    between atoms: C_10  and  C_11 
REMARK       I    between atoms: C_11  and  N_12 
REMARK    3  A    between atoms: N_12  and  C_13 
REMARK    4  A    between atoms: C_15  and  O_16 
REMARK    5  A    between atoms: C_19  and  O_20 
ROOT
HETATM    1  C   UNL     1     -42.334  58.428 -58.767  1.00  0.00     0.068 A 
HETATM    2  N   UNL     1     -42.879  57.783 -59.828  1.00  0.00    -0.248 NA
HETATM    3  C   UNL     1     -43.401  56.556 -59.675  1.00  0.00     0.068 A 
HETATM    4  C   UNL     1     -43.396  55.860 -58.450  1.00  0.00     0.008 A 
HETATM    5  C   UNL     1     -42.728  56.505 -57.384  1.00  0.00     0.047 A 
HETATM    6  C   UNL     1     -42.206  57.793 -57.545  1.00  0.00     0.050 A 
HETATM    7  C   UNL     1     -44.001  55.970 -60.781  1.00  0.00     0.032 A 
HETATM    8  C   UNL     1     -44.632  54.727 -60.711  1.00  0.00     0.002 A 
HETATM    9  C   UNL     1     -44.687  54.055 -59.501  1.00  0.00     0.001 A 
HETATM   10  C   UNL     1     -44.083  54.618 -58.376  1.00  0.00     0.015 A 
ENDROOT
BRANCH   5  11
HETATM   11  C   UNL     1     -42.583  55.938 -56.016  1.00  0.00     0.257 C 
HETATM   12  N   UNL     1     -41.408  55.254 -55.759  1.00  0.00    -0.323 N 
HETATM   13  H   UNL     1     -40.746  55.164 -56.518  1.00  0.00     0.169 HD
HETATM   14  O   UNL     1     -43.501  56.139 -55.227  1.00  0.00    -0.267 OA
BRANCH  12  15
HETATM   15  C   UNL     1     -41.065  54.598 -54.552  1.00  0.00     0.040 A 
HETATM   16  C   UNL     1     -41.199  55.190 -53.291  1.00  0.00     0.066 A 
HETATM   17  C   UNL     1     -40.847  54.490 -52.135  1.00  0.00     0.073 A 
HETATM   18  C   UNL     1     -40.380  53.181 -52.245  1.00  0.00     0.073 A 
HETATM   19  C   UNL     1     -40.259  52.569 -53.492  1.00  0.00     0.073 A 
HETATM   20  C   UNL     1     -40.571  53.289 -54.648  1.00  0.00     0.066 A 
BRANCH  17  21
HETATM   21  O   UNL     1     -40.916  54.970 -50.855  1.00  0.00    -0.356 OA
HETATM   22  C   UNL     1     -42.101  54.680 -50.122  1.00  0.00     0.210 C 
ENDBRANCH  17  21
BRANCH  19  23
HETATM   23  O   UNL     1     -39.811  51.276 -53.460  1.00  0.00    -0.356 OA
HETATM   24  C   UNL     1     -39.506  50.750 -52.174  1.00  0.00     0.210 C 
ENDBRANCH  19  23
ENDBRANCH  12  15
ENDBRANCH   5  11
BRANCH   1  25
HETATM   25  C   UNL     1     -41.957  59.842 -58.992  1.00  0.00    -0.007 A 
HETATM   26  C   UNL     1     -42.041  60.444 -60.262  1.00  0.00     0.014 A 
HETATM   27  C   UNL     1     -41.627  61.764 -60.479  1.00  0.00     0.007 A 
HETATM   28  C   UNL     1     -41.103  62.523 -59.432  1.00  0.00    -0.062 A 
HETATM   29  C   UNL     1     -40.640  63.931 -59.657  1.00  0.00     0.048 C 
HETATM   30  C   UNL     1     -41.024  61.951 -58.160  1.00  0.00     0.007 A 
HETATM   31  C   UNL     1     -41.443  60.631 -57.947  1.00  0.00     0.014 A 
ENDBRANCH   1  25
TORSDOF 5
ENDMDL
MODEL 6
REMARK VINA RESULT:      -8.1      2.994      6.257
REMARK  5 active torsions:
REMARK  status: ('A' for Active; 'I' for Inactive)
REMARK    1  A    between atoms: C_5  and  C_6 
REMARK    2  A    between atoms: C_10  and  C_11 
REMARK       I    between atoms: C_11  and  N_12 
REMARK    3  A    between atoms: N_12  and  C_13 
REMARK    4  A    between atoms: C_15  and  O_16 
REMARK    5  A    between atoms: C_19  and  O_20 
ROOT
HETATM    1  C   UNL     1     -41.380  54.910 -54.090  1.00  0.00     0.068 A 
HETATM    2  N   UNL     1     -41.915  54.649 -55.307  1.00  0.00    -0.248 NA
HETATM    3  C   UNL     1     -42.336  55.656 -56.088  1.00  0.00     0.068 A 
HETATM    4  C   UNL     1     -42.282  57.009 -55.703  1.00  0.00     0.008 A 
HETATM    5  C   UNL     1     -41.821  57.252 -54.388  1.00  0.00     0.047 A 
HETATM    6  C   UNL     1     -41.362  56.200 -53.588  1.00  0.00     0.050 A 
HETATM    7  C   UNL     1     -42.818  55.333 -57.350  1.00  0.00     0.032 A 
HETATM    8  C   UNL     1     -43.217  56.309 -58.264  1.00  0.00     0.002 A 
HETATM    9  C   UNL     1     -43.116  57.648 -57.922  1.00  0.00     0.001 A 
HETATM   10  C   UNL     1     -42.645  57.999 -56.657  1.00  0.00     0.015 A 
ENDROOT
BRANCH   5  11
HETATM   11  C   UNL     1     -41.708  58.601 -53.772  1.00  0.00     0.257 C 
HETATM   12  N   UNL     1     -42.878  59.145 -53.274  1.00  0.00    -0.323 N 
HETATM   13  H   UNL     1     -43.727  58.607 -53.385  1.00  0.00     0.169 HD
HETATM   14  O   UNL     1     -40.591  59.108 -53.737  1.00  0.00    -0.267 OA
BRANCH  12  15
HETATM   15  C   UNL     1     -43.025  60.424 -52.683  1.00  0.00     0.040 A 
HETATM   16  C   UNL     1     -43.222  60.619 -51.311  1.00  0.00     0.066 A 
HETATM   17  C   UNL     1     -43.356  61.906 -50.787  1.00  0.00     0.073 A 
HETATM   18  C   UNL     1     -43.270  63.004 -51.642  1.00  0.00     0.073 A 
HETATM   19  C   UNL     1     -43.055  62.829 -53.008  1.00  0.00     0.073 A 
HETATM   20  C   UNL     1     -42.965  61.538 -53.533  1.00  0.00     0.066 A 
BRANCH  17  21
HETATM   21  O   UNL     1     -43.569  62.217 -49.471  1.00  0.00    -0.356 OA
HETATM   22  C   UNL     1     -44.693  61.613 -48.840  1.00  0.00     0.210 C 
ENDBRANCH  17  21
BRANCH  19  23
HETATM   23  O   UNL     1     -42.967  63.987 -53.732  1.00  0.00    -0.356 OA
HETATM   24  C   UNL     1     -43.371  63.908 -55.093  1.00  0.00     0.210 C 
ENDBRANCH  19  23
ENDBRANCH  12  15
ENDBRANCH   5  11
BRANCH   1  25
HETATM   25  C   UNL     1     -40.775  53.757 -53.386  1.00  0.00    -0.007 A 
HETATM   26  C   UNL     1     -40.387  52.587 -54.066  1.00  0.00     0.014 A 
HETATM   27  C   UNL     1     -39.871  51.477 -53.386  1.00  0.00     0.007 A 
HETATM   28  C   UNL     1     -39.735  51.498 -51.997  1.00  0.00    -0.062 A 
HETATM   29  C   UNL     1     -39.201  50.308 -51.258  1.00  0.00     0.048 C 
HETATM   30  C   UNL     1     -40.100  52.653 -51.303  1.00  0.00     0.007 A 
HETATM   31  C   UNL     1     -40.614  53.762 -51.989  1.00  0.00     0.014 A 
ENDBRANCH   1  25
TORSDOF 5
ENDMDL
MODEL 7
REMARK VINA RESULT:      -8.1      3.137      6.486
REMARK  5 active torsions:
REMARK  status: ('A' for Active; 'I' for Inactive)
REMARK    1  A    between atoms: C_5  and  C_6 
REMARK    2  A    between atoms: C_10  and  C_11 
REMARK       I    between atoms: C_11  and  N_12 
REMARK    3  A    between atoms: N_12  and  C_13 
REMARK    4  A    between atoms: C_15  and  O_16 
REMARK    5  A    between atoms: C_19  and  O_20 
ROOT
HETATM    1  C   UNL     1     -41.975  54.698 -54.129  1.00  0.00     0.068 A 
HETATM    2  N   UNL     1     -42.243  54.525 -55.447  1.00  0.00    -0.248 NA
HETATM    3  C   UNL     1     -42.795  55.521 -56.159  1.00  0.00     0.068 A 
HETATM    4  C   UNL     1     -43.150  56.765 -55.603  1.00  0.00     0.008 A 
HETATM    5  C   UNL     1     -42.963  56.885 -54.206  1.00  0.00     0.047 A 
HETATM    6  C   UNL     1     -42.367  55.853 -53.475  1.00  0.00     0.050 A 
HETATM    7  C   UNL     1     -42.988  55.309 -57.517  1.00  0.00     0.032 A 
HETATM    8  C   UNL     1     -43.492  56.302 -58.359  1.00  0.00     0.002 A 
HETATM    9  C   UNL     1     -43.794  57.551 -57.838  1.00  0.00     0.001 A 
HETATM   10  C   UNL     1     -43.617  57.786 -56.475  1.00  0.00     0.015 A 
ENDROOT
BRANCH   5  11
HETATM   11  C   UNL     1     -43.295  58.101 -53.415  1.00  0.00     0.257 C 
HETATM   12  N   UNL     1     -44.578  58.163 -52.899  1.00  0.00    -0.323 N 
HETATM   13  H   UNL     1     -45.204  57.399 -53.115  1.00  0.00     0.169 HD
HETATM   14  O   UNL     1     -42.406  58.933 -53.268  1.00  0.00    -0.267 OA
BRANCH  12  15
HETATM   15  C   UNL     1     -45.132  59.231 -52.153  1.00  0.00     0.040 A 
HETATM   16  C   UNL     1     -45.155  59.262 -50.755  1.00  0.00     0.066 A 
HETATM   17  C   UNL     1     -45.713  60.346 -50.075  1.00  0.00     0.073 A 
HETATM   18  C   UNL     1     -46.230  61.416 -50.804  1.00  0.00     0.073 A 
HETATM   19  C   UNL     1     -46.198  61.411 -52.198  1.00  0.00     0.073 A 
HETATM   20  C   UNL     1     -45.679  60.304 -52.872  1.00  0.00     0.066 A 
BRANCH  17  21
HETATM   21  O   UNL     1     -45.808  60.477 -48.715  1.00  0.00    -0.356 OA
HETATM   22  C   UNL     1     -44.869  61.341 -48.085  1.00  0.00     0.210 C 
ENDBRANCH  17  21
BRANCH  19  23
HETATM   23  O   UNL     1     -46.717  62.530 -52.791  1.00  0.00    -0.356 OA
HETATM   24  C   UNL     1     -47.122  62.390 -54.147  1.00  0.00     0.210 C 
ENDBRANCH  19  23
ENDBRANCH  12  15
ENDBRANCH   5  11
BRANCH   1  25
HETATM   25  C   UNL     1     -41.199  53.619 -53.478  1.00  0.00    -0.007 A 
HETATM   26  C   UNL     1     -40.690  52.524 -54.202  1.00  0.00     0.014 A 
HETATM   27  C   UNL     1     -40.008  51.477 -53.571  1.00  0.00     0.007 A 
HETATM   28  C   UNL     1     -39.822  51.486 -52.187  1.00  0.00    -0.062 A 
HETATM   29  C   UNL     1     -39.109  50.361 -51.499  1.00  0.00     0.048 C 
HETATM   30  C   UNL     1     -40.306  52.569 -51.451  1.00  0.00     0.007 A 
HETATM   31  C   UNL     1     -40.986  53.616 -52.088  1.00  0.00     0.014 A 
ENDBRANCH   1  25
TORSDOF 5
ENDMDL
MODEL 8
REMARK VINA RESULT:      -8.0      3.176      6.525
REMARK  5 active torsions:
REMARK  status: ('A' for Active; 'I' for Inactive)
REMARK    1  A    between atoms: C_5  and  C_6 
REMARK    2  A    between atoms: C_10  and  C_11 
REMARK       I    between atoms: C_11  and  N_12 
REMARK    3  A    between atoms: N_12  and  C_13 
REMARK    4  A    between atoms: C_15  and  O_16 
REMARK    5  A    between atoms: C_19  and  O_20 
ROOT
HETATM    1  C   UNL     1     -42.029  54.822 -54.310  1.00  0.00     0.068 A 
HETATM    2  N   UNL     1     -42.287  54.629 -55.626  1.00  0.00    -0.248 NA
HETATM    3  C   UNL     1     -42.835  55.612 -56.357  1.00  0.00     0.068 A 
HETATM    4  C   UNL     1     -43.198  56.864 -55.822  1.00  0.00     0.008 A 
HETATM    5  C   UNL     1     -43.020  57.005 -54.426  1.00  0.00     0.047 A 
HETATM    6  C   UNL     1     -42.427  55.985 -53.675  1.00  0.00     0.050 A 
HETATM    7  C   UNL     1     -43.019  55.380 -57.713  1.00  0.00     0.032 A 
HETATM    8  C   UNL     1     -43.519  56.359 -58.573  1.00  0.00     0.002 A 
HETATM    9  C   UNL     1     -43.827  57.615 -58.073  1.00  0.00     0.001 A 
HETATM   10  C   UNL     1     -43.660  57.871 -56.712  1.00  0.00     0.015 A 
ENDROOT
BRANCH   5  11
HETATM   11  C   UNL     1     -43.361  58.232 -53.655  1.00  0.00     0.257 C 
HETATM   12  N   UNL     1     -44.625  58.269 -53.094  1.00  0.00    -0.323 N 
HETATM   13  H   UNL     1     -45.235  57.481 -53.265  1.00  0.00     0.169 HD
HETATM   14  O   UNL     1     -42.492  59.093 -53.564  1.00  0.00    -0.267 OA
BRANCH  12  15
HETATM   15  C   UNL     1     -45.184  59.341 -52.356  1.00  0.00     0.040 A 
HETATM   16  C   UNL     1     -45.769  60.462 -52.954  1.00  0.00     0.066 A 
HETATM   17  C   UNL     1     -46.308  61.487 -52.173  1.00  0.00     0.073 A 
HETATM   18  C   UNL     1     -46.279  61.372 -50.783  1.00  0.00     0.073 A 
HETATM   19  C   UNL     1     -45.718  60.253 -50.171  1.00  0.00     0.073 A 
HETATM   20  C   UNL     1     -45.141  59.253 -50.957  1.00  0.00     0.066 A 
BRANCH  17  21
HETATM   21  O   UNL     1     -46.887  62.634 -52.643  1.00  0.00    -0.356 OA
HETATM   22  C   UNL     1     -48.053  62.485 -53.446  1.00  0.00     0.210 C 
ENDBRANCH  17  21
BRANCH  19  23
HETATM   23  O   UNL     1     -45.774  60.254 -48.804  1.00  0.00    -0.356 OA
HETATM   24  C   UNL     1     -45.034  61.276 -48.146  1.00  0.00     0.210 C 
ENDBRANCH  19  23
ENDBRANCH  12  15
ENDBRANCH   5  11
BRANCH   1  25
HETATM   25  C   UNL     1     -41.255  53.754 -53.637  1.00  0.00    -0.007 A 
HETATM   26  C   UNL     1     -40.758  52.638 -54.338  1.00  0.00     0.014 A 
HETATM   27  C   UNL     1     -40.078  51.603 -53.685  1.00  0.00     0.007 A 
HETATM   28  C   UNL     1     -39.882  51.644 -52.304  1.00  0.00    -0.062 A 
HETATM   29  C   UNL     1     -39.172  50.532 -51.592  1.00  0.00     0.048 C 
HETATM   30  C   UNL     1     -40.354  52.749 -51.591  1.00  0.00     0.007 A 
HETATM   31  C   UNL     1     -41.031  53.784 -52.249  1.00  0.00     0.014 A 
ENDBRANCH   1  25
TORSDOF 5
ENDMDL
MODEL 9
REMARK VINA RESULT:      -8.0      1.732      2.851
REMARK  5 active torsions:
REMARK  status: ('A' for Active; 'I' for Inactive)
REMARK    1  A    between atoms: C_5  and  C_6 
REMARK    2  A    between atoms: C_10  and  C_11 
REMARK       I    between atoms: C_11  and  N_12 
REMARK    3  A    between atoms: N_12  and  C_13 
REMARK    4  A    between atoms: C_15  and  O_16 
REMARK    5  A    between atoms: C_19  and  O_20 
ROOT
HETATM    1  C   UNL     1     -41.988  54.846 -53.410  1.00  0.00     0.068 A 
HETATM    2  N   UNL     1     -42.567  55.249 -52.253  1.00  0.00    -0.248 NA
HETATM    3  C   UNL     1     -43.350  56.339 -52.236  1.00  0.00     0.068 A 
HETATM    4  C   UNL     1     -43.597  57.133 -53.373  1.00  0.00     0.008 A 
HETATM    5  C   UNL     1     -42.897  56.757 -54.543  1.00  0.00     0.047 A 
HETATM    6  C   UNL     1     -42.101  55.608 -54.559  1.00  0.00     0.050 A 
HETATM    7  C   UNL     1     -43.967  56.669 -51.037  1.00  0.00     0.032 A 
HETATM    8  C   UNL     1     -44.853  57.741 -50.928  1.00  0.00     0.002 A 
HETATM    9  C   UNL     1     -45.151  58.499 -52.050  1.00  0.00     0.001 A 
HETATM   10  C   UNL     1     -44.537  58.194 -53.265  1.00  0.00     0.015 A 
ENDROOT
BRANCH   5  11
HETATM   11  C   UNL     1     -42.992  57.472 -55.845  1.00  0.00     0.257 C 
HETATM   12  N   UNL     1     -43.955  57.012 -56.725  1.00  0.00    -0.323 N 
HETATM   13  H   UNL     1     -44.505  56.213 -56.439  1.00  0.00     0.169 HD
HETATM   14  O   UNL     1     -42.229  58.416 -56.021  1.00  0.00    -0.267 OA
BRANCH  12  15
HETATM   15  C   UNL     1     -44.203  57.504 -58.030  1.00  0.00     0.040 A 
HETATM   16  C   UNL     1     -45.438  57.379 -58.676  1.00  0.00     0.066 A 
HETATM   17  C   UNL     1     -45.623  57.888 -59.963  1.00  0.00     0.073 A 
HETATM   18  C   UNL     1     -44.569  58.546 -60.595  1.00  0.00     0.073 A 
HETATM   19  C   UNL     1     -43.338  58.697 -59.958  1.00  0.00     0.073 A 
HETATM   20  C   UNL     1     -43.145  58.147 -58.689  1.00  0.00     0.066 A 
BRANCH  17  21
HETATM   21  O   UNL     1     -46.775  57.809 -60.698  1.00  0.00    -0.356 OA
HETATM   22  C   UNL     1     -47.303  56.509 -60.931  1.00  0.00     0.210 C 
ENDBRANCH  17  21
BRANCH  19  23
HETATM   23  O   UNL     1     -42.396  59.381 -60.677  1.00  0.00    -0.356 OA
HETATM   24  C   UNL     1     -41.846  60.534 -60.053  1.00  0.00     0.210 C 
ENDBRANCH  19  23
ENDBRANCH  12  15
ENDBRANCH   5  11
BRANCH   1  25
HETATM   25  C   UNL     1     -41.300  53.535 -53.369  1.00  0.00    -0.007 A 
HETATM   26  C   UNL     1     -40.496  53.149 -52.279  1.00  0.00     0.014 A 
HETATM   27  C   UNL     1     -39.800  51.933 -52.273  1.00  0.00     0.007 A 
HETATM   28  C   UNL     1     -39.878  51.067 -53.364  1.00  0.00    -0.062 A 
HETATM   29  C   UNL     1     -39.123  49.772 -53.375  1.00  0.00     0.048 C 
HETATM   30  C   UNL     1     -40.682  51.424 -54.450  1.00  0.00     0.007 A 
HETATM   31  C   UNL     1     -41.378  52.640 -54.450  1.00  0.00     0.014 A 
ENDBRANCH   1  25
TORSDOF 5
ENDMDL
MODEL 10
REMARK VINA RESULT:      -7.9      3.203      8.898
REMARK  5 active torsions:
REMARK  status: ('A' for Active; 'I' for Inactive)
REMARK    1  A    between atoms: C_5  and  C_6 
REMARK    2  A    between atoms: C_10  and  C_11 
REMARK       I    between atoms: C_11  and  N_12 
REMARK    3  A    between atoms: N_12  and  C_13 
REMARK    4  A    between atoms: C_15  and  O_16 
REMARK    5  A    between atoms: C_19  and  O_20 
ROOT
HETATM    1  C   UNL     1     -44.328  58.568 -55.208  1.00  0.00     0.068 A 
HETATM    2  N   UNL     1     -44.239  58.830 -56.535  1.00  0.00    -0.248 NA
HETATM    3  C   UNL     1     -43.775  57.892 -57.377  1.00  0.00     0.068 A 
HETATM    4  C   UNL     1     -43.335  56.623 -56.955  1.00  0.00     0.008 A 
HETATM    5  C   UNL     1     -43.334  56.410 -55.557  1.00  0.00     0.047 A 
HETATM    6  C   UNL     1     -43.840  57.382 -54.688  1.00  0.00     0.050 A 
HETATM    7  C   UNL     1     -43.765  58.194 -58.732  1.00  0.00     0.032 A 
HETATM    8  C   UNL     1     -43.367  57.267 -59.696  1.00  0.00     0.002 A 
HETATM    9  C   UNL     1     -42.984  55.994 -59.303  1.00  0.00     0.001 A 
HETATM   10  C   UNL     1     -42.976  55.669 -57.946  1.00  0.00     0.015 A 
ENDROOT
BRANCH   5  11
HETATM   11  C   UNL     1     -42.886  55.153 -54.898  1.00  0.00     0.257 C 
HETATM   12  N   UNL     1     -41.731  55.239 -54.141  1.00  0.00    -0.323 N 
HETATM   13  H   UNL     1     -41.259  56.132 -54.109  1.00  0.00     0.169 HD
HETATM   14  O   UNL     1     -43.584  54.158 -55.061  1.00  0.00    -0.267 OA
BRANCH  12  15
HETATM   15  C   UNL     1     -41.095  54.174 -53.458  1.00  0.00     0.040 A 
HETATM   16  C   UNL     1     -40.434  53.127 -54.112  1.00  0.00     0.066 A 
HETATM   17  C   UNL     1     -39.822  52.106 -53.384  1.00  0.00     0.073 A 
HETATM   18  C   UNL     1     -39.852  52.149 -51.990  1.00  0.00     0.073 A 
HETATM   19  C   UNL     1     -40.488  53.195 -51.322  1.00  0.00     0.073 A 
HETATM   20  C   UNL     1     -41.137  54.189 -52.057  1.00  0.00     0.066 A 
BRANCH  17  21
HETATM   21  O   UNL     1     -39.166  51.027 -53.911  1.00  0.00    -0.356 OA
HETATM   22  C   UNL     1     -39.920  49.831 -54.075  1.00  0.00     0.210 C 
ENDBRANCH  17  21
BRANCH  19  23
HETATM   23  O   UNL     1     -40.426  53.130 -49.957  1.00  0.00    -0.356 OA
HETATM   24  C   UNL     1     -40.911  54.266 -49.252  1.00  0.00     0.210 C 
ENDBRANCH  19  23
ENDBRANCH  12  15
ENDBRANCH   5  11
BRANCH   1  25
HETATM   25  C   UNL     1     -45.023  59.588 -54.391  1.00  0.00    -0.007 A 
HETATM   26  C   UNL     1     -45.263  59.405 -53.016  1.00  0.00     0.014 A 
HETATM   27  C   UNL     1     -45.973  60.348 -52.262  1.00  0.00     0.007 A 
HETATM   28  C   UNL     1     -46.477  61.502 -52.863  1.00  0.00    -0.062 A 
HETATM   29  C   UNL     1     -47.254  62.509 -52.069  1.00  0.00     0.048 C 
HETATM   30  C   UNL     1     -46.237  61.711 -54.223  1.00  0.00     0.007 A 
HETATM   31  C   UNL     1     -45.523  60.767 -54.973  1.00  0.00     0.014 A 
ENDBRANCH   1  25
TORSDOF 5
ENDMDL
