MODEL 1
REMARK VINA RESULT:      -9.3      0.000      0.000
REMARK  5 active torsions:
REMARK  status: ('A' for Active; 'I' for Inactive)
REMARK    1  A    between atoms: C_5  and  C_6 
REMARK    2  A    between atoms: C_14  and  C_15 
REMARK       I    between atoms: C_15  and  N_16 
REMARK    3  A    between atoms: N_16  and  C_17 
REMARK    4  A    between atoms: C_20  and  C_21 
REMARK    5  A    between atoms: C_23  and  N_24 
ROOT
HETATM    1  C   UNL     1     -43.394  56.242 -57.448  1.00  0.00     0.262 C 
HETATM    2  N   UNL     1     -42.213  55.649 -57.065  1.00  0.00    -0.301 N 
HETATM    3  O   UNL     1     -44.103  56.914 -56.707  1.00  0.00    -0.267 OA
HETATM    4  H   UNL     1     -41.527  55.386 -57.754  1.00  0.00     0.171 HD
ENDROOT
BRANCH   1   5
HETATM    5  C   UNL     1     -43.754  56.083 -58.853  1.00  0.00     0.095 A 
HETATM    6  C   UNL     1     -44.192  54.966 -59.543  1.00  0.00     0.093 A 
HETATM    7  C   UNL     1     -44.486  53.557 -59.212  1.00  0.00     0.080 C 
HETATM    8  O   UNL     1     -44.420  55.300 -60.841  1.00  0.00    -0.217 OA
HETATM    9  N   UNL     1     -44.171  56.637 -61.035  1.00  0.00    -0.127 NA
HETATM   10  C   UNL     1     -43.787  57.119 -59.845  1.00  0.00     0.117 A 
BRANCH  10  11
HETATM   11  C   UNL     1     -43.473  58.532 -59.688  1.00  0.00     0.056 A 
HETATM   12  C   UNL     1     -44.400  59.457 -59.192  1.00  0.00     0.049 A 
HETATM   13 CL   UNL     1     -46.000  59.001 -58.715  1.00  0.00    -0.083 Cl
HETATM   14  C   UNL     1     -44.061  60.814 -59.092  1.00  0.00     0.025 A 
HETATM   15  C   UNL     1     -42.800  61.257 -59.495  1.00  0.00     0.005 A 
HETATM   16  C   UNL     1     -41.873  60.345 -59.988  1.00  0.00     0.043 A 
HETATM   17  C   UNL     1     -42.210  58.995 -60.074  1.00  0.00     0.130 A 
HETATM   18  F   UNL     1     -41.292  58.140 -60.553  1.00  0.00    -0.205 F 
ENDBRANCH  10  11
ENDBRANCH   1   5
BRANCH   2  19
HETATM   19  C   UNL     1     -41.760  55.529 -55.773  1.00  0.00     0.173 A 
HETATM   20  S   UNL     1     -41.718  56.848 -54.693  1.00  0.00    -0.061 SA
HETATM   21  C   UNL     1     -41.137  55.815 -53.461  1.00  0.00     0.085 A 
HETATM   22  C   UNL     1     -41.037  54.525 -53.942  1.00  0.00     0.076 A 
HETATM   23  N   UNL     1     -41.414  54.367 -55.271  1.00  0.00    -0.223 NA
BRANCH  22  24
HETATM   24  C   UNL     1     -40.538  53.404 -53.152  1.00  0.00    -0.004 A 
HETATM   25  C   UNL     1     -40.287  52.152 -53.731  1.00  0.00     0.050 A 
HETATM   26  C   UNL     1     -39.843  51.088 -52.930  1.00  0.00     0.103 A 
HETATM   27  C   UNL     1     -39.643  51.261 -51.555  1.00  0.00     0.036 A 
HETATM   28  C   UNL     1     -39.880  52.509 -50.982  1.00  0.00     0.003 A 
HETATM   29  C   UNL     1     -40.320  53.572 -51.777  1.00  0.00     0.014 A 
BRANCH  26  30
HETATM   30  N   UNL     1     -39.592  49.777 -53.542  1.00  0.00    -0.116 N 
HETATM   31  O   UNL     1     -39.672  49.694 -54.777  1.00  0.00    -0.532 OA
HETATM   32  O   UNL     1     -39.320  48.832 -52.789  1.00  0.00    -0.532 OA
ENDBRANCH  26  30
ENDBRANCH  22  24
ENDBRANCH   2  19
TORSDOF 5
ENDMDL
MODEL 2
REMARK VINA RESULT:      -9.2      1.704      3.226
REMARK  5 active torsions:
REMARK  status: ('A' for Active; 'I' for Inactive)
REMARK    1  A    between atoms: C_5  and  C_6 
REMARK    2  A    between atoms: C_14  and  C_15 
REMARK       I    between atoms: C_15  and  N_16 
REMARK    3  A    between atoms: N_16  and  C_17 
REMARK    4  A    between atoms: C_20  and  C_21 
REMARK    5  A    between atoms: C_23  and  N_24 
ROOT
HETATM    1  C   UNL     1     -42.892  58.074 -56.849  1.00  0.00     0.262 C 
HETATM    2  N   UNL     1     -42.228  56.883 -56.658  1.00  0.00    -0.301 N 
HETATM    3  O   UNL     1     -43.588  58.621 -56.000  1.00  0.00    -0.267 OA
HETATM    4  H   UNL     1     -41.443  56.639 -57.239  1.00  0.00     0.171 HD
ENDROOT
BRANCH   1   5
HETATM    5  C   UNL     1     -42.673  58.721 -58.137  1.00  0.00     0.095 A 
HETATM    6  C   UNL     1     -41.924  59.839 -58.461  1.00  0.00     0.093 A 
HETATM    7  C   UNL     1     -41.068  60.795 -57.730  1.00  0.00     0.080 C 
HETATM    8  O   UNL     1     -42.003  60.062 -59.799  1.00  0.00    -0.217 OA
HETATM    9  N   UNL     1     -42.772  59.092 -60.394  1.00  0.00    -0.127 NA
HETATM   10  C   UNL     1     -43.166  58.273 -59.409  1.00  0.00     0.117 A 
BRANCH  10  11
HETATM   11  C   UNL     1     -43.981  57.104 -59.701  1.00  0.00     0.056 A 
HETATM   12  C   UNL     1     -45.379  57.162 -59.776  1.00  0.00     0.049 A 
HETATM   13 CL   UNL     1     -46.260  58.632 -59.533  1.00  0.00    -0.083 Cl
HETATM   14  C   UNL     1     -46.122  55.999 -60.027  1.00  0.00     0.025 A 
HETATM   15  C   UNL     1     -45.478  54.773 -60.194  1.00  0.00     0.005 A 
HETATM   16  C   UNL     1     -44.090  54.707 -60.122  1.00  0.00     0.043 A 
HETATM   17  C   UNL     1     -43.354  55.867 -59.886  1.00  0.00     0.130 A 
HETATM   18  F   UNL     1     -42.016  55.769 -59.824  1.00  0.00    -0.205 F 
ENDBRANCH  10  11
ENDBRANCH   1   5
BRANCH   2  19
HETATM   19  C   UNL     1     -42.411  56.026 -55.600  1.00  0.00     0.173 A 
HETATM   20  S   UNL     1     -43.903  55.881 -54.788  1.00  0.00    -0.061 SA
HETATM   21  C   UNL     1     -43.236  54.666 -53.788  1.00  0.00     0.085 A 
HETATM   22  C   UNL     1     -41.926  54.429 -54.152  1.00  0.00     0.076 A 
HETATM   23  N   UNL     1     -41.464  55.205 -55.208  1.00  0.00    -0.223 NA
BRANCH  22  24
HETATM   24  C   UNL     1     -41.058  53.472 -53.472  1.00  0.00    -0.004 A 
HETATM   25  C   UNL     1     -40.781  52.213 -54.023  1.00  0.00     0.050 A 
HETATM   26  C   UNL     1     -39.972  51.306 -53.321  1.00  0.00     0.103 A 
HETATM   27  C   UNL     1     -39.432  51.643 -52.074  1.00  0.00     0.036 A 
HETATM   28  C   UNL     1     -39.696  52.901 -51.534  1.00  0.00     0.003 A 
HETATM   29  C   UNL     1     -40.500  53.808 -52.230  1.00  0.00     0.014 A 
BRANCH  26  30
HETATM   30  N   UNL     1     -39.695  49.985 -53.900  1.00  0.00    -0.116 N 
HETATM   31  O   UNL     1     -39.373  49.073 -53.125  1.00  0.00    -0.532 OA
HETATM   32  O   UNL     1     -39.796  49.862 -55.128  1.00  0.00    -0.532 OA
ENDBRANCH  26  30
ENDBRANCH  22  24
ENDBRANCH   2  19
TORSDOF 5
ENDMDL
MODEL 3
REMARK VINA RESULT:      -9.0      1.785      2.206
REMARK  5 active torsions:
REMARK  status: ('A' for Active; 'I' for Inactive)
REMARK    1  A    between atoms: C_5  and  C_6 
REMARK    2  A    between atoms: C_14  and  C_15 
REMARK       I    between atoms: C_15  and  N_16 
REMARK    3  A    between atoms: N_16  and  C_17 
REMARK    4  A    between atoms: C_20  and  C_21 
REMARK    5  A    between atoms: C_23  and  N_24 
ROOT
HETATM    1  C   UNL     1     -43.304  56.191 -58.024  1.00  0.00     0.262 C 
HETATM    2  N   UNL     1     -43.448  55.434 -56.884  1.00  0.00    -0.301 N 
HETATM    3  O   UNL     1     -42.282  56.795 -58.328  1.00  0.00    -0.267 OA
HETATM    4  H   UNL     1     -44.160  54.724 -56.830  1.00  0.00     0.171 HD
ENDROOT
BRANCH   1   5
HETATM    5  C   UNL     1     -44.448  56.194 -58.929  1.00  0.00     0.095 A 
HETATM    6  C   UNL     1     -44.995  55.169 -59.683  1.00  0.00     0.093 A 
HETATM    7  C   UNL     1     -44.715  53.734 -59.890  1.00  0.00     0.080 C 
HETATM    8  O   UNL     1     -46.070  55.638 -60.368  1.00  0.00    -0.217 OA
HETATM    9  N   UNL     1     -46.280  56.962 -60.067  1.00  0.00    -0.127 NA
HETATM   10  C   UNL     1     -45.322  57.301 -59.193  1.00  0.00     0.117 A 
BRANCH  10  11
HETATM   11  C   UNL     1     -45.271  58.645 -58.638  1.00  0.00     0.056 A 
HETATM   12  C   UNL     1     -44.404  59.629 -59.130  1.00  0.00     0.049 A 
HETATM   13 CL   UNL     1     -43.322  59.336 -60.449  1.00  0.00    -0.083 Cl
HETATM   14  C   UNL     1     -44.368  60.900 -58.538  1.00  0.00     0.025 A 
HETATM   15  C   UNL     1     -45.187  61.192 -57.446  1.00  0.00     0.005 A 
HETATM   16  C   UNL     1     -46.050  60.221 -56.950  1.00  0.00     0.043 A 
HETATM   17  C   UNL     1     -46.092  58.963 -57.550  1.00  0.00     0.130 A 
HETATM   18  F   UNL     1     -46.938  58.048 -57.049  1.00  0.00    -0.205 F 
ENDBRANCH  10  11
ENDBRANCH   1   5
BRANCH   2  19
HETATM   19  C   UNL     1     -42.577  55.414 -55.822  1.00  0.00     0.173 A 
HETATM   20  S   UNL     1     -42.007  56.839 -55.079  1.00  0.00    -0.061 SA
HETATM   21  C   UNL     1     -41.135  55.898 -53.950  1.00  0.00     0.085 A 
HETATM   22  C   UNL     1     -41.354  54.556 -54.193  1.00  0.00     0.076 A 
HETATM   23  N   UNL     1     -42.199  54.288 -55.263  1.00  0.00    -0.223 NA
BRANCH  22  24
HETATM   24  C   UNL     1     -40.727  53.484 -53.427  1.00  0.00    -0.004 A 
HETATM   25  C   UNL     1     -40.481  52.225 -53.993  1.00  0.00     0.050 A 
HETATM   26  C   UNL     1     -39.910  51.208 -53.212  1.00  0.00     0.103 A 
HETATM   27  C   UNL     1     -39.578  51.433 -51.871  1.00  0.00     0.036 A 
HETATM   28  C   UNL     1     -39.810  52.689 -51.313  1.00  0.00     0.003 A 
HETATM   29  C   UNL     1     -40.377  53.706 -52.087  1.00  0.00     0.014 A 
BRANCH  26  30
HETATM   30  N   UNL     1     -39.665  49.889 -53.810  1.00  0.00    -0.116 N 
HETATM   31  O   UNL     1     -39.380  48.954 -53.047  1.00  0.00    -0.532 OA
HETATM   32  O   UNL     1     -39.753  49.789 -55.042  1.00  0.00    -0.532 OA
ENDBRANCH  26  30
ENDBRANCH  22  24
ENDBRANCH   2  19
TORSDOF 5
ENDMDL
MODEL 4
REMARK VINA RESULT:      -8.9      2.160      3.633
REMARK  5 active torsions:
REMARK  status: ('A' for Active; 'I' for Inactive)
REMARK    1  A    between atoms: C_5  and  C_6 
REMARK    2  A    between atoms: C_14  and  C_15 
REMARK       I    between atoms: C_15  and  N_16 
REMARK    3  A    between atoms: N_16  and  C_17 
REMARK    4  A    between atoms: C_20  and  C_21 
REMARK    5  A    between atoms: C_23  and  N_24 
ROOT
HETATM    1  C   UNL     1     -43.276  58.185 -56.970  1.00  0.00     0.262 C 
HETATM    2  N   UNL     1     -42.140  57.937 -56.232  1.00  0.00    -0.301 N 
HETATM    3  O   UNL     1     -44.415  57.942 -56.587  1.00  0.00    -0.267 OA
HETATM    4  H   UNL     1     -41.283  58.424 -56.438  1.00  0.00     0.171 HD
ENDROOT
BRANCH   1   5
HETATM    5  C   UNL     1     -43.064  58.836 -58.257  1.00  0.00     0.095 A 
HETATM    6  C   UNL     1     -42.382  60.000 -58.569  1.00  0.00     0.093 A 
HETATM    7  C   UNL     1     -41.612  61.015 -57.823  1.00  0.00     0.080 C 
HETATM    8  O   UNL     1     -42.438  60.208 -59.911  1.00  0.00    -0.217 OA
HETATM    9  N   UNL     1     -43.124  59.185 -60.519  1.00  0.00    -0.127 NA
HETATM   10  C   UNL     1     -43.490  58.349 -59.538  1.00  0.00     0.117 A 
BRANCH  10  11
HETATM   11  C   UNL     1     -44.218  57.126 -59.843  1.00  0.00     0.056 A 
HETATM   12  C   UNL     1     -45.597  57.113 -60.085  1.00  0.00     0.049 A 
HETATM   13 CL   UNL     1     -46.558  58.552 -60.048  1.00  0.00    -0.083 Cl
HETATM   14  C   UNL     1     -46.259  55.903 -60.340  1.00  0.00     0.025 A 
HETATM   15  C   UNL     1     -45.551  54.700 -60.347  1.00  0.00     0.005 A 
HETATM   16  C   UNL     1     -44.180  54.704 -60.108  1.00  0.00     0.043 A 
HETATM   17  C   UNL     1     -43.525  55.910 -59.867  1.00  0.00     0.130 A 
HETATM   18  F   UNL     1     -42.201  55.880 -59.642  1.00  0.00    -0.205 F 
ENDBRANCH  10  11
ENDBRANCH   1   5
BRANCH   2  19
HETATM   19  C   UNL     1     -42.082  57.194 -55.078  1.00  0.00     0.173 A 
HETATM   20  S   UNL     1     -42.822  57.700 -53.627  1.00  0.00    -0.061 SA
HETATM   21  C   UNL     1     -42.317  56.254 -52.870  1.00  0.00     0.085 A 
HETATM   22  C   UNL     1     -41.638  55.464 -53.776  1.00  0.00     0.076 A 
HETATM   23  N   UNL     1     -41.522  56.007 -55.051  1.00  0.00    -0.223 NA
BRANCH  22  24
HETATM   24  C   UNL     1     -41.044  54.175 -53.439  1.00  0.00    -0.004 A 
HETATM   25  C   UNL     1     -40.978  53.721 -52.114  1.00  0.00     0.050 A 
HETATM   26  C   UNL     1     -40.365  52.491 -51.827  1.00  0.00     0.103 A 
HETATM   27  C   UNL     1     -39.819  51.706 -52.849  1.00  0.00     0.036 A 
HETATM   28  C   UNL     1     -39.898  52.151 -54.167  1.00  0.00     0.003 A 
HETATM   29  C   UNL     1     -40.509  53.374 -54.459  1.00  0.00     0.014 A 
BRANCH  26  30
HETATM   30  N   UNL     1     -40.291  52.028 -50.435  1.00  0.00    -0.116 N 
HETATM   31  O   UNL     1     -40.354  52.884 -49.540  1.00  0.00    -0.532 OA
HETATM   32  O   UNL     1     -40.166  50.812 -50.238  1.00  0.00    -0.532 OA
ENDBRANCH  26  30
ENDBRANCH  22  24
ENDBRANCH   2  19
TORSDOF 5
ENDMDL
MODEL 5
REMARK VINA RESULT:      -8.7      3.780      9.334
REMARK  5 active torsions:
REMARK  status: ('A' for Active; 'I' for Inactive)
REMARK    1  A    between atoms: C_5  and  C_6 
REMARK    2  A    between atoms: C_14  and  C_15 
REMARK       I    between atoms: C_15  and  N_16 
REMARK    3  A    between atoms: N_16  and  C_17 
REMARK    4  A    between atoms: C_20  and  C_21 
REMARK    5  A    between atoms: C_23  and  N_24 
ROOT
HETATM    1  C   UNL     1     -41.973  54.654 -52.668  1.00  0.00     0.262 C 
HETATM    2  N   UNL     1     -41.774  55.769 -53.450  1.00  0.00    -0.301 N 
HETATM    3  O   UNL     1     -42.871  53.838 -52.844  1.00  0.00    -0.267 OA
HETATM    4  H   UNL     1     -40.875  56.223 -53.472  1.00  0.00     0.171 HD
ENDROOT
BRANCH   1   5
HETATM    5  C   UNL     1     -40.990  54.439 -51.612  1.00  0.00     0.095 A 
HETATM    6  C   UNL     1     -40.716  55.187 -50.480  1.00  0.00     0.093 A 
HETATM    7  C   UNL     1     -41.247  56.420 -49.864  1.00  0.00     0.080 C 
HETATM    8  O   UNL     1     -39.720  54.589 -49.775  1.00  0.00    -0.217 OA
HETATM    9  N   UNL     1     -39.334  53.427 -50.398  1.00  0.00    -0.127 NA
HETATM   10  C   UNL     1     -40.101  53.320 -51.493  1.00  0.00     0.117 A 
BRANCH  10  11
HETATM   11  C   UNL     1     -39.971  52.170 -52.375  1.00  0.00     0.056 A 
HETATM   12  C   UNL     1     -39.993  50.852 -51.901  1.00  0.00     0.049 A 
HETATM   13 CL   UNL     1     -40.183  50.474 -50.223  1.00  0.00    -0.083 Cl
HETATM   14  C   UNL     1     -39.829  49.779 -52.789  1.00  0.00     0.025 A 
HETATM   15  C   UNL     1     -39.632  50.013 -54.151  1.00  0.00     0.005 A 
HETATM   16  C   UNL     1     -39.609  51.319 -54.630  1.00  0.00     0.043 A 
HETATM   17  C   UNL     1     -39.785  52.383 -53.746  1.00  0.00     0.130 A 
HETATM   18  F   UNL     1     -39.760  53.631 -54.241  1.00  0.00    -0.205 F 
ENDBRANCH  10  11
ENDBRANCH   1   5
BRANCH   2  19
HETATM   19  C   UNL     1     -42.652  56.256 -54.388  1.00  0.00     0.173 A 
HETATM   20  S   UNL     1     -44.132  56.989 -53.961  1.00  0.00    -0.061 SA
HETATM   21  C   UNL     1     -44.452  57.294 -55.611  1.00  0.00     0.085 A 
HETATM   22  C   UNL     1     -43.400  56.842 -56.383  1.00  0.00     0.076 A 
HETATM   23  N   UNL     1     -42.360  56.260 -55.668  1.00  0.00    -0.223 NA
BRANCH  22  24
HETATM   24  C   UNL     1     -43.375  56.919 -57.840  1.00  0.00    -0.004 A 
HETATM   25  C   UNL     1     -44.348  56.285 -58.626  1.00  0.00     0.050 A 
HETATM   26  C   UNL     1     -44.267  56.352 -60.025  1.00  0.00     0.103 A 
HETATM   27  C   UNL     1     -43.227  57.049 -60.652  1.00  0.00     0.036 A 
HETATM   28  C   UNL     1     -42.268  57.691 -59.870  1.00  0.00     0.003 A 
HETATM   29  C   UNL     1     -42.345  57.629 -58.475  1.00  0.00     0.014 A 
BRANCH  26  30
HETATM   30  N   UNL     1     -45.284  55.676 -60.841  1.00  0.00    -0.116 N 
HETATM   31  O   UNL     1     -44.892  54.873 -61.701  1.00  0.00    -0.532 OA
HETATM   32  O   UNL     1     -46.473  55.951 -60.625  1.00  0.00    -0.532 OA
ENDBRANCH  26  30
ENDBRANCH  22  24
ENDBRANCH   2  19
TORSDOF 5
ENDMDL
MODEL 6
REMARK VINA RESULT:      -8.6      2.296      3.751
REMARK  5 active torsions:
REMARK  status: ('A' for Active; 'I' for Inactive)
REMARK    1  A    between atoms: C_5  and  C_6 
REMARK    2  A    between atoms: C_14  and  C_15 
REMARK       I    between atoms: C_15  and  N_16 
REMARK    3  A    between atoms: N_16  and  C_17 
REMARK    4  A    between atoms: C_20  and  C_21 
REMARK    5  A    between atoms: C_23  and  N_24 
ROOT
HETATM    1  C   UNL     1     -43.978  58.528 -55.770  1.00  0.00     0.262 C 
HETATM    2  N   UNL     1     -42.753  58.571 -55.144  1.00  0.00    -0.301 N 
HETATM    3  O   UNL     1     -44.915  57.824 -55.408  1.00  0.00    -0.267 OA
HETATM    4  H   UNL     1     -42.144  59.363 -55.270  1.00  0.00     0.171 HD
ENDROOT
BRANCH   1   5
HETATM    5  C   UNL     1     -44.146  59.441 -56.895  1.00  0.00     0.095 A 
HETATM    6  C   UNL     1     -44.215  60.824 -56.921  1.00  0.00     0.093 A 
HETATM    7  C   UNL     1     -44.142  61.913 -55.927  1.00  0.00     0.080 C 
HETATM    8  O   UNL     1     -44.362  61.243 -58.206  1.00  0.00    -0.217 OA
HETATM    9  N   UNL     1     -44.363  60.163 -59.056  1.00  0.00    -0.127 NA
HETATM   10  C   UNL     1     -44.218  59.080 -58.281  1.00  0.00     0.117 A 
BRANCH  10  11
HETATM   11  C   UNL     1     -44.148  57.752 -58.874  1.00  0.00     0.056 A 
HETATM   12  C   UNL     1     -45.291  57.020 -59.218  1.00  0.00     0.049 A 
HETATM   13 CL   UNL     1     -46.892  57.633 -58.974  1.00  0.00    -0.083 Cl
HETATM   14  C   UNL     1     -45.170  55.731 -59.754  1.00  0.00     0.025 A 
HETATM   15  C   UNL     1     -43.911  55.159 -59.942  1.00  0.00     0.005 A 
HETATM   16  C   UNL     1     -42.769  55.880 -59.603  1.00  0.00     0.043 A 
HETATM   17  C   UNL     1     -42.894  57.166 -59.082  1.00  0.00     0.130 A 
HETATM   18  F   UNL     1     -41.772  57.835 -58.767  1.00  0.00    -0.205 F 
ENDBRANCH  10  11
ENDBRANCH   1   5
BRANCH   2  19
HETATM   19  C   UNL     1     -42.317  57.697 -54.178  1.00  0.00     0.173 A 
HETATM   20  S   UNL     1     -42.397  58.059 -52.513  1.00  0.00    -0.061 SA
HETATM   21  C   UNL     1     -41.761  56.515 -52.151  1.00  0.00     0.085 A 
HETATM   22  C   UNL     1     -41.552  55.810 -53.320  1.00  0.00     0.076 A 
HETATM   23  N   UNL     1     -41.891  56.493 -54.482  1.00  0.00    -0.223 NA
BRANCH  22  24
HETATM   24  C   UNL     1     -40.983  54.467 -53.363  1.00  0.00    -0.004 A 
HETATM   25  C   UNL     1     -40.788  53.714 -52.196  1.00  0.00     0.050 A 
HETATM   26  C   UNL     1     -40.204  52.441 -52.276  1.00  0.00     0.103 A 
HETATM   27  C   UNL     1     -39.814  51.906 -53.509  1.00  0.00     0.036 A 
HETATM   28  C   UNL     1     -40.021  52.649 -54.671  1.00  0.00     0.003 A 
HETATM   29  C   UNL     1     -40.605  53.917 -54.597  1.00  0.00     0.014 A 
BRANCH  26  30
HETATM   30  N   UNL     1     -39.993  51.664 -51.047  1.00  0.00    -0.116 N 
HETATM   31  O   UNL     1     -39.485  50.538 -51.158  1.00  0.00    -0.532 OA
HETATM   32  O   UNL     1     -40.340  52.177 -49.974  1.00  0.00    -0.532 OA
ENDBRANCH  26  30
ENDBRANCH  22  24
ENDBRANCH   2  19
TORSDOF 5
ENDMDL
MODEL 7
REMARK VINA RESULT:      -8.6      2.522      3.965
REMARK  5 active torsions:
REMARK  status: ('A' for Active; 'I' for Inactive)
REMARK    1  A    between atoms: C_5  and  C_6 
REMARK    2  A    between atoms: C_14  and  C_15 
REMARK       I    between atoms: C_15  and  N_16 
REMARK    3  A    between atoms: N_16  and  C_17 
REMARK    4  A    between atoms: C_20  and  C_21 
REMARK    5  A    between atoms: C_23  and  N_24 
ROOT
HETATM    1  C   UNL     1     -43.509  58.398 -56.732  1.00  0.00     0.262 C 
HETATM    2  N   UNL     1     -42.351  58.343 -55.990  1.00  0.00    -0.301 N 
HETATM    3  O   UNL     1     -44.575  57.900 -56.388  1.00  0.00    -0.267 OA
HETATM    4  H   UNL     1     -41.612  59.009 -56.147  1.00  0.00     0.171 HD
ENDROOT
BRANCH   1   5
HETATM    5  C   UNL     1     -43.429  59.162 -57.972  1.00  0.00     0.095 A 
HETATM    6  C   UNL     1     -42.894  60.415 -58.217  1.00  0.00     0.093 A 
HETATM    7  C   UNL     1     -42.208  61.454 -57.423  1.00  0.00     0.080 C 
HETATM    8  O   UNL     1     -43.033  60.714 -59.536  1.00  0.00    -0.217 OA
HETATM    9  N   UNL     1     -43.630  59.667 -60.196  1.00  0.00    -0.127 NA
HETATM   10  C   UNL     1     -43.857  58.725 -59.270  1.00  0.00     0.117 A 
BRANCH  10  11
HETATM   11  C   UNL     1     -44.458  57.453 -59.643  1.00  0.00     0.056 A 
HETATM   12  C   UNL     1     -43.693  56.329 -59.975  1.00  0.00     0.049 A 
HETATM   13 CL   UNL     1     -41.962  56.350 -59.966  1.00  0.00    -0.083 Cl
HETATM   14  C   UNL     1     -44.320  55.136 -60.362  1.00  0.00     0.025 A 
HETATM   15  C   UNL     1     -45.712  55.060 -60.429  1.00  0.00     0.005 A 
HETATM   16  C   UNL     1     -46.480  56.172 -60.100  1.00  0.00     0.043 A 
HETATM   17  C   UNL     1     -45.853  57.353 -59.704  1.00  0.00     0.130 A 
HETATM   18  F   UNL     1     -46.623  58.407 -59.391  1.00  0.00    -0.205 F 
ENDBRANCH  10  11
ENDBRANCH   1   5
BRANCH   2  19
HETATM   19  C   UNL     1     -42.147  57.554 -54.883  1.00  0.00     0.173 A 
HETATM   20  S   UNL     1     -42.607  58.043 -53.315  1.00  0.00    -0.061 SA
HETATM   21  C   UNL     1     -42.070  56.544 -52.695  1.00  0.00     0.085 A 
HETATM   22  C   UNL     1     -41.598  55.754 -53.725  1.00  0.00     0.076 A 
HETATM   23  N   UNL     1     -41.663  56.339 -54.984  1.00  0.00    -0.223 NA
BRANCH  22  24
HETATM   24  C   UNL     1     -41.034  54.423 -53.529  1.00  0.00    -0.004 A 
HETATM   25  C   UNL     1     -40.896  53.865 -52.250  1.00  0.00     0.050 A 
HETATM   26  C   UNL     1     -40.314  52.596 -52.101  1.00  0.00     0.103 A 
HETATM   27  C   UNL     1     -39.871  51.875 -53.215  1.00  0.00     0.036 A 
HETATM   28  C   UNL     1     -40.022  52.424 -54.488  1.00  0.00     0.003 A 
HETATM   29  C   UNL     1     -40.602  53.686 -54.642  1.00  0.00     0.014 A 
BRANCH  26  30
HETATM   30  N   UNL     1     -40.164  52.024 -50.757  1.00  0.00    -0.116 N 
HETATM   31  O   UNL     1     -39.905  50.814 -50.672  1.00  0.00    -0.532 OA
HETATM   32  O   UNL     1     -40.309  52.782 -49.788  1.00  0.00    -0.532 OA
ENDBRANCH  26  30
ENDBRANCH  22  24
ENDBRANCH   2  19
TORSDOF 5
ENDMDL
MODEL 8
REMARK VINA RESULT:      -8.6      2.658      4.085
REMARK  5 active torsions:
REMARK  status: ('A' for Active; 'I' for Inactive)
REMARK    1  A    between atoms: C_5  and  C_6 
REMARK    2  A    between atoms: C_14  and  C_15 
REMARK       I    between atoms: C_15  and  N_16 
REMARK    3  A    between atoms: N_16  and  C_17 
REMARK    4  A    between atoms: C_20  and  C_21 
REMARK    5  A    between atoms: C_23  and  N_24 
ROOT
HETATM    1  C   UNL     1     -43.007  58.090 -57.018  1.00  0.00     0.262 C 
HETATM    2  N   UNL     1     -42.168  57.027 -56.771  1.00  0.00    -0.301 N 
HETATM    3  O   UNL     1     -43.835  58.516 -56.220  1.00  0.00    -0.267 OA
HETATM    4  H   UNL     1     -41.319  56.914 -57.301  1.00  0.00     0.171 HD
ENDROOT
BRANCH   1   5
HETATM    5  C   UNL     1     -42.820  58.758 -58.301  1.00  0.00     0.095 A 
HETATM    6  C   UNL     1     -42.095  59.893 -58.620  1.00  0.00     0.093 A 
HETATM    7  C   UNL     1     -41.244  60.853 -57.889  1.00  0.00     0.080 C 
HETATM    8  O   UNL     1     -42.200  60.134 -59.954  1.00  0.00    -0.217 OA
HETATM    9  N   UNL     1     -42.963  59.159 -60.550  1.00  0.00    -0.127 NA
HETATM   10  C   UNL     1     -43.327  58.321 -59.570  1.00  0.00     0.117 A 
BRANCH  10  11
HETATM   11  C   UNL     1     -44.127  57.142 -59.866  1.00  0.00     0.056 A 
HETATM   12  C   UNL     1     -45.515  57.202 -60.043  1.00  0.00     0.049 A 
HETATM   13 CL   UNL     1     -46.401  58.685 -59.932  1.00  0.00    -0.083 Cl
HETATM   14  C   UNL     1     -46.247  56.032 -60.293  1.00  0.00     0.025 A 
HETATM   15  C   UNL     1     -45.601  54.796 -60.357  1.00  0.00     0.005 A 
HETATM   16  C   UNL     1     -44.223  54.728 -60.183  1.00  0.00     0.043 A 
HETATM   17  C   UNL     1     -43.498  55.895 -59.947  1.00  0.00     0.130 A 
HETATM   18  F   UNL     1     -42.168  55.795 -59.785  1.00  0.00    -0.205 F 
ENDBRANCH  10  11
ENDBRANCH   1   5
BRANCH   2  19
HETATM   19  C   UNL     1     -42.269  56.156 -55.713  1.00  0.00     0.173 A 
HETATM   20  S   UNL     1     -42.911  54.585 -55.881  1.00  0.00    -0.061 SA
HETATM   21  C   UNL     1     -42.594  54.284 -54.228  1.00  0.00     0.085 A 
HETATM   22  C   UNL     1     -41.995  55.390 -53.658  1.00  0.00     0.076 A 
HETATM   23  N   UNL     1     -41.797  56.458 -54.526  1.00  0.00    -0.223 NA
BRANCH  22  24
HETATM   24  C   UNL     1     -41.626  55.473 -52.249  1.00  0.00    -0.004 A 
HETATM   25  C   UNL     1     -41.314  54.327 -51.503  1.00  0.00     0.050 A 
HETATM   26  C   UNL     1     -41.000  54.445 -50.141  1.00  0.00     0.103 A 
HETATM   27  C   UNL     1     -40.990  55.696 -49.512  1.00  0.00     0.036 A 
HETATM   28  C   UNL     1     -41.286  56.836 -50.258  1.00  0.00     0.003 A 
HETATM   29  C   UNL     1     -41.598  56.724 -51.616  1.00  0.00     0.014 A 
BRANCH  26  30
HETATM   30  N   UNL     1     -40.685  53.239 -49.364  1.00  0.00    -0.116 N 
HETATM   31  O   UNL     1     -40.393  52.210 -49.992  1.00  0.00    -0.532 OA
HETATM   32  O   UNL     1     -40.735  53.319 -48.129  1.00  0.00    -0.532 OA
ENDBRANCH  26  30
ENDBRANCH  22  24
ENDBRANCH   2  19
TORSDOF 5
ENDMDL
MODEL 9
REMARK VINA RESULT:      -8.4      3.387      4.640
REMARK  5 active torsions:
REMARK  status: ('A' for Active; 'I' for Inactive)
REMARK    1  A    between atoms: C_5  and  C_6 
REMARK    2  A    between atoms: C_14  and  C_15 
REMARK       I    between atoms: C_15  and  N_16 
REMARK    3  A    between atoms: N_16  and  C_17 
REMARK    4  A    between atoms: C_20  and  C_21 
REMARK    5  A    between atoms: C_23  and  N_24 
ROOT
HETATM    1  C   UNL     1     -42.002  59.534 -53.777  1.00  0.00     0.262 C 
HETATM    2  N   UNL     1     -42.597  58.333 -53.465  1.00  0.00    -0.301 N 
HETATM    3  O   UNL     1     -40.813  59.781 -53.608  1.00  0.00    -0.267 OA
HETATM    4  H   UNL     1     -43.467  58.067 -53.897  1.00  0.00     0.171 HD
ENDROOT
BRANCH   1   5
HETATM    5  C   UNL     1     -42.869  60.524 -54.406  1.00  0.00     0.095 A 
HETATM    6  C   UNL     1     -43.374  61.714 -53.910  1.00  0.00     0.093 A 
HETATM    7  C   UNL     1     -43.267  62.471 -52.646  1.00  0.00     0.080 C 
HETATM    8  O   UNL     1     -44.129  62.316 -54.866  1.00  0.00    -0.217 OA
HETATM    9  N   UNL     1     -44.120  61.564 -56.016  1.00  0.00    -0.127 NA
HETATM   10  C   UNL     1     -43.355  60.496 -55.755  1.00  0.00     0.117 A 
BRANCH  10  11
HETATM   11  C   UNL     1     -43.106  59.497 -56.785  1.00  0.00     0.056 A 
HETATM   12  C   UNL     1     -43.879  58.336 -56.908  1.00  0.00     0.049 A 
HETATM   13 CL   UNL     1     -45.205  57.989 -55.851  1.00  0.00    -0.083 Cl
HETATM   14  C   UNL     1     -43.577  57.387 -57.896  1.00  0.00     0.025 A 
HETATM   15  C   UNL     1     -42.498  57.585 -58.758  1.00  0.00     0.005 A 
HETATM   16  C   UNL     1     -41.725  58.737 -58.642  1.00  0.00     0.043 A 
HETATM   17  C   UNL     1     -42.036  59.683 -57.668  1.00  0.00     0.130 A 
HETATM   18  F   UNL     1     -41.271  60.784 -57.584  1.00  0.00    -0.205 F 
ENDBRANCH  10  11
ENDBRANCH   1   5
BRANCH   2  19
HETATM   19  C   UNL     1     -42.024  57.324 -52.728  1.00  0.00     0.173 A 
HETATM   20  S   UNL     1     -41.720  57.472 -51.057  1.00  0.00    -0.061 SA
HETATM   21  C   UNL     1     -41.127  55.869 -51.027  1.00  0.00     0.085 A 
HETATM   22  C   UNL     1     -41.222  55.312 -52.287  1.00  0.00     0.076 A 
HETATM   23  N   UNL     1     -41.756  56.153 -53.257  1.00  0.00    -0.223 NA
BRANCH  22  24
HETATM   24  C   UNL     1     -40.769  53.964 -52.611  1.00  0.00    -0.004 A 
HETATM   25  C   UNL     1     -40.552  53.003 -51.614  1.00  0.00     0.050 A 
HETATM   26  C   UNL     1     -40.080  51.728 -51.963  1.00  0.00     0.103 A 
HETATM   27  C   UNL     1     -39.824  51.399 -53.299  1.00  0.00     0.036 A 
HETATM   28  C   UNL     1     -40.054  52.350 -54.292  1.00  0.00     0.003 A 
HETATM   29  C   UNL     1     -40.526  53.621 -53.949  1.00  0.00     0.014 A 
BRANCH  26  30
HETATM   30  N   UNL     1     -39.845  50.731 -50.911  1.00  0.00    -0.116 N 
HETATM   31  O   UNL     1     -40.468  50.859 -49.846  1.00  0.00    -0.532 OA
HETATM   32  O   UNL     1     -39.035  49.823 -51.147  1.00  0.00    -0.532 OA
ENDBRANCH  26  30
ENDBRANCH  22  24
ENDBRANCH   2  19
TORSDOF 5
ENDMDL
MODEL 10
REMARK VINA RESULT:      -8.3      1.800      2.217
REMARK  5 active torsions:
REMARK  status: ('A' for Active; 'I' for Inactive)
REMARK    1  A    between atoms: C_5  and  C_6 
REMARK    2  A    between atoms: C_14  and  C_15 
REMARK       I    between atoms: C_15  and  N_16 
REMARK    3  A    between atoms: N_16  and  C_17 
REMARK    4  A    between atoms: C_20  and  C_21 
REMARK    5  A    between atoms: C_23  and  N_24 
ROOT
HETATM    1  C   UNL     1     -43.507  57.145 -57.079  1.00  0.00     0.262 C 
HETATM    2  N   UNL     1     -42.217  56.790 -56.756  1.00  0.00    -0.301 N 
HETATM    3  O   UNL     1     -44.402  57.318 -56.259  1.00  0.00    -0.267 OA
HETATM    4  H   UNL     1     -41.464  56.963 -57.402  1.00  0.00     0.171 HD
ENDROOT
BRANCH   1   5
HETATM    5  C   UNL     1     -43.762  57.381 -58.496  1.00  0.00     0.095 A 
HETATM    6  C   UNL     1     -43.973  56.483 -59.528  1.00  0.00     0.093 A 
HETATM    7  C   UNL     1     -44.049  55.015 -59.663  1.00  0.00     0.080 C 
HETATM    8  O   UNL     1     -44.185  57.167 -60.683  1.00  0.00    -0.217 OA
HETATM    9  N   UNL     1     -44.149  58.519 -60.444  1.00  0.00    -0.127 NA
HETATM   10  C   UNL     1     -43.911  58.658 -59.132  1.00  0.00     0.117 A 
BRANCH  10  11
HETATM   11  C   UNL     1     -43.842  59.982 -58.531  1.00  0.00     0.056 A 
HETATM   12  C   UNL     1     -44.942  60.581 -57.904  1.00  0.00     0.049 A 
HETATM   13 CL   UNL     1     -46.480  59.797 -57.783  1.00  0.00    -0.083 Cl
HETATM   14  C   UNL     1     -44.833  61.873 -57.370  1.00  0.00     0.025 A 
HETATM   15  C   UNL     1     -43.633  62.578 -57.467  1.00  0.00     0.005 A 
HETATM   16  C   UNL     1     -42.535  61.990 -58.087  1.00  0.00     0.043 A 
HETATM   17  C   UNL     1     -42.643  60.701 -58.606  1.00  0.00     0.130 A 
HETATM   18  F   UNL     1     -41.565  60.161 -59.197  1.00  0.00    -0.205 F 
ENDBRANCH  10  11
ENDBRANCH   1   5
BRANCH   2  19
HETATM   19  C   UNL     1     -41.790  56.364 -55.522  1.00  0.00     0.173 A 
HETATM   20  S   UNL     1     -41.735  57.398 -54.167  1.00  0.00    -0.061 SA
HETATM   21  C   UNL     1     -41.199  56.095 -53.199  1.00  0.00     0.085 A 
HETATM   22  C   UNL     1     -41.121  54.947 -53.963  1.00  0.00     0.076 A 
HETATM   23  N   UNL     1     -41.479  55.109 -55.297  1.00  0.00    -0.223 NA
BRANCH  22  24
HETATM   24  C   UNL     1     -40.662  53.662 -53.446  1.00  0.00    -0.004 A 
HETATM   25  C   UNL     1     -40.743  53.348 -52.082  1.00  0.00     0.050 A 
HETATM   26  C   UNL     1     -40.257  52.116 -51.619  1.00  0.00     0.103 A 
HETATM   27  C   UNL     1     -39.693  51.189 -52.503  1.00  0.00     0.036 A 
HETATM   28  C   UNL     1     -39.626  51.495 -53.862  1.00  0.00     0.003 A 
HETATM   29  C   UNL     1     -40.111  52.721 -54.328  1.00  0.00     0.014 A 
BRANCH  26  30
HETATM   30  N   UNL     1     -40.335  51.800 -50.187  1.00  0.00    -0.116 N 
HETATM   31  O   UNL     1     -40.383  52.748 -49.389  1.00  0.00    -0.532 OA
HETATM   32  O   UNL     1     -40.345  50.605 -49.860  1.00  0.00    -0.532 OA
ENDBRANCH  26  30
ENDBRANCH  22  24
ENDBRANCH   2  19
TORSDOF 5
ENDMDL
