MODEL 1
REMARK VINA RESULT:      -9.0      0.000      0.000
REMARK  3 active torsions:
REMARK  status: ('A' for Active; 'I' for Inactive)
REMARK    1  A    between atoms: C_7  and  C_8 
REMARK    2  A    between atoms: N_9  and  C_11 
REMARK    3  A    between atoms: C_11  and  C_12 
ROOT
HETATM    1  C   UNL     1     -41.103  55.731 -53.914  1.00  0.00     0.238 C 
HETATM    2  N   UNL     1     -42.441  56.023 -54.576  1.00  0.00    -0.056 N 
HETATM    3  H   UNL     1     -42.415  57.025 -54.798  1.00  0.00     0.281 HD
HETATM    4  C   UNL     1     -43.640  55.839 -53.680  1.00  0.00     0.236 C 
HETATM    5  C   UNL     1     -43.488  56.670 -52.417  1.00  0.00     0.028 C 
HETATM    6  C   UNL     1     -42.197  56.352 -51.678  1.00  0.00     0.004 C 
HETATM    7  C   UNL     1     -40.991  56.510 -52.596  1.00  0.00     0.040 C 
ENDROOT
BRANCH   2   8
HETATM    8  C   UNL     1     -42.647  55.323 -55.905  1.00  0.00     0.294 C 
BRANCH   8   9
HETATM    9  C   UNL     1     -42.751  56.262 -57.040  1.00  0.00     0.061 A 
HETATM   10  N   UNL     1     -43.325  55.960 -58.260  1.00  0.00    -0.305 N 
HETATM   11  C   UNL     1     -43.189  57.080 -59.044  1.00  0.00     0.151 A 
HETATM   12  C   UNL     1     -43.929  54.829 -58.783  1.00  0.00     0.118 A 
HETATM   13  C   UNL     1     -43.667  57.039 -60.399  1.00  0.00     0.167 A 
HETATM   14  N   UNL     1     -42.604  58.070 -58.413  1.00  0.00    -0.239 NA
HETATM   15  N   UNL     1     -44.214  55.960 -60.892  1.00  0.00    -0.268 NA
HETATM   16  C   UNL     1     -44.347  54.862 -60.061  1.00  0.00     0.134 A 
HETATM   17  C   UNL     1     -42.368  57.588 -57.156  1.00  0.00     0.146 A 
ENDBRANCH   8   9
ENDBRANCH   2   8
BRANCH   1  18
HETATM   18  C   UNL     1     -40.784  54.276 -53.770  1.00  0.00     0.041 A 
HETATM   19  N   UNL     1     -40.507  53.734 -52.528  1.00  0.00    -0.357 N 
HETATM   20  C   UNL     1     -40.155  52.410 -52.643  1.00  0.00     0.042 A 
HETATM   21  H   UNL     1     -40.521  54.225 -51.643  1.00  0.00     0.166 HD
HETATM   22  C   UNL     1     -40.296  52.062 -53.982  1.00  0.00    -0.008 A 
HETATM   23  C   UNL     1     -39.739  51.500 -51.665  1.00  0.00     0.030 A 
HETATM   24  C   UNL     1     -40.021  50.739 -54.374  1.00  0.00     0.014 A 
HETATM   25  C   UNL     1     -40.718  53.229 -54.673  1.00  0.00     0.040 A 
HETATM   26  C   UNL     1     -39.602  49.814 -53.410  1.00  0.00     0.001 A 
HETATM   27  C   UNL     1     -39.461  50.194 -52.077  1.00  0.00     0.002 A 
ENDBRANCH   1  18
TORSDOF 3
ENDMDL
MODEL 2
REMARK VINA RESULT:      -8.8      1.610      7.044
REMARK  3 active torsions:
REMARK  status: ('A' for Active; 'I' for Inactive)
REMARK    1  A    between atoms: C_7  and  C_8 
REMARK    2  A    between atoms: N_9  and  C_11 
REMARK    3  A    between atoms: C_11  and  C_12 
ROOT
HETATM    1  C   UNL     1     -43.253  55.883 -53.767  1.00  0.00     0.238 C 
HETATM    2  N   UNL     1     -41.980  55.538 -53.007  1.00  0.00    -0.056 N 
HETATM    3  H   UNL     1     -42.300  55.069 -52.152  1.00  0.00     0.281 HD
HETATM    4  C   UNL     1     -41.181  56.729 -52.542  1.00  0.00     0.236 C 
HETATM    5  C   UNL     1     -42.052  57.656 -51.711  1.00  0.00     0.028 C 
HETATM    6  C   UNL     1     -43.300  58.092 -52.463  1.00  0.00     0.004 C 
HETATM    7  C   UNL     1     -44.088  56.886 -52.958  1.00  0.00     0.040 C 
ENDROOT
BRANCH   2   8
HETATM    8  C   UNL     1     -41.089  54.529 -53.707  1.00  0.00     0.294 C 
BRANCH   8   9
HETATM    9  C   UNL     1     -40.576  53.486 -52.797  1.00  0.00     0.061 A 
HETATM   10  N   UNL     1     -40.274  52.192 -53.175  1.00  0.00    -0.305 N 
HETATM   11  C   UNL     1     -39.866  51.537 -52.038  1.00  0.00     0.151 A 
HETATM   12  C   UNL     1     -40.333  51.504 -54.376  1.00  0.00     0.118 A 
HETATM   13  C   UNL     1     -39.524  50.144 -52.127  1.00  0.00     0.167 A 
HETATM   14  N   UNL     1     -39.856  52.317 -50.983  1.00  0.00    -0.239 NA
HETATM   15  N   UNL     1     -39.604  49.497 -53.259  1.00  0.00    -0.268 NA
HETATM   16  C   UNL     1     -40.004  50.200 -54.381  1.00  0.00     0.134 A 
HETATM   17  C   UNL     1     -40.252  53.538 -51.452  1.00  0.00     0.146 A 
ENDBRANCH   8   9
ENDBRANCH   2   8
BRANCH   1  18
HETATM   18  C   UNL     1     -43.035  56.305 -55.187  1.00  0.00     0.041 A 
HETATM   19  N   UNL     1     -43.443  55.498 -56.233  1.00  0.00    -0.357 N 
HETATM   20  C   UNL     1     -43.063  56.036 -57.439  1.00  0.00     0.042 A 
HETATM   21  H   UNL     1     -43.926  54.612 -56.153  1.00  0.00     0.166 HD
HETATM   22  C   UNL     1     -42.475  57.268 -57.173  1.00  0.00    -0.008 A 
HETATM   23  C   UNL     1     -43.208  55.532 -58.736  1.00  0.00     0.030 A 
HETATM   24  C   UNL     1     -42.015  58.050 -58.249  1.00  0.00     0.014 A 
HETATM   25  C   UNL     1     -42.489  57.439 -55.762  1.00  0.00     0.040 A 
HETATM   26  C   UNL     1     -42.150  57.562 -59.554  1.00  0.00     0.001 A 
HETATM   27  C   UNL     1     -42.736  56.320 -59.790  1.00  0.00     0.002 A 
ENDBRANCH   1  18
TORSDOF 3
ENDMDL
MODEL 3
REMARK VINA RESULT:      -8.7      1.853      2.830
REMARK  3 active torsions:
REMARK  status: ('A' for Active; 'I' for Inactive)
REMARK    1  A    between atoms: C_7  and  C_8 
REMARK    2  A    between atoms: N_9  and  C_11 
REMARK    3  A    between atoms: C_11  and  C_12 
ROOT
HETATM    1  C   UNL     1     -40.974  55.095 -51.288  1.00  0.00     0.238 C 
HETATM    2  N   UNL     1     -41.654  56.131 -52.171  1.00  0.00    -0.056 N 
HETATM    3  H   UNL     1     -41.578  57.013 -51.653  1.00  0.00     0.281 HD
HETATM    4  C   UNL     1     -43.131  55.909 -52.379  1.00  0.00     0.236 C 
HETATM    5  C   UNL     1     -43.843  55.813 -51.040  1.00  0.00     0.028 C 
HETATM    6  C   UNL     1     -43.246  54.732 -50.153  1.00  0.00     0.004 C 
HETATM    7  C   UNL     1     -41.748  54.942 -49.971  1.00  0.00     0.040 C 
ENDROOT
BRANCH   2   8
HETATM    8  C   UNL     1     -40.953  56.381 -53.492  1.00  0.00     0.294 C 
BRANCH   8   9
HETATM    9  C   UNL     1     -41.349  57.657 -54.121  1.00  0.00     0.061 A 
HETATM   10  N   UNL     1     -42.039  57.766 -55.313  1.00  0.00    -0.305 N 
HETATM   11  C   UNL     1     -42.176  59.110 -55.564  1.00  0.00     0.151 A 
HETATM   12  C   UNL     1     -42.542  56.846 -56.218  1.00  0.00     0.118 A 
HETATM   13  C   UNL     1     -42.828  59.525 -56.776  1.00  0.00     0.167 A 
HETATM   14  N   UNL     1     -41.657  59.856 -54.618  1.00  0.00    -0.239 NA
HETATM   15  N   UNL     1     -43.279  58.651 -57.637  1.00  0.00    -0.268 NA
HETATM   16  C   UNL     1     -43.135  57.309 -57.333  1.00  0.00     0.134 A 
HETATM   17  C   UNL     1     -41.181  58.965 -53.698  1.00  0.00     0.146 A 
ENDBRANCH   8   9
ENDBRANCH   2   8
BRANCH   1  18
HETATM   18  C   UNL     1     -40.693  53.789 -51.963  1.00  0.00     0.041 A 
HETATM   19  N   UNL     1     -40.309  52.683 -51.228  1.00  0.00    -0.357 N 
HETATM   20  C   UNL     1     -40.017  51.625 -52.057  1.00  0.00     0.042 A 
HETATM   21  H   UNL     1     -40.214  52.635 -50.221  1.00  0.00     0.166 HD
HETATM   22  C   UNL     1     -40.307  52.029 -53.356  1.00  0.00    -0.008 A 
HETATM   23  C   UNL     1     -39.534  50.348 -51.752  1.00  0.00     0.030 A 
HETATM   24  C   UNL     1     -40.120  51.116 -54.410  1.00  0.00     0.014 A 
HETATM   25  C   UNL     1     -40.757  53.375 -53.282  1.00  0.00     0.040 A 
HETATM   26  C   UNL     1     -39.636  49.834 -54.125  1.00  0.00     0.001 A 
HETATM   27  C   UNL     1     -39.346  49.460 -52.814  1.00  0.00     0.002 A 
ENDBRANCH   1  18
TORSDOF 3
ENDMDL
MODEL 4
REMARK VINA RESULT:      -8.4      1.872      2.682
REMARK  3 active torsions:
REMARK  status: ('A' for Active; 'I' for Inactive)
REMARK    1  A    between atoms: C_7  and  C_8 
REMARK    2  A    between atoms: N_9  and  C_11 
REMARK    3  A    between atoms: C_11  and  C_12 
ROOT
HETATM    1  C   UNL     1     -41.828  58.113 -54.505  1.00  0.00     0.238 C 
HETATM    2  N   UNL     1     -43.336  58.318 -54.541  1.00  0.00    -0.056 N 
HETATM    3  H   UNL     1     -43.472  59.205 -55.038  1.00  0.00     0.281 HD
HETATM    4  C   UNL     1     -43.978  58.508 -53.190  1.00  0.00     0.236 C 
HETATM    5  C   UNL     1     -43.311  59.652 -52.445  1.00  0.00     0.028 C 
HETATM    6  C   UNL     1     -41.810  59.450 -52.315  1.00  0.00     0.004 C 
HETATM    7  C   UNL     1     -41.170  59.227 -53.680  1.00  0.00     0.040 C 
ENDROOT
BRANCH   2   8
HETATM    8  C   UNL     1     -44.088  57.283 -55.356  1.00  0.00     0.294 C 
BRANCH   8   9
HETATM    9  C   UNL     1     -44.411  57.749 -56.719  1.00  0.00     0.061 A 
HETATM   10  N   UNL     1     -43.956  57.156 -57.882  1.00  0.00    -0.305 N 
HETATM   11  C   UNL     1     -44.448  57.907 -58.922  1.00  0.00     0.151 A 
HETATM   12  C   UNL     1     -43.149  56.063 -58.149  1.00  0.00     0.118 A 
HETATM   13  C   UNL     1     -44.096  57.541 -60.267  1.00  0.00     0.167 A 
HETATM   14  N   UNL     1     -45.198  58.903 -58.515  1.00  0.00    -0.239 NA
HETATM   15  N   UNL     1     -43.315  56.522 -60.510  1.00  0.00    -0.268 NA
HETATM   16  C   UNL     1     -42.857  55.785 -59.432  1.00  0.00     0.134 A 
HETATM   17  C   UNL     1     -45.218  58.788 -57.153  1.00  0.00     0.146 A 
ENDBRANCH   8   9
ENDBRANCH   2   8
BRANCH   1  18
HETATM   18  C   UNL     1     -41.397  56.740 -54.095  1.00  0.00     0.041 A 
HETATM   19  N   UNL     1     -40.908  55.846 -55.029  1.00  0.00    -0.357 N 
HETATM   20  C   UNL     1     -40.660  54.623 -54.451  1.00  0.00     0.042 A 
HETATM   21  H   UNL     1     -40.770  56.025 -56.017  1.00  0.00     0.166 HD
HETATM   22  C   UNL     1     -40.908  54.756 -53.088  1.00  0.00    -0.008 A 
HETATM   23  C   UNL     1     -40.225  53.425 -55.027  1.00  0.00     0.030 A 
HETATM   24  C   UNL     1     -40.704  53.646 -52.248  1.00  0.00     0.014 A 
HETATM   25  C   UNL     1     -41.341  56.092 -52.873  1.00  0.00     0.040 A 
HETATM   26  C   UNL     1     -40.271  52.438 -52.807  1.00  0.00     0.001 A 
HETATM   27  C   UNL     1     -40.039  52.332 -54.176  1.00  0.00     0.002 A 
ENDBRANCH   1  18
TORSDOF 3
ENDMDL
MODEL 5
REMARK VINA RESULT:      -8.1      1.597      7.154
REMARK  3 active torsions:
REMARK  status: ('A' for Active; 'I' for Inactive)
REMARK    1  A    between atoms: C_7  and  C_8 
REMARK    2  A    between atoms: N_9  and  C_11 
REMARK    3  A    between atoms: C_11  and  C_12 
ROOT
HETATM    1  C   UNL     1     -43.251  56.092 -54.435  1.00  0.00     0.238 C 
HETATM    2  N   UNL     1     -42.154  56.423 -53.433  1.00  0.00    -0.056 N 
HETATM    3  H   UNL     1     -42.355  55.838 -52.615  1.00  0.00     0.281 HD
HETATM    4  C   UNL     1     -42.171  57.844 -52.929  1.00  0.00     0.236 C 
HETATM    5  C   UNL     1     -43.533  58.180 -52.344  1.00  0.00     0.028 C 
HETATM    6  C   UNL     1     -44.655  57.939 -53.341  1.00  0.00     0.004 C 
HETATM    7  C   UNL     1     -44.616  56.512 -53.872  1.00  0.00     0.040 C 
ENDROOT
BRANCH   2   8
HETATM    8  C   UNL     1     -40.760  56.024 -53.879  1.00  0.00     0.294 C 
BRANCH   8   9
HETATM    9  C   UNL     1     -40.538  54.565 -53.833  1.00  0.00     0.061 A 
HETATM   10  N   UNL     1     -40.438  53.821 -52.673  1.00  0.00    -0.305 N 
HETATM   11  C   UNL     1     -40.196  52.525 -53.060  1.00  0.00     0.151 A 
HETATM   12  C   UNL     1     -40.505  54.131 -51.325  1.00  0.00     0.118 A 
HETATM   13  C   UNL     1     -40.004  51.523 -52.046  1.00  0.00     0.167 A 
HETATM   14  N   UNL     1     -40.165  52.384 -54.364  1.00  0.00    -0.239 NA
HETATM   15  N   UNL     1     -40.047  51.828 -50.776  1.00  0.00    -0.268 NA
HETATM   16  C   UNL     1     -40.310  53.143 -50.434  1.00  0.00     0.134 A 
HETATM   17  C   UNL     1     -40.419  53.635 -54.853  1.00  0.00     0.146 A 
ENDBRANCH   8   9
ENDBRANCH   2   8
BRANCH   1  18
HETATM   18  C   UNL     1     -43.002  56.598 -55.821  1.00  0.00     0.041 A 
HETATM   19  N   UNL     1     -43.242  55.794 -56.920  1.00  0.00    -0.357 N 
HETATM   20  C   UNL     1     -42.860  56.427 -58.079  1.00  0.00     0.042 A 
HETATM   21  H   UNL     1     -43.616  54.853 -56.904  1.00  0.00     0.166 HD
HETATM   22  C   UNL     1     -42.447  57.709 -57.730  1.00  0.00    -0.008 A 
HETATM   23  C   UNL     1     -42.862  55.966 -59.400  1.00  0.00     0.030 A 
HETATM   24  C   UNL     1     -42.024  58.587 -58.745  1.00  0.00     0.014 A 
HETATM   25  C   UNL     1     -42.567  57.815 -56.319  1.00  0.00     0.040 A 
HETATM   26  C   UNL     1     -42.018  58.143 -60.073  1.00  0.00     0.001 A 
HETATM   27  C   UNL     1     -42.429  56.850 -60.391  1.00  0.00     0.002 A 
ENDBRANCH   1  18
TORSDOF 3
ENDMDL
MODEL 6
REMARK VINA RESULT:      -8.0      2.473      6.668
REMARK  3 active torsions:
REMARK  status: ('A' for Active; 'I' for Inactive)
REMARK    1  A    between atoms: C_7  and  C_8 
REMARK    2  A    between atoms: N_9  and  C_11 
REMARK    3  A    between atoms: C_11  and  C_12 
ROOT
HETATM    1  C   UNL     1     -41.673  56.122 -54.835  1.00  0.00     0.238 C 
HETATM    2  N   UNL     1     -42.657  55.770 -53.729  1.00  0.00    -0.056 N 
HETATM    3  H   UNL     1     -42.189  56.046 -52.859  1.00  0.00     0.281 HD
HETATM    4  C   UNL     1     -42.942  54.296 -53.585  1.00  0.00     0.236 C 
HETATM    5  C   UNL     1     -41.646  53.524 -53.399  1.00  0.00     0.028 C 
HETATM    6  C   UNL     1     -40.661  53.785 -54.528  1.00  0.00     0.004 C 
HETATM    7  C   UNL     1     -40.400  55.277 -54.690  1.00  0.00     0.040 C 
ENDROOT
BRANCH   2   8
HETATM    8  C   UNL     1     -43.946  56.569 -53.762  1.00  0.00     0.294 C 
BRANCH   8   9
HETATM    9  C   UNL     1     -43.910  57.754 -52.881  1.00  0.00     0.061 A 
HETATM   10  N   UNL     1     -43.538  59.022 -53.284  1.00  0.00    -0.305 N 
HETATM   11  C   UNL     1     -43.605  59.822 -52.169  1.00  0.00     0.151 A 
HETATM   12  C   UNL     1     -43.126  59.563 -54.490  1.00  0.00     0.118 A 
HETATM   13  C   UNL     1     -43.226  61.204 -52.285  1.00  0.00     0.167 A 
HETATM   14  N   UNL     1     -44.015  59.172 -51.106  1.00  0.00    -0.239 NA
HETATM   15  N   UNL     1     -42.816  61.702 -53.421  1.00  0.00    -0.268 NA
HETATM   16  C   UNL     1     -42.782  60.863 -54.521  1.00  0.00     0.134 A 
HETATM   17  C   UNL     1     -44.250  57.900 -51.546  1.00  0.00     0.146 A 
ENDBRANCH   8   9
ENDBRANCH   2   8
BRANCH   1  18
HETATM   18  C   UNL     1     -42.250  56.088 -56.216  1.00  0.00     0.041 A 
HETATM   19  N   UNL     1     -42.161  57.191 -57.045  1.00  0.00    -0.357 N 
HETATM   20  C   UNL     1     -42.834  56.970 -58.223  1.00  0.00     0.042 A 
HETATM   21  H   UNL     1     -41.699  58.067 -56.831  1.00  0.00     0.166 HD
HETATM   22  C   UNL     1     -43.294  55.657 -58.194  1.00  0.00    -0.008 A 
HETATM   23  C   UNL     1     -43.056  57.824 -59.308  1.00  0.00     0.030 A 
HETATM   24  C   UNL     1     -44.001  55.159 -59.303  1.00  0.00     0.014 A 
HETATM   25  C   UNL     1     -42.898  55.106 -56.946  1.00  0.00     0.040 A 
HETATM   26  C   UNL     1     -44.235  56.000 -60.397  1.00  0.00     0.001 A 
HETATM   27  C   UNL     1     -43.770  57.313 -60.395  1.00  0.00     0.002 A 
ENDBRANCH   1  18
TORSDOF 3
ENDMDL
MODEL 7
REMARK VINA RESULT:      -8.0      2.273      7.008
REMARK  3 active torsions:
REMARK  status: ('A' for Active; 'I' for Inactive)
REMARK    1  A    between atoms: C_7  and  C_8 
REMARK    2  A    between atoms: N_9  and  C_11 
REMARK    3  A    between atoms: C_11  and  C_12 
ROOT
HETATM    1  C   UNL     1     -41.553  56.061 -54.861  1.00  0.00     0.238 C 
HETATM    2  N   UNL     1     -42.524  55.772 -53.725  1.00  0.00    -0.056 N 
HETATM    3  H   UNL     1     -42.010  56.009 -52.869  1.00  0.00     0.281 HD
HETATM    4  C   UNL     1     -42.907  54.321 -53.579  1.00  0.00     0.236 C 
HETATM    5  C   UNL     1     -41.664  53.459 -53.437  1.00  0.00     0.028 C 
HETATM    6  C   UNL     1     -40.699  53.657 -54.595  1.00  0.00     0.004 C 
HETATM    7  C   UNL     1     -40.338  55.128 -54.759  1.00  0.00     0.040 C 
ENDROOT
BRANCH   2   8
HETATM    8  C   UNL     1     -43.753  56.660 -53.714  1.00  0.00     0.294 C 
BRANCH   8   9
HETATM    9  C   UNL     1     -43.484  58.008 -53.174  1.00  0.00     0.061 A 
HETATM   10  N   UNL     1     -42.589  58.285 -52.159  1.00  0.00    -0.305 N 
HETATM   11  C   UNL     1     -42.662  59.637 -51.931  1.00  0.00     0.151 A 
HETATM   12  C   UNL     1     -41.737  57.507 -51.392  1.00  0.00     0.118 A 
HETATM   13  C   UNL     1     -41.858  60.208 -50.884  1.00  0.00     0.167 A 
HETATM   14  N   UNL     1     -43.505  60.240 -52.735  1.00  0.00    -0.239 NA
HETATM   15  N   UNL     1     -41.074  59.464 -50.150  1.00  0.00    -0.268 NA
HETATM   16  C   UNL     1     -41.019  58.109 -50.428  1.00  0.00     0.134 A 
HETATM   17  C   UNL     1     -43.988  59.246 -53.539  1.00  0.00     0.146 A 
ENDBRANCH   8   9
ENDBRANCH   2   8
BRANCH   1  18
HETATM   18  C   UNL     1     -42.174  56.077 -56.222  1.00  0.00     0.041 A 
HETATM   19  N   UNL     1     -42.095  57.203 -57.021  1.00  0.00    -0.357 N 
HETATM   20  C   UNL     1     -42.808  57.027 -58.183  1.00  0.00     0.042 A 
HETATM   21  H   UNL     1     -41.614  58.066 -56.796  1.00  0.00     0.166 HD
HETATM   22  C   UNL     1     -43.286  55.720 -58.178  1.00  0.00    -0.008 A 
HETATM   23  C   UNL     1     -43.052  57.917 -59.234  1.00  0.00     0.030 A 
HETATM   24  C   UNL     1     -44.035  55.265 -59.278  1.00  0.00     0.014 A 
HETATM   25  C   UNL     1     -42.858  55.126 -56.960  1.00  0.00     0.040 A 
HETATM   26  C   UNL     1     -44.291  56.142 -60.339  1.00  0.00     0.001 A 
HETATM   27  C   UNL     1     -43.808  57.449 -60.313  1.00  0.00     0.002 A 
ENDBRANCH   1  18
TORSDOF 3
ENDMDL
MODEL 8
REMARK VINA RESULT:      -7.9      3.220      6.228
REMARK  3 active torsions:
REMARK  status: ('A' for Active; 'I' for Inactive)
REMARK    1  A    between atoms: C_7  and  C_8 
REMARK    2  A    between atoms: N_9  and  C_11 
REMARK    3  A    between atoms: C_11  and  C_12 
ROOT
HETATM    1  C   UNL     1     -43.336  55.887 -54.079  1.00  0.00     0.238 C 
HETATM    2  N   UNL     1     -43.155  57.275 -53.481  1.00  0.00    -0.056 N 
HETATM    3  H   UNL     1     -44.021  57.777 -53.708  1.00  0.00     0.281 HD
HETATM    4  C   UNL     1     -42.044  58.086 -54.097  1.00  0.00     0.236 C 
HETATM    5  C   UNL     1     -42.234  58.185 -55.602  1.00  0.00     0.028 C 
HETATM    6  C   UNL     1     -42.340  56.816 -56.254  1.00  0.00     0.004 C 
HETATM    7  C   UNL     1     -43.443  55.988 -55.607  1.00  0.00     0.040 C 
ENDROOT
BRANCH   2   8
HETATM    8  C   UNL     1     -43.065  57.295 -51.967  1.00  0.00     0.294 C 
BRANCH   8   9
HETATM    9  C   UNL     1     -44.086  58.158 -51.341  1.00  0.00     0.061 A 
HETATM   10  N   UNL     1     -43.878  59.468 -50.952  1.00  0.00    -0.305 N 
HETATM   11  C   UNL     1     -45.053  59.898 -50.385  1.00  0.00     0.151 A 
HETATM   12  C   UNL     1     -42.790  60.323 -51.005  1.00  0.00     0.118 A 
HETATM   13  C   UNL     1     -45.115  61.230 -49.847  1.00  0.00     0.167 A 
HETATM   14  N   UNL     1     -45.992  58.983 -50.412  1.00  0.00    -0.239 NA
HETATM   15  N   UNL     1     -44.077  62.023 -49.881  1.00  0.00    -0.268 NA
HETATM   16  C   UNL     1     -42.920  61.553 -50.476  1.00  0.00     0.134 A 
HETATM   17  C   UNL     1     -45.416  57.915 -51.041  1.00  0.00     0.146 A 
ENDBRANCH   8   9
ENDBRANCH   2   8
BRANCH   1  18
HETATM   18  C   UNL     1     -42.331  54.877 -53.622  1.00  0.00     0.041 A 
HETATM   19  N   UNL     1     -41.959  53.829 -54.445  1.00  0.00    -0.357 N 
HETATM   20  C   UNL     1     -41.099  52.979 -53.791  1.00  0.00     0.042 A 
HETATM   21  H   UNL     1     -42.283  53.665 -55.391  1.00  0.00     0.166 HD
HETATM   22  C   UNL     1     -40.835  53.539 -52.546  1.00  0.00    -0.008 A 
HETATM   23  C   UNL     1     -40.531  51.773 -54.214  1.00  0.00     0.030 A 
HETATM   24  C   UNL     1     -39.952  52.875 -51.675  1.00  0.00     0.014 A 
HETATM   25  C   UNL     1     -41.588  54.741 -52.462  1.00  0.00     0.040 A 
HETATM   26  C   UNL     1     -39.374  51.666 -52.079  1.00  0.00     0.001 A 
HETATM   27  C   UNL     1     -39.664  51.124 -53.330  1.00  0.00     0.002 A 
ENDBRANCH   1  18
TORSDOF 3
ENDMDL
MODEL 9
REMARK VINA RESULT:      -7.8      1.993      5.143
REMARK  3 active torsions:
REMARK  status: ('A' for Active; 'I' for Inactive)
REMARK    1  A    between atoms: C_7  and  C_8 
REMARK    2  A    between atoms: N_9  and  C_11 
REMARK    3  A    between atoms: C_11  and  C_12 
ROOT
HETATM    1  C   UNL     1     -42.676  55.272 -53.629  1.00  0.00     0.238 C 
HETATM    2  N   UNL     1     -41.977  55.299 -54.980  1.00  0.00    -0.056 N 
HETATM    3  H   UNL     1     -42.466  54.596 -55.546  1.00  0.00     0.281 HD
HETATM    4  C   UNL     1     -40.534  54.863 -54.951  1.00  0.00     0.236 C 
HETATM    5  C   UNL     1     -40.412  53.484 -54.325  1.00  0.00     0.028 C 
HETATM    6  C   UNL     1     -41.028  53.432 -52.936  1.00  0.00     0.004 C 
HETATM    7  C   UNL     1     -42.477  53.903 -52.965  1.00  0.00     0.040 C 
ENDROOT
BRANCH   2   8
HETATM    8  C   UNL     1     -42.133  56.603 -55.739  1.00  0.00     0.294 C 
BRANCH   8   9
HETATM    9  C   UNL     1     -42.654  56.414 -57.108  1.00  0.00     0.061 A 
HETATM   10  N   UNL     1     -42.581  57.357 -58.114  1.00  0.00    -0.305 N 
HETATM   11  C   UNL     1     -43.207  56.811 -59.208  1.00  0.00     0.151 A 
HETATM   12  C   UNL     1     -42.063  58.639 -58.192  1.00  0.00     0.118 A 
HETATM   13  C   UNL     1     -43.319  57.597 -60.406  1.00  0.00     0.167 A 
HETATM   14  N   UNL     1     -43.641  55.593 -58.986  1.00  0.00    -0.239 NA
HETATM   15  N   UNL     1     -42.847  58.815 -60.465  1.00  0.00    -0.268 NA
HETATM   16  C   UNL     1     -42.210  59.317 -59.344  1.00  0.00     0.134 A 
HETATM   17  C   UNL     1     -43.265  55.321 -57.701  1.00  0.00     0.146 A 
ENDBRANCH   8   9
ENDBRANCH   2   8
BRANCH   1  18
HETATM   18  C   UNL     1     -42.337  56.420 -52.730  1.00  0.00     0.041 A 
HETATM   19  N   UNL     1     -43.272  57.400 -52.454  1.00  0.00    -0.357 N 
HETATM   20  C   UNL     1     -42.720  58.398 -51.686  1.00  0.00     0.042 A 
HETATM   21  H   UNL     1     -44.230  57.426 -52.783  1.00  0.00     0.166 HD
HETATM   22  C   UNL     1     -41.419  58.009 -51.381  1.00  0.00    -0.008 A 
HETATM   23  C   UNL     1     -43.276  59.599 -51.233  1.00  0.00     0.030 A 
HETATM   24  C   UNL     1     -40.629  58.849 -50.574  1.00  0.00     0.014 A 
HETATM   25  C   UNL     1     -41.200  56.757 -52.015  1.00  0.00     0.040 A 
HETATM   26  C   UNL     1     -41.168  60.055 -50.112  1.00  0.00     0.001 A 
HETATM   27  C   UNL     1     -42.471  60.423 -50.441  1.00  0.00     0.002 A 
ENDBRANCH   1  18
TORSDOF 3
ENDMDL
MODEL 10
REMARK VINA RESULT:      -7.7      2.022      4.817
REMARK  3 active torsions:
REMARK  status: ('A' for Active; 'I' for Inactive)
REMARK    1  A    between atoms: C_7  and  C_8 
REMARK    2  A    between atoms: N_9  and  C_11 
REMARK    3  A    between atoms: C_11  and  C_12 
ROOT
HETATM    1  C   UNL     1     -42.861  55.039 -53.249  1.00  0.00     0.238 C 
HETATM    2  N   UNL     1     -42.882  55.095 -54.770  1.00  0.00    -0.056 N 
HETATM    3  H   UNL     1     -43.288  54.200 -55.064  1.00  0.00     0.281 HD
HETATM    4  C   UNL     1     -41.520  55.154 -55.415  1.00  0.00     0.236 C 
HETATM    5  C   UNL     1     -40.663  53.991 -54.945  1.00  0.00     0.028 C 
HETATM    6  C   UNL     1     -40.549  53.943 -53.430  1.00  0.00     0.004 C 
HETATM    7  C   UNL     1     -41.927  53.915 -52.781  1.00  0.00     0.040 C 
ENDROOT
BRANCH   2   8
HETATM    8  C   UNL     1     -43.799  56.159 -55.343  1.00  0.00     0.294 C 
BRANCH   8   9
HETATM    9  C   UNL     1     -43.123  57.036 -56.320  1.00  0.00     0.061 A 
HETATM   10  N   UNL     1     -43.014  56.771 -57.671  1.00  0.00    -0.305 N 
HETATM   11  C   UNL     1     -42.289  57.804 -58.215  1.00  0.00     0.151 A 
HETATM   12  C   UNL     1     -43.443  55.735 -58.484  1.00  0.00     0.118 A 
HETATM   13  C   UNL     1     -41.983  57.771 -59.619  1.00  0.00     0.167 A 
HETATM   14  N   UNL     1     -41.958  58.711 -57.327  1.00  0.00    -0.239 NA
HETATM   15  N   UNL     1     -42.371  56.778 -60.375  1.00  0.00    -0.268 NA
HETATM   16  C   UNL     1     -43.113  55.769 -59.787  1.00  0.00     0.134 A 
HETATM   17  C   UNL     1     -42.508  58.267 -56.157  1.00  0.00     0.146 A 
ENDBRANCH   8   9
ENDBRANCH   2   8
BRANCH   1  18
HETATM   18  C   UNL     1     -42.590  56.351 -52.581  1.00  0.00     0.041 A 
HETATM   19  N   UNL     1     -41.314  56.678 -52.162  1.00  0.00    -0.357 N 
HETATM   20  C   UNL     1     -41.313  57.881 -51.497  1.00  0.00     0.042 A 
HETATM   21  H   UNL     1     -40.480  56.116 -52.283  1.00  0.00     0.166 HD
HETATM   22  C   UNL     1     -42.606  58.390 -51.568  1.00  0.00    -0.008 A 
HETATM   23  C   UNL     1     -40.269  58.557 -50.857  1.00  0.00     0.030 A 
HETATM   24  C   UNL     1     -42.878  59.641 -50.983  1.00  0.00     0.014 A 
HETATM   25  C   UNL     1     -43.390  57.438 -52.274  1.00  0.00     0.040 A 
HETATM   26  C   UNL     1     -41.846  60.330 -50.336  1.00  0.00     0.001 A 
HETATM   27  C   UNL     1     -40.563  59.792 -50.273  1.00  0.00     0.002 A 
ENDBRANCH   1  18
TORSDOF 3
ENDMDL
