MODEL 1
REMARK VINA RESULT:      -8.3      0.000      0.000
REMARK  4 active torsions:
REMARK  status: ('A' for Active; 'I' for Inactive)
REMARK    1  A    between atoms: C_4  and  C_5 
REMARK    2  A    between atoms: C_5  and  C_6 
REMARK       I    between atoms: C_6  and  N_7 
REMARK    3  A    between atoms: N_7  and  N_8 
REMARK       I    between atoms: N_8  and  C_9 
REMARK    4  A    between atoms: C_9  and  C_10 
ROOT
HETATM    1  N   UNL     1     -41.077  54.848 -54.909  1.00  0.00    -0.263 N 
HETATM    2  C   UNL     1     -41.390  54.897 -53.563  1.00  0.00     0.272 C 
HETATM    3  O   UNL     1     -42.143  55.761 -53.112  1.00  0.00    -0.266 OA
HETATM    4  H   UNL     1     -40.386  54.211 -55.296  1.00  0.00     0.190 HD
ENDROOT
BRANCH   1   5
HETATM    5  N   UNL     1     -41.479  55.903 -55.738  1.00  0.00    -0.267 N 
HETATM    6  C   UNL     1     -42.561  55.695 -56.566  1.00  0.00     0.240 C 
HETATM    7  O   UNL     1     -43.255  54.678 -56.491  1.00  0.00    -0.271 OA
HETATM    8  H   UNL     1     -40.816  56.670 -55.862  1.00  0.00     0.190 HD
BRANCH   6   9
HETATM    9  C   UNL     1     -42.776  56.745 -57.638  1.00  0.00     0.150 C 
BRANCH   9  10
HETATM   10  C   UNL     1     -43.768  56.300 -58.669  1.00  0.00    -0.008 A 
HETATM   11  S   UNL     1     -45.286  57.082 -58.796  1.00  0.00    -0.099 SA
HETATM   12  C   UNL     1     -45.753  56.118 -60.127  1.00  0.00    -0.021 A 
HETATM   13  C   UNL     1     -47.080  56.319 -60.777  1.00  0.00     0.056 C 
HETATM   14  C   UNL     1     -44.777  55.201 -60.457  1.00  0.00     0.015 A 
HETATM   15  C   UNL     1     -43.630  55.308 -59.618  1.00  0.00     0.016 A 
ENDBRANCH   9  10
ENDBRANCH   6   9
ENDBRANCH   1   5
BRANCH   2  16
HETATM   16  C   UNL     1     -40.758  53.871 -52.732  1.00  0.00     0.061 A 
HETATM   17  C   UNL     1     -40.448  52.522 -53.124  1.00  0.00     0.008 A 
HETATM   18  C   UNL     1     -39.873  51.879 -52.026  1.00  0.00     0.043 A 
HETATM   19  C   UNL     1     -40.600  51.784 -54.318  1.00  0.00     0.015 A 
HETATM   20  C   UNL     1     -39.451  50.545 -52.058  1.00  0.00     0.030 A 
HETATM   21  N   UNL     1     -39.832  52.793 -51.001  1.00  0.00    -0.364 N 
HETATM   22  C   UNL     1     -39.614  49.841 -53.254  1.00  0.00     0.002 A 
HETATM   23  C   UNL     1     -40.180  50.449 -54.371  1.00  0.00     0.001 A 
HETATM   24  H   UNL     1     -39.468  52.598 -50.078  1.00  0.00     0.165 HD
HETATM   25  C   UNL     1     -40.355  53.991 -51.409  1.00  0.00     0.106 A 
ENDBRANCH   2  16
TORSDOF 4
ENDMDL
MODEL 2
REMARK VINA RESULT:      -8.0      2.269      2.621
REMARK  4 active torsions:
REMARK  status: ('A' for Active; 'I' for Inactive)
REMARK    1  A    between atoms: C_4  and  C_5 
REMARK    2  A    between atoms: C_5  and  C_6 
REMARK       I    between atoms: C_6  and  N_7 
REMARK    3  A    between atoms: N_7  and  N_8 
REMARK       I    between atoms: N_8  and  C_9 
REMARK    4  A    between atoms: C_9  and  C_10 
ROOT
HETATM    1  N   UNL     1     -42.334  54.786 -53.812  1.00  0.00    -0.263 N 
HETATM    2  C   UNL     1     -40.964  54.606 -53.738  1.00  0.00     0.272 C 
HETATM    3  O   UNL     1     -40.194  55.267 -54.435  1.00  0.00    -0.266 OA
HETATM    4  H   UNL     1     -42.999  54.193 -53.324  1.00  0.00     0.190 HD
ENDROOT
BRANCH   1   5
HETATM    5  N   UNL     1     -42.857  55.602 -54.823  1.00  0.00    -0.267 N 
HETATM    6  C   UNL     1     -43.522  56.749 -54.445  1.00  0.00     0.240 C 
HETATM    7  O   UNL     1     -43.542  57.137 -53.274  1.00  0.00    -0.271 OA
HETATM    8  H   UNL     1     -42.930  55.192 -55.755  1.00  0.00     0.190 HD
BRANCH   6   9
HETATM    9  C   UNL     1     -44.312  57.439 -55.540  1.00  0.00     0.150 C 
BRANCH   9  10
HETATM   10  C   UNL     1     -43.437  57.868 -56.677  1.00  0.00    -0.008 A 
HETATM   11  S   UNL     1     -43.490  57.027 -58.168  1.00  0.00    -0.099 SA
HETATM   12  C   UNL     1     -42.354  58.083 -58.887  1.00  0.00    -0.021 A 
HETATM   13  C   UNL     1     -41.939  57.892 -60.306  1.00  0.00     0.056 C 
HETATM   14  C   UNL     1     -41.925  59.047 -57.999  1.00  0.00     0.015 A 
HETATM   15  C   UNL     1     -42.552  58.926 -56.726  1.00  0.00     0.016 A 
ENDBRANCH   9  10
ENDBRANCH   6   9
ENDBRANCH   1   5
BRANCH   2  16
HETATM   16  C   UNL     1     -40.515  53.581 -52.795  1.00  0.00     0.061 A 
HETATM   17  C   UNL     1     -40.233  52.203 -53.097  1.00  0.00     0.008 A 
HETATM   18  C   UNL     1     -39.855  51.574 -51.908  1.00  0.00     0.043 A 
HETATM   19  C   UNL     1     -40.262  51.427 -54.276  1.00  0.00     0.015 A 
HETATM   20  C   UNL     1     -39.512  50.219 -51.839  1.00  0.00     0.030 A 
HETATM   21  N   UNL     1     -39.902  52.524 -50.917  1.00  0.00    -0.364 N 
HETATM   22  C   UNL     1     -39.549  49.478 -53.023  1.00  0.00     0.002 A 
HETATM   23  C   UNL     1     -39.918  50.071 -54.227  1.00  0.00     0.001 A 
HETATM   24  H   UNL     1     -39.682  52.346 -49.947  1.00  0.00     0.165 HD
HETATM   25  C   UNL     1     -40.293  53.732 -51.433  1.00  0.00     0.106 A 
ENDBRANCH   2  16
TORSDOF 4
ENDMDL
MODEL 3
REMARK VINA RESULT:      -7.9      2.339      2.840
REMARK  4 active torsions:
REMARK  status: ('A' for Active; 'I' for Inactive)
REMARK    1  A    between atoms: C_4  and  C_5 
REMARK    2  A    between atoms: C_5  and  C_6 
REMARK       I    between atoms: C_6  and  N_7 
REMARK    3  A    between atoms: N_7  and  N_8 
REMARK       I    between atoms: N_8  and  C_9 
REMARK    4  A    between atoms: C_9  and  C_10 
ROOT
HETATM    1  N   UNL     1     -41.465  55.178 -55.942  1.00  0.00    -0.263 N 
HETATM    2  C   UNL     1     -42.116  54.284 -55.113  1.00  0.00     0.272 C 
HETATM    3  O   UNL     1     -43.258  53.896 -55.361  1.00  0.00    -0.266 OA
HETATM    4  H   UNL     1     -40.565  55.591 -55.716  1.00  0.00     0.190 HD
ENDROOT
BRANCH   1   5
HETATM    5  N   UNL     1     -42.183  55.788 -56.980  1.00  0.00    -0.267 N 
HETATM    6  C   UNL     1     -42.639  57.073 -56.779  1.00  0.00     0.240 C 
HETATM    7  O   UNL     1     -42.315  57.734 -55.790  1.00  0.00    -0.271 OA
HETATM    8  H   UNL     1     -42.533  55.176 -57.718  1.00  0.00     0.190 HD
BRANCH   6   9
HETATM    9  C   UNL     1     -43.645  57.577 -57.796  1.00  0.00     0.150 C 
BRANCH   9  10
HETATM   10  C   UNL     1     -42.988  58.344 -58.902  1.00  0.00    -0.008 A 
HETATM   11  S   UNL     1     -42.889  60.051 -58.824  1.00  0.00    -0.099 SA
HETATM   12  C   UNL     1     -42.021  60.141 -60.294  1.00  0.00    -0.021 A 
HETATM   13  C   UNL     1     -41.579  61.460 -60.830  1.00  0.00     0.056 C 
HETATM   14  C   UNL     1     -41.828  58.892 -60.846  1.00  0.00     0.015 A 
HETATM   15  C   UNL     1     -42.382  57.855 -60.042  1.00  0.00     0.016 A 
ENDBRANCH   9  10
ENDBRANCH   6   9
ENDBRANCH   1   5
BRANCH   2  16
HETATM   16  C   UNL     1     -41.361  53.855 -53.935  1.00  0.00     0.061 A 
HETATM   17  C   UNL     1     -40.772  52.560 -53.718  1.00  0.00     0.008 A 
HETATM   18  C   UNL     1     -40.165  52.572 -52.461  1.00  0.00     0.043 A 
HETATM   19  C   UNL     1     -40.695  51.374 -54.480  1.00  0.00     0.015 A 
HETATM   20  C   UNL     1     -39.495  51.465 -51.927  1.00  0.00     0.030 A 
HETATM   21  N   UNL     1     -40.372  53.819 -51.925  1.00  0.00    -0.364 N 
HETATM   22  C   UNL     1     -39.436  50.305 -52.705  1.00  0.00     0.002 A 
HETATM   23  C   UNL     1     -40.025  50.258 -53.965  1.00  0.00     0.001 A 
HETATM   24  H   UNL     1     -40.045  54.110 -51.014  1.00  0.00     0.165 HD
HETATM   25  C   UNL     1     -41.084  54.600 -52.797  1.00  0.00     0.106 A 
ENDBRANCH   2  16
TORSDOF 4
ENDMDL
MODEL 4
REMARK VINA RESULT:      -7.8      2.735      8.351
REMARK  4 active torsions:
REMARK  status: ('A' for Active; 'I' for Inactive)
REMARK    1  A    between atoms: C_4  and  C_5 
REMARK    2  A    between atoms: C_5  and  C_6 
REMARK       I    between atoms: C_6  and  N_7 
REMARK    3  A    between atoms: N_7  and  N_8 
REMARK       I    between atoms: N_8  and  C_9 
REMARK    4  A    between atoms: C_9  and  C_10 
ROOT
HETATM    1  N   UNL     1     -42.533  55.436 -56.805  1.00  0.00    -0.263 N 
HETATM    2  C   UNL     1     -42.739  56.774 -57.091  1.00  0.00     0.272 C 
HETATM    3  O   UNL     1     -41.919  57.632 -56.764  1.00  0.00    -0.266 OA
HETATM    4  H   UNL     1     -43.231  54.718 -56.974  1.00  0.00     0.190 HD
ENDROOT
BRANCH   1   5
HETATM    5  N   UNL     1     -41.464  55.078 -55.973  1.00  0.00    -0.267 N 
HETATM    6  C   UNL     1     -41.761  54.565 -54.728  1.00  0.00     0.240 C 
HETATM    7  O   UNL     1     -42.915  54.287 -54.394  1.00  0.00    -0.271 OA
HETATM    8  H   UNL     1     -40.542  55.433 -56.228  1.00  0.00     0.190 HD
BRANCH   6   9
HETATM    9  C   UNL     1     -40.594  54.467 -53.766  1.00  0.00     0.150 C 
BRANCH   9  10
HETATM   10  C   UNL     1     -40.256  53.045 -53.437  1.00  0.00    -0.008 A 
HETATM   11  S   UNL     1     -39.943  52.587 -51.816  1.00  0.00    -0.099 SA
HETATM   12  C   UNL     1     -39.727  50.947 -52.244  1.00  0.00    -0.021 A 
HETATM   13  C   UNL     1     -39.417  49.929 -51.201  1.00  0.00     0.056 C 
HETATM   14  C   UNL     1     -39.870  50.754 -53.603  1.00  0.00     0.015 A 
HETATM   15  C   UNL     1     -40.178  51.963 -54.290  1.00  0.00     0.016 A 
ENDBRANCH   9  10
ENDBRANCH   6   9
ENDBRANCH   1   5
BRANCH   2  16
HETATM   16  C   UNL     1     -43.988  57.082 -57.788  1.00  0.00     0.061 A 
HETATM   17  C   UNL     1     -44.494  56.434 -58.969  1.00  0.00     0.008 A 
HETATM   18  C   UNL     1     -45.701  57.049 -59.310  1.00  0.00     0.043 A 
HETATM   19  C   UNL     1     -44.037  55.375 -59.783  1.00  0.00     0.015 A 
HETATM   20  C   UNL     1     -46.465  56.665 -60.418  1.00  0.00     0.030 A 
HETATM   21  N   UNL     1     -45.929  58.033 -58.379  1.00  0.00    -0.364 N 
HETATM   22  C   UNL     1     -45.987  55.614 -61.204  1.00  0.00     0.002 A 
HETATM   23  C   UNL     1     -44.791  54.974 -60.893  1.00  0.00     0.001 A 
HETATM   24  H   UNL     1     -46.732  58.646 -58.384  1.00  0.00     0.165 HD
HETATM   25  C   UNL     1     -44.914  58.063 -57.460  1.00  0.00     0.106 A 
ENDBRANCH   2  16
TORSDOF 4
ENDMDL
MODEL 5
REMARK VINA RESULT:      -7.6      4.811      6.277
REMARK  4 active torsions:
REMARK  status: ('A' for Active; 'I' for Inactive)
REMARK    1  A    between atoms: C_4  and  C_5 
REMARK    2  A    between atoms: C_5  and  C_6 
REMARK       I    between atoms: C_6  and  N_7 
REMARK    3  A    between atoms: N_7  and  N_8 
REMARK       I    between atoms: N_8  and  C_9 
REMARK    4  A    between atoms: C_9  and  C_10 
ROOT
HETATM    1  N   UNL     1     -40.855  56.644 -50.347  1.00  0.00    -0.263 N 
HETATM    2  C   UNL     1     -41.634  55.668 -50.943  1.00  0.00     0.272 C 
HETATM    3  O   UNL     1     -42.756  55.924 -51.379  1.00  0.00    -0.266 OA
HETATM    4  H   UNL     1     -39.969  56.446 -49.892  1.00  0.00     0.190 HD
ENDROOT
BRANCH   1   5
HETATM    5  N   UNL     1     -41.425  57.894 -50.075  1.00  0.00    -0.267 N 
HETATM    6  C   UNL     1     -41.067  58.954 -50.881  1.00  0.00     0.240 C 
HETATM    7  O   UNL     1     -40.386  58.801 -51.898  1.00  0.00    -0.271 OA
HETATM    8  H   UNL     1     -41.876  58.007 -49.166  1.00  0.00     0.190 HD
BRANCH   6   9
HETATM    9  C   UNL     1     -41.474  60.325 -50.378  1.00  0.00     0.150 C 
BRANCH   9  10
HETATM   10  C   UNL     1     -42.949  60.554 -50.505  1.00  0.00    -0.008 A 
HETATM   11  S   UNL     1     -43.761  60.151 -51.958  1.00  0.00    -0.099 SA
HETATM   12  C   UNL     1     -45.280  60.610 -51.323  1.00  0.00    -0.021 A 
HETATM   13  C   UNL     1     -46.513  60.483 -52.150  1.00  0.00     0.056 C 
HETATM   14  C   UNL     1     -45.168  61.082 -50.032  1.00  0.00     0.015 A 
HETATM   15  C   UNL     1     -43.825  61.046 -49.558  1.00  0.00     0.016 A 
ENDBRANCH   9  10
ENDBRANCH   6   9
ENDBRANCH   1   5
BRANCH   2  16
HETATM   16  C   UNL     1     -41.035  54.334 -51.001  1.00  0.00     0.061 A 
HETATM   17  C   UNL     1     -40.673  53.608 -52.189  1.00  0.00     0.008 A 
HETATM   18  C   UNL     1     -40.155  52.372 -51.793  1.00  0.00     0.043 A 
HETATM   19  C   UNL     1     -40.733  53.887 -53.571  1.00  0.00     0.015 A 
HETATM   20  C   UNL     1     -39.705  51.408 -52.702  1.00  0.00     0.030 A 
HETATM   21  N   UNL     1     -40.198  52.339 -50.420  1.00  0.00    -0.364 N 
HETATM   22  C   UNL     1     -39.778  51.714 -54.063  1.00  0.00     0.002 A 
HETATM   23  C   UNL     1     -40.284  52.937 -54.495  1.00  0.00     0.001 A 
HETATM   24  H   UNL     1     -39.889  51.556 -49.860  1.00  0.00     0.165 HD
HETATM   25  C   UNL     1     -40.719  53.508 -49.931  1.00  0.00     0.106 A 
ENDBRANCH   2  16
TORSDOF 4
ENDMDL
MODEL 6
REMARK VINA RESULT:      -7.6      4.504      5.443
REMARK  4 active torsions:
REMARK  status: ('A' for Active; 'I' for Inactive)
REMARK    1  A    between atoms: C_4  and  C_5 
REMARK    2  A    between atoms: C_5  and  C_6 
REMARK       I    between atoms: C_6  and  N_7 
REMARK    3  A    between atoms: N_7  and  N_8 
REMARK       I    between atoms: N_8  and  C_9 
REMARK    4  A    between atoms: C_9  and  C_10 
ROOT
HETATM    1  N   UNL     1     -41.279  56.690 -53.328  1.00  0.00    -0.263 N 
HETATM    2  C   UNL     1     -41.960  55.795 -52.523  1.00  0.00     0.272 C 
HETATM    3  O   UNL     1     -43.165  55.921 -52.304  1.00  0.00    -0.266 OA
HETATM    4  H   UNL     1     -40.271  56.671 -53.451  1.00  0.00     0.190 HD
ENDROOT
BRANCH   1   5
HETATM    5  N   UNL     1     -41.932  57.855 -53.750  1.00  0.00    -0.267 N 
HETATM    6  C   UNL     1     -41.263  59.053 -53.616  1.00  0.00     0.240 C 
HETATM    7  O   UNL     1     -40.079  59.106 -53.276  1.00  0.00    -0.271 OA
HETATM    8  H   UNL     1     -42.939  57.788 -53.905  1.00  0.00     0.190 HD
BRANCH   6   9
HETATM    9  C   UNL     1     -42.106  60.298 -53.811  1.00  0.00     0.150 C 
BRANCH   9  10
HETATM   10  C   UNL     1     -43.312  60.304 -52.922  1.00  0.00    -0.008 A 
HETATM   11  S   UNL     1     -43.129  60.434 -51.225  1.00  0.00    -0.099 SA
HETATM   12  C   UNL     1     -44.819  60.435 -50.969  1.00  0.00    -0.021 A 
HETATM   13  C   UNL     1     -45.374  60.547 -49.591  1.00  0.00     0.056 C 
HETATM   14  C   UNL     1     -45.511  60.317 -52.157  1.00  0.00     0.015 A 
HETATM   15  C   UNL     1     -44.643  60.245 -53.284  1.00  0.00     0.016 A 
ENDBRANCH   9  10
ENDBRANCH   6   9
ENDBRANCH   1   5
BRANCH   2  16
HETATM   16  C   UNL     1     -41.149  54.717 -51.956  1.00  0.00     0.061 A 
HETATM   17  C   UNL     1     -40.702  53.530 -52.636  1.00  0.00     0.008 A 
HETATM   18  C   UNL     1     -39.977  52.762 -51.723  1.00  0.00     0.043 A 
HETATM   19  C   UNL     1     -40.845  53.036 -53.950  1.00  0.00     0.015 A 
HETATM   20  C   UNL     1     -39.396  51.532 -52.054  1.00  0.00     0.030 A 
HETATM   21  N   UNL     1     -39.977  53.445 -50.532  1.00  0.00    -0.364 N 
HETATM   22  C   UNL     1     -39.554  51.070 -53.363  1.00  0.00     0.002 A 
HETATM   23  C   UNL     1     -40.268  51.810 -54.301  1.00  0.00     0.001 A 
HETATM   24  H   UNL     1     -39.528  53.118 -49.687  1.00  0.00     0.165 HD
HETATM   25  C   UNL     1     -40.672  54.619 -50.656  1.00  0.00     0.106 A 
ENDBRANCH   2  16
TORSDOF 4
ENDMDL
MODEL 7
REMARK VINA RESULT:      -7.5      4.976      6.650
REMARK  4 active torsions:
REMARK  status: ('A' for Active; 'I' for Inactive)
REMARK    1  A    between atoms: C_4  and  C_5 
REMARK    2  A    between atoms: C_5  and  C_6 
REMARK       I    between atoms: C_6  and  N_7 
REMARK    3  A    between atoms: N_7  and  N_8 
REMARK       I    between atoms: N_8  and  C_9 
REMARK    4  A    between atoms: C_9  and  C_10 
ROOT
HETATM    1  N   UNL     1     -42.745  56.126 -51.591  1.00  0.00    -0.263 N 
HETATM    2  C   UNL     1     -41.485  55.982 -51.038  1.00  0.00     0.272 C 
HETATM    3  O   UNL     1     -40.871  56.949 -50.585  1.00  0.00    -0.266 OA
HETATM    4  H   UNL     1     -43.235  55.370 -52.058  1.00  0.00     0.190 HD
ENDROOT
BRANCH   1   5
HETATM    5  N   UNL     1     -43.250  57.416 -51.800  1.00  0.00    -0.267 N 
HETATM    6  C   UNL     1     -44.494  57.712 -51.284  1.00  0.00     0.240 C 
HETATM    7  O   UNL     1     -45.093  56.935 -50.537  1.00  0.00    -0.271 OA
HETATM    8  H   UNL     1     -42.791  57.980 -52.516  1.00  0.00     0.190 HD
BRANCH   6   9
HETATM    9  C   UNL     1     -45.116  59.003 -51.777  1.00  0.00     0.150 C 
BRANCH   9  10
HETATM   10  C   UNL     1     -44.669  60.185 -50.973  1.00  0.00    -0.008 A 
HETATM   11  S   UNL     1     -43.542  61.296 -51.629  1.00  0.00    -0.099 SA
HETATM   12  C   UNL     1     -43.605  62.292 -50.242  1.00  0.00    -0.021 A 
HETATM   13  C   UNL     1     -42.795  63.541 -50.172  1.00  0.00     0.056 C 
HETATM   14  C   UNL     1     -44.454  61.775 -49.285  1.00  0.00     0.015 A 
HETATM   15  C   UNL     1     -45.070  60.563 -49.708  1.00  0.00     0.016 A 
ENDBRANCH   9  10
ENDBRANCH   6   9
ENDBRANCH   1   5
BRANCH   2  16
HETATM   16  C   UNL     1     -40.947  54.622 -51.046  1.00  0.00     0.061 A 
HETATM   17  C   UNL     1     -40.621  53.835 -52.205  1.00  0.00     0.008 A 
HETATM   18  C   UNL     1     -40.158  52.593 -51.763  1.00  0.00     0.043 A 
HETATM   19  C   UNL     1     -40.673  54.065 -53.597  1.00  0.00     0.015 A 
HETATM   20  C   UNL     1     -39.754  51.576 -52.636  1.00  0.00     0.030 A 
HETATM   21  N   UNL     1     -40.198  52.614 -50.391  1.00  0.00    -0.364 N 
HETATM   22  C   UNL     1     -39.817  51.834 -54.007  1.00  0.00     0.002 A 
HETATM   23  C   UNL     1     -40.269  53.060 -54.485  1.00  0.00     0.001 A 
HETATM   24  H   UNL     1     -39.924  51.840 -49.801  1.00  0.00     0.165 HD
HETATM   25  C   UNL     1     -40.665  53.823 -49.946  1.00  0.00     0.106 A 
ENDBRANCH   2  16
TORSDOF 4
ENDMDL
MODEL 8
REMARK VINA RESULT:      -7.4      3.900      4.714
REMARK  4 active torsions:
REMARK  status: ('A' for Active; 'I' for Inactive)
REMARK    1  A    between atoms: C_4  and  C_5 
REMARK    2  A    between atoms: C_5  and  C_6 
REMARK       I    between atoms: C_6  and  N_7 
REMARK    3  A    between atoms: N_7  and  N_8 
REMARK       I    between atoms: N_8  and  C_9 
REMARK    4  A    between atoms: C_9  and  C_10 
ROOT
HETATM    1  N   UNL     1     -42.286  56.607 -50.568  1.00  0.00    -0.263 N 
HETATM    2  C   UNL     1     -41.657  55.979 -51.627  1.00  0.00     0.272 C 
HETATM    3  O   UNL     1     -41.656  56.474 -52.755  1.00  0.00    -0.266 OA
HETATM    4  H   UNL     1     -42.389  56.182 -49.651  1.00  0.00     0.190 HD
ENDROOT
BRANCH   1   5
HETATM    5  N   UNL     1     -43.084  57.730 -50.822  1.00  0.00    -0.267 N 
HETATM    6  C   UNL     1     -44.449  57.546 -50.900  1.00  0.00     0.240 C 
HETATM    7  O   UNL     1     -44.980  56.471 -50.615  1.00  0.00    -0.271 OA
HETATM    8  H   UNL     1     -42.609  58.564 -51.171  1.00  0.00     0.190 HD
BRANCH   6   9
HETATM    9  C   UNL     1     -45.236  58.716 -51.457  1.00  0.00     0.150 C 
BRANCH   9  10
HETATM   10  C   UNL     1     -44.817  59.060 -52.854  1.00  0.00    -0.008 A 
HETATM   11  S   UNL     1     -44.267  60.639 -53.223  1.00  0.00    -0.099 SA
HETATM   12  C   UNL     1     -43.951  60.227 -54.851  1.00  0.00    -0.021 A 
HETATM   13  C   UNL     1     -43.395  61.241 -55.792  1.00  0.00     0.056 C 
HETATM   14  C   UNL     1     -44.279  58.914 -55.115  1.00  0.00     0.015 A 
HETATM   15  C   UNL     1     -44.775  58.239 -53.963  1.00  0.00     0.016 A 
ENDBRANCH   9  10
ENDBRANCH   6   9
ENDBRANCH   1   5
BRANCH   2  16
HETATM   16  C   UNL     1     -41.019  54.701 -51.311  1.00  0.00     0.061 A 
HETATM   17  C   UNL     1     -40.623  53.685 -52.249  1.00  0.00     0.008 A 
HETATM   18  C   UNL     1     -40.074  52.625 -51.524  1.00  0.00     0.043 A 
HETATM   19  C   UNL     1     -40.677  53.567 -53.654  1.00  0.00     0.015 A 
HETATM   20  C   UNL     1     -39.585  51.460 -52.128  1.00  0.00     0.030 A 
HETATM   21  N   UNL     1     -40.129  52.973 -50.196  1.00  0.00    -0.364 N 
HETATM   22  C   UNL     1     -39.653  51.374 -53.521  1.00  0.00     0.002 A 
HETATM   23  C   UNL     1     -40.189  52.412 -54.277  1.00  0.00     0.001 A 
HETATM   24  H   UNL     1     -39.804  52.387 -49.439  1.00  0.00     0.165 HD
HETATM   25  C   UNL     1     -40.690  54.215 -50.053  1.00  0.00     0.106 A 
ENDBRANCH   2  16
TORSDOF 4
ENDMDL
MODEL 9
REMARK VINA RESULT:      -7.4      2.426      3.149
REMARK  4 active torsions:
REMARK  status: ('A' for Active; 'I' for Inactive)
REMARK    1  A    between atoms: C_4  and  C_5 
REMARK    2  A    between atoms: C_5  and  C_6 
REMARK       I    between atoms: C_6  and  N_7 
REMARK    3  A    between atoms: N_7  and  N_8 
REMARK       I    between atoms: N_8  and  C_9 
REMARK    4  A    between atoms: C_9  and  C_10 
ROOT
HETATM    1  N   UNL     1     -41.059  56.028 -52.372  1.00  0.00    -0.263 N 
HETATM    2  C   UNL     1     -40.933  54.861 -53.102  1.00  0.00     0.272 C 
HETATM    3  O   UNL     1     -41.178  54.831 -54.308  1.00  0.00    -0.266 OA
HETATM    4  H   UNL     1     -40.960  56.065 -51.361  1.00  0.00     0.190 HD
ENDROOT
BRANCH   1   5
HETATM    5  N   UNL     1     -41.646  57.147 -52.977  1.00  0.00    -0.267 N 
HETATM    6  C   UNL     1     -42.969  57.412 -52.695  1.00  0.00     0.240 C 
HETATM    7  O   UNL     1     -43.591  56.788 -51.832  1.00  0.00    -0.271 OA
HETATM    8  H   UNL     1     -41.147  57.558 -53.767  1.00  0.00     0.190 HD
BRANCH   6   9
HETATM    9  C   UNL     1     -43.633  58.445 -53.585  1.00  0.00     0.150 C 
BRANCH   9  10
HETATM   10  C   UNL     1     -43.392  58.172 -55.038  1.00  0.00    -0.008 A 
HETATM   11  S   UNL     1     -42.448  59.254 -55.971  1.00  0.00    -0.099 SA
HETATM   12  C   UNL     1     -42.584  58.282 -57.370  1.00  0.00    -0.021 A 
HETATM   13  C   UNL     1     -41.920  58.689 -58.640  1.00  0.00     0.056 C 
HETATM   14  C   UNL     1     -43.354  57.161 -57.136  1.00  0.00     0.015 A 
HETATM   15  C   UNL     1     -43.817  57.096 -55.790  1.00  0.00     0.016 A 
ENDBRANCH   9  10
ENDBRANCH   6   9
ENDBRANCH   1   5
BRANCH   2  16
HETATM   16  C   UNL     1     -40.508  53.686 -52.340  1.00  0.00     0.061 A 
HETATM   17  C   UNL     1     -40.243  52.373 -52.865  1.00  0.00     0.008 A 
HETATM   18  C   UNL     1     -39.885  51.549 -51.796  1.00  0.00     0.043 A 
HETATM   19  C   UNL     1     -40.270  51.806 -54.158  1.00  0.00     0.015 A 
HETATM   20  C   UNL     1     -39.561  50.196 -51.951  1.00  0.00     0.030 A 
HETATM   21  N   UNL     1     -39.929  52.320 -50.660  1.00  0.00    -0.364 N 
HETATM   22  C   UNL     1     -39.597  49.664 -53.242  1.00  0.00     0.002 A 
HETATM   23  C   UNL     1     -39.945  50.455 -54.333  1.00  0.00     0.001 A 
HETATM   24  H   UNL     1     -39.722  51.980 -49.732  1.00  0.00     0.165 HD
HETATM   25  C   UNL     1     -40.298  53.603 -50.970  1.00  0.00     0.106 A 
ENDBRANCH   2  16
TORSDOF 4
ENDMDL
MODEL 10
REMARK VINA RESULT:      -7.2      2.591      3.727
REMARK  4 active torsions:
REMARK  status: ('A' for Active; 'I' for Inactive)
REMARK    1  A    between atoms: C_4  and  C_5 
REMARK    2  A    between atoms: C_5  and  C_6 
REMARK       I    between atoms: C_6  and  N_7 
REMARK    3  A    between atoms: N_7  and  N_8 
REMARK       I    between atoms: N_8  and  C_9 
REMARK    4  A    between atoms: C_9  and  C_10 
ROOT
HETATM    1  N   UNL     1     -42.788  54.822 -53.421  1.00  0.00    -0.263 N 
HETATM    2  C   UNL     1     -41.594  55.141 -52.801  1.00  0.00     0.272 C 
HETATM    3  O   UNL     1     -41.163  56.294 -52.797  1.00  0.00    -0.266 OA
HETATM    4  H   UNL     1     -43.123  53.869 -53.526  1.00  0.00     0.190 HD
ENDROOT
BRANCH   1   5
HETATM    5  N   UNL     1     -43.423  55.791 -54.209  1.00  0.00    -0.267 N 
HETATM    6  C   UNL     1     -43.102  55.842 -55.549  1.00  0.00     0.240 C 
HETATM    7  O   UNL     1     -42.398  54.984 -56.086  1.00  0.00    -0.271 OA
HETATM    8  H   UNL     1     -43.895  56.550 -53.716  1.00  0.00     0.190 HD
BRANCH   6   9
HETATM    9  C   UNL     1     -43.585  57.073 -56.291  1.00  0.00     0.150 C 
BRANCH   9  10
HETATM   10  C   UNL     1     -43.266  58.335 -55.550  1.00  0.00    -0.008 A 
HETATM   11  S   UNL     1     -44.526  59.279 -54.877  1.00  0.00    -0.099 SA
HETATM   12  C   UNL     1     -43.427  60.403 -54.208  1.00  0.00    -0.021 A 
HETATM   13  C   UNL     1     -43.922  61.565 -53.417  1.00  0.00     0.056 C 
HETATM   14  C   UNL     1     -42.121  60.076 -54.511  1.00  0.00     0.015 A 
HETATM   15  C   UNL     1     -42.028  58.882 -55.282  1.00  0.00     0.016 A 
ENDBRANCH   9  10
ENDBRANCH   6   9
ENDBRANCH   1   5
BRANCH   2  16
HETATM   16  C   UNL     1     -40.893  54.020 -52.173  1.00  0.00     0.061 A 
HETATM   17  C   UNL     1     -40.537  52.774 -52.797  1.00  0.00     0.008 A 
HETATM   18  C   UNL     1     -39.901  51.982 -51.839  1.00  0.00     0.043 A 
HETATM   19  C   UNL     1     -40.696  52.242 -54.095  1.00  0.00     0.015 A 
HETATM   20  C   UNL     1     -39.423  50.694 -52.109  1.00  0.00     0.030 A 
HETATM   21  N   UNL     1     -39.866  52.709 -50.674  1.00  0.00    -0.364 N 
HETATM   22  C   UNL     1     -39.595  50.196 -53.403  1.00  0.00     0.002 A 
HETATM   23  C   UNL     1     -40.221  50.958 -54.386  1.00  0.00     0.001 A 
HETATM   24  H   UNL     1     -39.465  52.378 -49.807  1.00  0.00     0.165 HD
HETATM   25  C   UNL     1     -40.453  53.933 -50.859  1.00  0.00     0.106 A 
ENDBRANCH   2  16
TORSDOF 4
ENDMDL
