MODEL 1
REMARK VINA RESULT:      -8.4      0.000      0.000
REMARK  5 active torsions:
REMARK  status: ('A' for Active; 'I' for Inactive)
REMARK    1  A    between atoms: C_6  and  N_7 
REMARK       I    between atoms: N_7  and  C_8 
REMARK    2  A    between atoms: C_8  and  C_9 
REMARK    3  A    between atoms: C_11  and  O_12 
REMARK    4  A    between atoms: C_15  and  O_16 
REMARK    5  A    between atoms: C_20  and  C_21 
ROOT
HETATM    1  C   UNL     1     -40.562  53.741 -48.498  1.00  0.00     0.073 C 
HETATM    2  C   UNL     1     -40.868  54.801 -49.490  1.00  0.00     0.065 A 
HETATM    3  N   UNL     1     -41.220  56.026 -49.075  1.00  0.00    -0.177 NA
HETATM    4  N   UNL     1     -41.455  56.699 -50.215  1.00  0.00    -0.262 N 
HETATM    5  H   UNL     1     -41.762  57.668 -50.176  1.00  0.00     0.191 HD
HETATM    6  C   UNL     1     -41.230  55.961 -51.348  1.00  0.00     0.137 A 
HETATM    7  C   UNL     1     -40.861  54.706 -50.910  1.00  0.00     0.046 A 
ENDROOT
BRANCH   6   8
HETATM    8  N   UNL     1     -41.370  56.458 -52.631  1.00  0.00    -0.307 N 
HETATM    9  C   UNL     1     -42.600  56.821 -53.145  1.00  0.00     0.257 C 
HETATM   10  O   UNL     1     -43.673  56.749 -52.556  1.00  0.00    -0.267 OA
HETATM   11  H   UNL     1     -40.546  56.476 -53.222  1.00  0.00     0.170 HD
BRANCH   9  12
HETATM   12  C   UNL     1     -42.555  57.278 -54.550  1.00  0.00     0.037 A 
HETATM   13  C   UNL     1     -42.919  56.382 -55.556  1.00  0.00     0.054 A 
HETATM   14  C   UNL     1     -42.815  56.760 -56.893  1.00  0.00     0.071 A 
HETATM   15  C   UNL     1     -42.389  58.053 -57.206  1.00  0.00     0.073 A 
HETATM   16  C   UNL     1     -42.058  58.966 -56.196  1.00  0.00     0.071 A 
HETATM   17  C   UNL     1     -42.129  58.576 -54.861  1.00  0.00     0.054 A 
BRANCH  14  18
HETATM   18  O   UNL     1     -43.155  55.786 -57.791  1.00  0.00    -0.356 OA
HETATM   19  C   UNL     1     -42.912  56.066 -59.165  1.00  0.00     0.210 C 
ENDBRANCH  14  18
BRANCH  16  20
HETATM   20  O   UNL     1     -41.668  60.198 -56.649  1.00  0.00    -0.356 OA
HETATM   21  C   UNL     1     -41.638  60.389 -58.058  1.00  0.00     0.210 C 
ENDBRANCH  16  20
ENDBRANCH   9  12
ENDBRANCH   6   8
BRANCH   7  22
HETATM   22  C   UNL     1     -40.563  53.583 -51.777  1.00  0.00    -0.020 A 
HETATM   23  C   UNL     1     -41.159  53.491 -53.040  1.00  0.00     0.014 A 
HETATM   24  C   UNL     1     -40.873  52.405 -53.874  1.00  0.00     0.020 A 
HETATM   25  C   UNL     1     -39.992  51.415 -53.445  1.00  0.00     0.011 A 
HETATM   26 BR   UNL     1     -39.610  49.946 -54.571  1.00  0.00    -0.051 Br
HETATM   27  C   UNL     1     -39.388  51.499 -52.191  1.00  0.00     0.020 A 
HETATM   28  C   UNL     1     -39.672  52.585 -51.360  1.00  0.00     0.014 A 
ENDBRANCH   7  22
TORSDOF 5
ENDMDL
MODEL 2
REMARK VINA RESULT:      -8.3      3.551      7.440
REMARK  5 active torsions:
REMARK  status: ('A' for Active; 'I' for Inactive)
REMARK    1  A    between atoms: C_6  and  N_7 
REMARK       I    between atoms: N_7  and  C_8 
REMARK    2  A    between atoms: C_8  and  C_9 
REMARK    3  A    between atoms: C_11  and  O_12 
REMARK    4  A    between atoms: C_15  and  O_16 
REMARK    5  A    between atoms: C_20  and  C_21 
ROOT
HETATM    1  C   UNL     1     -43.859  58.889 -57.424  1.00  0.00     0.073 C 
HETATM    2  C   UNL     1     -43.200  57.618 -57.032  1.00  0.00     0.065 A 
HETATM    3  N   UNL     1     -43.082  56.623 -57.921  1.00  0.00    -0.177 NA
HETATM    4  N   UNL     1     -42.485  55.638 -57.227  1.00  0.00    -0.262 N 
HETATM    5  H   UNL     1     -42.295  54.746 -57.677  1.00  0.00     0.191 HD
HETATM    6  C   UNL     1     -42.181  55.979 -55.934  1.00  0.00     0.137 A 
HETATM    7  C   UNL     1     -42.652  57.266 -55.767  1.00  0.00     0.046 A 
ENDROOT
BRANCH   6   8
HETATM    8  N   UNL     1     -41.532  55.139 -55.048  1.00  0.00    -0.307 N 
HETATM    9  C   UNL     1     -42.220  54.387 -54.115  1.00  0.00     0.257 C 
HETATM   10  O   UNL     1     -43.437  54.372 -53.962  1.00  0.00    -0.267 OA
HETATM   11  H   UNL     1     -40.518  55.148 -55.047  1.00  0.00     0.170 HD
BRANCH   9  12
HETATM   12  C   UNL     1     -41.350  53.593 -53.222  1.00  0.00     0.037 A 
HETATM   13  C   UNL     1     -40.583  52.567 -53.776  1.00  0.00     0.054 A 
HETATM   14  C   UNL     1     -39.810  51.755 -52.948  1.00  0.00     0.071 A 
HETATM   15  C   UNL     1     -39.782  52.008 -51.575  1.00  0.00     0.073 A 
HETATM   16  C   UNL     1     -40.524  53.061 -51.022  1.00  0.00     0.071 A 
HETATM   17  C   UNL     1     -41.322  53.851 -51.845  1.00  0.00     0.054 A 
BRANCH  14  18
HETATM   18  O   UNL     1     -39.138  50.755 -53.595  1.00  0.00    -0.356 OA
HETATM   19  C   UNL     1     -39.909  49.896 -54.426  1.00  0.00     0.210 C 
ENDBRANCH  14  18
BRANCH  16  20
HETATM   20  O   UNL     1     -40.391  53.199 -49.666  1.00  0.00    -0.356 OA
HETATM   21  C   UNL     1     -40.585  54.501 -49.126  1.00  0.00     0.210 C 
ENDBRANCH  16  20
ENDBRANCH   9  12
ENDBRANCH   6   8
BRANCH   7  22
HETATM   22  C   UNL     1     -42.579  58.016 -54.529  1.00  0.00    -0.020 A 
HETATM   23  C   UNL     1     -41.504  58.881 -54.292  1.00  0.00     0.014 A 
HETATM   24  C   UNL     1     -41.432  59.602 -53.096  1.00  0.00     0.020 A 
HETATM   25  C   UNL     1     -42.436  59.459 -52.140  1.00  0.00     0.011 A 
HETATM   26 BR   UNL     1     -42.336  60.431 -50.522  1.00  0.00    -0.051 Br
HETATM   27  C   UNL     1     -43.514  58.606 -52.368  1.00  0.00     0.020 A 
HETATM   28  C   UNL     1     -43.586  57.887 -53.563  1.00  0.00     0.014 A 
ENDBRANCH   7  22
TORSDOF 5
ENDMDL
MODEL 3
REMARK VINA RESULT:      -8.2      0.284      2.295
REMARK  5 active torsions:
REMARK  status: ('A' for Active; 'I' for Inactive)
REMARK    1  A    between atoms: C_6  and  N_7 
REMARK       I    between atoms: N_7  and  C_8 
REMARK    2  A    between atoms: C_8  and  C_9 
REMARK    3  A    between atoms: C_11  and  O_12 
REMARK    4  A    between atoms: C_15  and  O_16 
REMARK    5  A    between atoms: C_20  and  C_21 
ROOT
HETATM    1  C   UNL     1     -40.609  53.621 -48.457  1.00  0.00     0.073 C 
HETATM    2  C   UNL     1     -40.905  54.687 -49.446  1.00  0.00     0.065 A 
HETATM    3  N   UNL     1     -41.270  55.906 -49.027  1.00  0.00    -0.177 NA
HETATM    4  N   UNL     1     -41.491  56.587 -50.166  1.00  0.00    -0.262 N 
HETATM    5  H   UNL     1     -41.804  57.554 -50.124  1.00  0.00     0.191 HD
HETATM    6  C   UNL     1     -41.244  55.859 -51.301  1.00  0.00     0.137 A 
HETATM    7  C   UNL     1     -40.874  54.602 -50.866  1.00  0.00     0.046 A 
ENDROOT
BRANCH   6   8
HETATM    8  N   UNL     1     -41.366  56.365 -52.582  1.00  0.00    -0.307 N 
HETATM    9  C   UNL     1     -42.589  56.731 -53.110  1.00  0.00     0.257 C 
HETATM   10  O   UNL     1     -43.670  56.654 -52.537  1.00  0.00    -0.267 OA
HETATM   11  H   UNL     1     -40.534  56.388 -53.161  1.00  0.00     0.170 HD
BRANCH   9  12
HETATM   12  C   UNL     1     -42.524  57.198 -54.512  1.00  0.00     0.037 A 
HETATM   13  C   UNL     1     -42.109  58.507 -54.760  1.00  0.00     0.054 A 
HETATM   14  C   UNL     1     -42.109  58.999 -56.064  1.00  0.00     0.071 A 
HETATM   15  C   UNL     1     -42.483  58.156 -57.112  1.00  0.00     0.073 A 
HETATM   16  C   UNL     1     -42.865  56.829 -56.868  1.00  0.00     0.071 A 
HETATM   17  C   UNL     1     -42.898  56.349 -55.561  1.00  0.00     0.054 A 
BRANCH  14  18
HETATM   18  O   UNL     1     -41.728  60.307 -56.182  1.00  0.00    -0.356 OA
HETATM   19  C   UNL     1     -41.834  60.893 -57.473  1.00  0.00     0.210 C 
ENDBRANCH  14  18
BRANCH  16  20
HETATM   20  O   UNL     1     -43.195  56.117 -57.990  1.00  0.00    -0.356 OA
HETATM   21  C   UNL     1     -43.221  56.827 -59.222  1.00  0.00     0.210 C 
ENDBRANCH  16  20
ENDBRANCH   9  12
ENDBRANCH   6   8
BRANCH   7  22
HETATM   22  C   UNL     1     -40.556  53.488 -51.737  1.00  0.00    -0.020 A 
HETATM   23  C   UNL     1     -39.808  52.408 -51.255  1.00  0.00     0.014 A 
HETATM   24  C   UNL     1     -39.499  51.336 -52.098  1.00  0.00     0.020 A 
HETATM   25  C   UNL     1     -39.940  51.344 -53.420  1.00  0.00     0.011 A 
HETATM   26 BR   UNL     1     -39.518  49.896 -54.559  1.00  0.00    -0.051 Br
HETATM   27  C   UNL     1     -40.690  52.412 -53.909  1.00  0.00     0.020 A 
HETATM   28  C   UNL     1     -41.001  53.482 -53.067  1.00  0.00     0.014 A 
ENDBRANCH   7  22
TORSDOF 5
ENDMDL
MODEL 4
REMARK VINA RESULT:      -8.2      3.598      7.698
REMARK  5 active torsions:
REMARK  status: ('A' for Active; 'I' for Inactive)
REMARK    1  A    between atoms: C_6  and  N_7 
REMARK       I    between atoms: N_7  and  C_8 
REMARK    2  A    between atoms: C_8  and  C_9 
REMARK    3  A    between atoms: C_11  and  O_12 
REMARK    4  A    between atoms: C_15  and  O_16 
REMARK    5  A    between atoms: C_20  and  C_21 
ROOT
HETATM    1  C   UNL     1     -43.973  58.612 -57.341  1.00  0.00     0.073 C 
HETATM    2  C   UNL     1     -43.535  57.280 -56.853  1.00  0.00     0.065 A 
HETATM    3  N   UNL     1     -43.594  56.217 -57.667  1.00  0.00    -0.177 NA
HETATM    4  N   UNL     1     -43.166  55.198 -56.900  1.00  0.00    -0.262 N 
HETATM    5  H   UNL     1     -43.133  54.257 -57.282  1.00  0.00     0.191 HD
HETATM    6  C   UNL     1     -42.799  55.577 -55.634  1.00  0.00     0.137 A 
HETATM    7  C   UNL     1     -43.044  56.933 -55.564  1.00  0.00     0.046 A 
ENDROOT
BRANCH   6   8
HETATM    8  N   UNL     1     -42.293  54.706 -54.686  1.00  0.00    -0.307 N 
HETATM    9  C   UNL     1     -40.956  54.700 -54.339  1.00  0.00     0.257 C 
HETATM   10  O   UNL     1     -40.089  55.430 -54.807  1.00  0.00    -0.267 OA
HETATM   11  H   UNL     1     -42.922  54.008 -54.305  1.00  0.00     0.170 HD
BRANCH   9  12
HETATM   12  C   UNL     1     -40.596  53.663 -53.349  1.00  0.00     0.037 A 
HETATM   13  C   UNL     1     -40.594  54.004 -51.995  1.00  0.00     0.054 A 
HETATM   14  C   UNL     1     -40.187  53.069 -51.045  1.00  0.00     0.071 A 
HETATM   15  C   UNL     1     -39.830  51.784 -51.460  1.00  0.00     0.073 A 
HETATM   16  C   UNL     1     -39.867  51.428 -52.815  1.00  0.00     0.071 A 
HETATM   17  C   UNL     1     -40.241  52.374 -53.768  1.00  0.00     0.054 A 
BRANCH  14  18
HETATM   18  O   UNL     1     -40.181  53.529 -49.757  1.00  0.00    -0.356 OA
HETATM   19  C   UNL     1     -41.047  54.617 -49.460  1.00  0.00     0.210 C 
ENDBRANCH  14  18
BRANCH  16  20
HETATM   20  O   UNL     1     -39.502  50.135 -53.074  1.00  0.00    -0.356 OA
HETATM   21  C   UNL     1     -39.568  49.702 -54.428  1.00  0.00     0.210 C 
ENDBRANCH  16  20
ENDBRANCH   9  12
ENDBRANCH   6   8
BRANCH   7  22
HETATM   22  C   UNL     1     -42.834  57.749 -54.384  1.00  0.00    -0.020 A 
HETATM   23  C   UNL     1     -41.712  58.580 -54.292  1.00  0.00     0.014 A 
HETATM   24  C   UNL     1     -41.509  59.364 -53.152  1.00  0.00     0.020 A 
HETATM   25  C   UNL     1     -42.430  59.318 -52.107  1.00  0.00     0.011 A 
HETATM   26 BR   UNL     1     -42.152  60.374 -50.565  1.00  0.00    -0.051 Br
HETATM   27  C   UNL     1     -43.554  58.498 -52.190  1.00  0.00     0.020 A 
HETATM   28  C   UNL     1     -43.757  57.717 -53.330  1.00  0.00     0.014 A 
ENDBRANCH   7  22
TORSDOF 5
ENDMDL
MODEL 5
REMARK VINA RESULT:      -8.0      3.286      5.039
REMARK  5 active torsions:
REMARK  status: ('A' for Active; 'I' for Inactive)
REMARK    1  A    between atoms: C_6  and  N_7 
REMARK       I    between atoms: N_7  and  C_8 
REMARK    2  A    between atoms: C_8  and  C_9 
REMARK    3  A    between atoms: C_11  and  O_12 
REMARK    4  A    between atoms: C_15  and  O_16 
REMARK    5  A    between atoms: C_20  and  C_21 
ROOT
HETATM    1  C   UNL     1     -40.502  53.225 -51.300  1.00  0.00     0.073 C 
HETATM    2  C   UNL     1     -40.584  53.530 -52.750  1.00  0.00     0.065 A 
HETATM    3  N   UNL     1     -40.044  52.690 -53.642  1.00  0.00    -0.177 NA
HETATM    4  N   UNL     1     -40.267  53.288 -54.826  1.00  0.00    -0.262 N 
HETATM    5  H   UNL     1     -39.932  52.855 -55.683  1.00  0.00     0.191 HD
HETATM    6  C   UNL     1     -40.964  54.464 -54.727  1.00  0.00     0.137 A 
HETATM    7  C   UNL     1     -41.174  54.663 -53.377  1.00  0.00     0.046 A 
ENDROOT
BRANCH   6   8
HETATM    8  N   UNL     1     -41.340  55.231 -55.815  1.00  0.00    -0.307 N 
HETATM    9  C   UNL     1     -42.595  55.128 -56.384  1.00  0.00     0.257 C 
HETATM   10  O   UNL     1     -43.492  54.378 -56.013  1.00  0.00    -0.267 OA
HETATM   11  H   UNL     1     -40.635  55.821 -56.242  1.00  0.00     0.170 HD
BRANCH   9  12
HETATM   12  C   UNL     1     -42.791  55.988 -57.570  1.00  0.00     0.037 A 
HETATM   13  C   UNL     1     -42.446  57.337 -57.482  1.00  0.00     0.054 A 
HETATM   14  C   UNL     1     -42.688  58.187 -58.559  1.00  0.00     0.071 A 
HETATM   15  C   UNL     1     -43.235  57.664 -59.733  1.00  0.00     0.073 A 
HETATM   16  C   UNL     1     -43.548  56.302 -59.837  1.00  0.00     0.071 A 
HETATM   17  C   UNL     1     -43.337  55.460 -58.747  1.00  0.00     0.054 A 
BRANCH  14  18
HETATM   18  O   UNL     1     -42.353  59.495 -58.341  1.00  0.00    -0.356 OA
HETATM   19  C   UNL     1     -42.055  59.867 -57.001  1.00  0.00     0.210 C 
ENDBRANCH  14  18
BRANCH  16  20
HETATM   20  O   UNL     1     -44.065  55.928 -61.048  1.00  0.00    -0.356 OA
HETATM   21  C   UNL     1     -45.039  54.891 -61.043  1.00  0.00     0.210 C 
ENDBRANCH  16  20
ENDBRANCH   9  12
ENDBRANCH   6   8
BRANCH   7  22
HETATM   22  C   UNL     1     -41.845  55.814 -52.807  1.00  0.00    -0.020 A 
HETATM   23  C   UNL     1     -43.180  55.721 -52.399  1.00  0.00     0.014 A 
HETATM   24  C   UNL     1     -43.827  56.833 -51.852  1.00  0.00     0.020 A 
HETATM   25  C   UNL     1     -43.138  58.036 -51.712  1.00  0.00     0.011 A 
HETATM   26 BR   UNL     1     -44.015  59.541 -50.977  1.00  0.00    -0.051 Br
HETATM   27  C   UNL     1     -41.806  58.139 -52.109  1.00  0.00     0.020 A 
HETATM   28  C   UNL     1     -41.159  57.027 -52.653  1.00  0.00     0.014 A 
ENDBRANCH   7  22
TORSDOF 5
ENDMDL
MODEL 6
REMARK VINA RESULT:      -7.9      1.681      2.607
REMARK  5 active torsions:
REMARK  status: ('A' for Active; 'I' for Inactive)
REMARK    1  A    between atoms: C_6  and  N_7 
REMARK       I    between atoms: N_7  and  C_8 
REMARK    2  A    between atoms: C_8  and  C_9 
REMARK    3  A    between atoms: C_11  and  O_12 
REMARK    4  A    between atoms: C_15  and  O_16 
REMARK    5  A    between atoms: C_20  and  C_21 
ROOT
HETATM    1  C   UNL     1     -41.332  55.924 -50.148  1.00  0.00     0.073 C 
HETATM    2  C   UNL     1     -41.732  56.417 -51.489  1.00  0.00     0.065 A 
HETATM    3  N   UNL     1     -42.273  57.636 -51.620  1.00  0.00    -0.177 NA
HETATM    4  N   UNL     1     -42.542  57.731 -52.935  1.00  0.00    -0.262 N 
HETATM    5  H   UNL     1     -42.984  58.571 -53.301  1.00  0.00     0.191 HD
HETATM    6  C   UNL     1     -42.158  56.632 -53.658  1.00  0.00     0.137 A 
HETATM    7  C   UNL     1     -41.639  55.742 -52.739  1.00  0.00     0.046 A 
ENDROOT
BRANCH   6   8
HETATM    8  N   UNL     1     -42.300  56.523 -55.029  1.00  0.00    -0.307 N 
HETATM    9  C   UNL     1     -42.247  57.627 -55.859  1.00  0.00     0.257 C 
HETATM   10  O   UNL     1     -42.078  58.787 -55.500  1.00  0.00    -0.267 OA
HETATM   11  H   UNL     1     -42.526  55.611 -55.409  1.00  0.00     0.170 HD
BRANCH   9  12
HETATM   12  C   UNL     1     -42.474  57.318 -57.287  1.00  0.00     0.037 A 
HETATM   13  C   UNL     1     -43.178  56.158 -57.616  1.00  0.00     0.054 A 
HETATM   14  C   UNL     1     -43.342  55.802 -58.953  1.00  0.00     0.071 A 
HETATM   15  C   UNL     1     -42.836  56.639 -59.950  1.00  0.00     0.073 A 
HETATM   16  C   UNL     1     -42.162  57.824 -59.622  1.00  0.00     0.071 A 
HETATM   17  C   UNL     1     -41.968  58.161 -58.285  1.00  0.00     0.054 A 
BRANCH  14  18
HETATM   18  O   UNL     1     -44.007  54.624 -59.153  1.00  0.00    -0.356 OA
HETATM   19  C   UNL     1     -44.967  54.599 -60.202  1.00  0.00     0.210 C 
ENDBRANCH  14  18
BRANCH  16  20
HETATM   20  O   UNL     1     -41.732  58.550 -60.700  1.00  0.00    -0.356 OA
HETATM   21  C   UNL     1     -42.080  59.929 -60.731  1.00  0.00     0.210 C 
ENDBRANCH  16  20
ENDBRANCH   9  12
ENDBRANCH   6   8
BRANCH   7  22
HETATM   22  C   UNL     1     -41.142  54.419 -53.060  1.00  0.00    -0.020 A 
HETATM   23  C   UNL     1     -41.208  53.941 -54.374  1.00  0.00     0.014 A 
HETATM   24  C   UNL     1     -40.732  52.663 -54.681  1.00  0.00     0.020 A 
HETATM   25  C   UNL     1     -40.189  51.866 -53.675  1.00  0.00     0.011 A 
HETATM   26 BR   UNL     1     -39.549  50.136 -54.091  1.00  0.00    -0.051 Br
HETATM   27  C   UNL     1     -40.112  52.333 -52.365  1.00  0.00     0.020 A 
HETATM   28  C   UNL     1     -40.586  53.611 -52.058  1.00  0.00     0.014 A 
ENDBRANCH   7  22
TORSDOF 5
ENDMDL
MODEL 7
REMARK VINA RESULT:      -7.9      2.177      3.959
REMARK  5 active torsions:
REMARK  status: ('A' for Active; 'I' for Inactive)
REMARK    1  A    between atoms: C_6  and  N_7 
REMARK       I    between atoms: N_7  and  C_8 
REMARK    2  A    between atoms: C_8  and  C_9 
REMARK    3  A    between atoms: C_11  and  O_12 
REMARK    4  A    between atoms: C_15  and  O_16 
REMARK    5  A    between atoms: C_20  and  C_21 
ROOT
HETATM    1  C   UNL     1     -40.934  57.278 -50.716  1.00  0.00     0.073 C 
HETATM    2  C   UNL     1     -41.459  57.638 -52.056  1.00  0.00     0.065 A 
HETATM    3  N   UNL     1     -41.949  58.866 -52.276  1.00  0.00    -0.177 NA
HETATM    4  N   UNL     1     -42.360  58.826 -53.556  1.00  0.00    -0.262 N 
HETATM    5  H   UNL     1     -42.797  59.645 -53.972  1.00  0.00     0.191 HD
HETATM    6  C   UNL     1     -42.117  57.628 -54.177  1.00  0.00     0.137 A 
HETATM    7  C   UNL     1     -41.543  56.819 -53.217  1.00  0.00     0.046 A 
ENDROOT
BRANCH   6   8
HETATM    8  N   UNL     1     -42.419  57.373 -55.502  1.00  0.00    -0.307 N 
HETATM    9  C   UNL     1     -42.208  58.310 -56.494  1.00  0.00     0.257 C 
HETATM   10  O   UNL     1     -41.749  59.436 -56.332  1.00  0.00    -0.267 OA
HETATM   11  H   UNL     1     -42.881  56.497 -55.719  1.00  0.00     0.170 HD
BRANCH   9  12
HETATM   12  C   UNL     1     -42.643  57.874 -57.838  1.00  0.00     0.037 A 
HETATM   13  C   UNL     1     -42.685  58.817 -58.866  1.00  0.00     0.054 A 
HETATM   14  C   UNL     1     -43.161  58.451 -60.123  1.00  0.00     0.071 A 
HETATM   15  C   UNL     1     -43.549  57.129 -60.350  1.00  0.00     0.073 A 
HETATM   16  C   UNL     1     -43.472  56.171 -59.328  1.00  0.00     0.071 A 
HETATM   17  C   UNL     1     -43.029  56.546 -58.062  1.00  0.00     0.054 A 
BRANCH  14  18
HETATM   18  O   UNL     1     -43.200  59.468 -61.037  1.00  0.00    -0.356 OA
HETATM   19  C   UNL     1     -42.044  60.291 -61.131  1.00  0.00     0.210 C 
ENDBRANCH  14  18
BRANCH  16  20
HETATM   20  O   UNL     1     -43.874  54.915 -59.696  1.00  0.00    -0.356 OA
HETATM   21  C   UNL     1     -44.926  54.826 -60.650  1.00  0.00     0.210 C 
ENDBRANCH  16  20
ENDBRANCH   9  12
ENDBRANCH   6   8
BRANCH   7  22
HETATM   22  C   UNL     1     -41.154  55.439 -53.427  1.00  0.00    -0.020 A 
HETATM   23  C   UNL     1     -41.424  54.474 -52.449  1.00  0.00     0.014 A 
HETATM   24  C   UNL     1     -41.044  53.144 -52.651  1.00  0.00     0.020 A 
HETATM   25  C   UNL     1     -40.398  52.779 -53.831  1.00  0.00     0.011 A 
HETATM   26 BR   UNL     1     -39.881  50.981 -54.101  1.00  0.00    -0.051 Br
HETATM   27  C   UNL     1     -40.129  53.730 -54.814  1.00  0.00     0.020 A 
HETATM   28  C   UNL     1     -40.510  55.059 -54.612  1.00  0.00     0.014 A 
ENDBRANCH   7  22
TORSDOF 5
ENDMDL
MODEL 8
REMARK VINA RESULT:      -7.9      3.348      4.602
REMARK  5 active torsions:
REMARK  status: ('A' for Active; 'I' for Inactive)
REMARK    1  A    between atoms: C_6  and  N_7 
REMARK       I    between atoms: N_7  and  C_8 
REMARK    2  A    between atoms: C_8  and  C_9 
REMARK    3  A    between atoms: C_11  and  O_12 
REMARK    4  A    between atoms: C_15  and  O_16 
REMARK    5  A    between atoms: C_20  and  C_21 
ROOT
HETATM    1  C   UNL     1     -40.500  53.325 -51.275  1.00  0.00     0.073 C 
HETATM    2  C   UNL     1     -40.596  53.604 -52.729  1.00  0.00     0.065 A 
HETATM    3  N   UNL     1     -40.069  52.746 -53.612  1.00  0.00    -0.177 NA
HETATM    4  N   UNL     1     -40.302  53.323 -54.804  1.00  0.00    -0.262 N 
HETATM    5  H   UNL     1     -39.977  52.873 -55.656  1.00  0.00     0.191 HD
HETATM    6  C   UNL     1     -40.994  54.503 -54.720  1.00  0.00     0.137 A 
HETATM    7  C   UNL     1     -41.188  54.727 -53.372  1.00  0.00     0.046 A 
ENDROOT
BRANCH   6   8
HETATM    8  N   UNL     1     -41.378  55.251 -55.818  1.00  0.00    -0.307 N 
HETATM    9  C   UNL     1     -42.625  55.111 -56.398  1.00  0.00     0.257 C 
HETATM   10  O   UNL     1     -43.505  54.341 -56.030  1.00  0.00    -0.267 OA
HETATM   11  H   UNL     1     -40.685  55.856 -56.242  1.00  0.00     0.170 HD
BRANCH   9  12
HETATM   12  C   UNL     1     -42.831  55.956 -57.594  1.00  0.00     0.037 A 
HETATM   13  C   UNL     1     -43.427  55.386 -58.719  1.00  0.00     0.054 A 
HETATM   14  C   UNL     1     -43.567  56.137 -59.885  1.00  0.00     0.071 A 
HETATM   15  C   UNL     1     -43.146  57.469 -59.895  1.00  0.00     0.073 A 
HETATM   16  C   UNL     1     -42.581  58.054 -58.753  1.00  0.00     0.071 A 
HETATM   17  C   UNL     1     -42.410  57.292 -57.599  1.00  0.00     0.054 A 
BRANCH  14  18
HETATM   18  O   UNL     1     -44.122  55.462 -60.937  1.00  0.00    -0.356 OA
HETATM   19  C   UNL     1     -45.543  55.439 -61.007  1.00  0.00     0.210 C 
ENDBRANCH  14  18
BRANCH  16  20
HETATM   20  O   UNL     1     -42.226  59.367 -58.904  1.00  0.00    -0.356 OA
HETATM   21  C   UNL     1     -42.015  59.831 -60.232  1.00  0.00     0.210 C 
ENDBRANCH  16  20
ENDBRANCH   9  12
ENDBRANCH   6   8
BRANCH   7  22
HETATM   22  C   UNL     1     -41.849  55.891 -52.816  1.00  0.00    -0.020 A 
HETATM   23  C   UNL     1     -43.151  55.789 -52.311  1.00  0.00     0.014 A 
HETATM   24  C   UNL     1     -43.788  56.914 -51.779  1.00  0.00     0.020 A 
HETATM   25  C   UNL     1     -43.123  58.138 -51.749  1.00  0.00     0.011 A 
HETATM   26 BR   UNL     1     -43.987  59.659 -51.032  1.00  0.00    -0.051 Br
HETATM   27  C   UNL     1     -41.824  58.250 -52.243  1.00  0.00     0.020 A 
HETATM   28  C   UNL     1     -41.187  57.126 -52.773  1.00  0.00     0.014 A 
ENDBRANCH   7  22
TORSDOF 5
ENDMDL
MODEL 9
REMARK VINA RESULT:      -7.9      3.312      6.864
REMARK  5 active torsions:
REMARK  status: ('A' for Active; 'I' for Inactive)
REMARK    1  A    between atoms: C_6  and  N_7 
REMARK       I    between atoms: N_7  and  C_8 
REMARK    2  A    between atoms: C_8  and  C_9 
REMARK    3  A    between atoms: C_11  and  O_12 
REMARK    4  A    between atoms: C_15  and  O_16 
REMARK    5  A    between atoms: C_20  and  C_21 
ROOT
HETATM    1  C   UNL     1     -45.825  60.115 -52.325  1.00  0.00     0.073 C 
HETATM    2  C   UNL     1     -45.192  58.848 -51.883  1.00  0.00     0.065 A 
HETATM    3  N   UNL     1     -45.406  58.390 -50.643  1.00  0.00    -0.177 NA
HETATM    4  N   UNL     1     -44.665  57.270 -50.579  1.00  0.00    -0.262 N 
HETATM    5  H   UNL     1     -44.637  56.731 -49.717  1.00  0.00     0.191 HD
HETATM    6  C   UNL     1     -44.012  56.972 -51.747  1.00  0.00     0.137 A 
HETATM    7  C   UNL     1     -44.322  57.996 -52.620  1.00  0.00     0.046 A 
ENDROOT
BRANCH   6   8
HETATM    8  N   UNL     1     -43.224  55.850 -51.925  1.00  0.00    -0.307 N 
HETATM    9  C   UNL     1     -42.108  55.609 -51.147  1.00  0.00     0.257 C 
HETATM   10  O   UNL     1     -41.693  56.328 -50.245  1.00  0.00    -0.267 OA
HETATM   11  H   UNL     1     -43.443  55.239 -52.704  1.00  0.00     0.170 HD
BRANCH   9  12
HETATM   12  C   UNL     1     -41.364  54.388 -51.523  1.00  0.00     0.037 A 
HETATM   13  C   UNL     1     -40.939  54.244 -52.844  1.00  0.00     0.054 A 
HETATM   14  C   UNL     1     -40.301  53.072 -53.244  1.00  0.00     0.071 A 
HETATM   15  C   UNL     1     -40.057  52.071 -52.302  1.00  0.00     0.073 A 
HETATM   16  C   UNL     1     -40.450  52.229 -50.965  1.00  0.00     0.071 A 
HETATM   17  C   UNL     1     -41.118  53.387 -50.574  1.00  0.00     0.054 A 
BRANCH  14  18
HETATM   18  O   UNL     1     -39.972  53.024 -54.571  1.00  0.00    -0.356 OA
HETATM   19  C   UNL     1     -40.209  54.202 -55.333  1.00  0.00     0.210 C 
ENDBRANCH  14  18
BRANCH  16  20
HETATM   20  O   UNL     1     -40.136  51.174 -50.152  1.00  0.00    -0.356 OA
HETATM   21  C   UNL     1     -39.693  49.979 -50.785  1.00  0.00     0.210 C 
ENDBRANCH  16  20
ENDBRANCH   9  12
ENDBRANCH   6   8
BRANCH   7  22
HETATM   22  C   UNL     1     -43.813  58.111 -53.972  1.00  0.00    -0.020 A 
HETATM   23  C   UNL     1     -42.648  58.845 -54.227  1.00  0.00     0.014 A 
HETATM   24  C   UNL     1     -42.161  58.957 -55.532  1.00  0.00     0.020 A 
HETATM   25  C   UNL     1     -42.836  58.334 -56.580  1.00  0.00     0.011 A 
HETATM   26 BR   UNL     1     -42.178  58.491 -58.345  1.00  0.00    -0.051 Br
HETATM   27  C   UNL     1     -43.993  57.596 -56.337  1.00  0.00     0.020 A 
HETATM   28  C   UNL     1     -44.479  57.482 -55.033  1.00  0.00     0.014 A 
ENDBRANCH   7  22
TORSDOF 5
ENDMDL
MODEL 10
REMARK VINA RESULT:      -7.4      2.914      4.074
REMARK  5 active torsions:
REMARK  status: ('A' for Active; 'I' for Inactive)
REMARK    1  A    between atoms: C_6  and  N_7 
REMARK       I    between atoms: N_7  and  C_8 
REMARK    2  A    between atoms: C_8  and  C_9 
REMARK    3  A    between atoms: C_11  and  O_12 
REMARK    4  A    between atoms: C_15  and  O_16 
REMARK    5  A    between atoms: C_20  and  C_21 
ROOT
HETATM    1  C   UNL     1     -44.447  57.284 -50.981  1.00  0.00     0.073 C 
HETATM    2  C   UNL     1     -44.442  57.848 -52.354  1.00  0.00     0.065 A 
HETATM    3  N   UNL     1     -45.113  58.977 -52.616  1.00  0.00    -0.177 NA
HETATM    4  N   UNL     1     -44.924  59.168 -53.934  1.00  0.00    -0.262 N 
HETATM    5  H   UNL     1     -45.355  59.964 -54.397  1.00  0.00     0.191 HD
HETATM    6  C   UNL     1     -44.125  58.220 -54.520  1.00  0.00     0.137 A 
HETATM    7  C   UNL     1     -43.804  57.329 -53.515  1.00  0.00     0.046 A 
ENDROOT
BRANCH   6   8
HETATM    8  N   UNL     1     -43.764  58.235 -55.854  1.00  0.00    -0.307 N 
HETATM    9  C   UNL     1     -42.582  58.807 -56.285  1.00  0.00     0.257 C 
HETATM   10  O   UNL     1     -41.745  59.349 -55.572  1.00  0.00    -0.267 OA
HETATM   11  H   UNL     1     -44.434  57.882 -56.528  1.00  0.00     0.170 HD
BRANCH   9  12
HETATM   12  C   UNL     1     -42.397  58.774 -57.752  1.00  0.00     0.037 A 
HETATM   13  C   UNL     1     -42.510  57.549 -58.412  1.00  0.00     0.054 A 
HETATM   14  C   UNL     1     -42.268  57.474 -59.782  1.00  0.00     0.071 A 
HETATM   15  C   UNL     1     -41.958  58.640 -60.486  1.00  0.00     0.073 A 
HETATM   16  C   UNL     1     -41.880  59.877 -59.831  1.00  0.00     0.071 A 
HETATM   17  C   UNL     1     -42.088  59.945 -58.455  1.00  0.00     0.054 A 
BRANCH  14  18
HETATM   18  O   UNL     1     -42.362  56.217 -60.311  1.00  0.00    -0.356 OA
HETATM   19  C   UNL     1     -43.509  55.455 -59.954  1.00  0.00     0.210 C 
ENDBRANCH  14  18
BRANCH  16  20
HETATM   20  O   UNL     1     -41.579  60.934 -60.647  1.00  0.00    -0.356 OA
HETATM   21  C   UNL     1     -41.021  62.089 -60.030  1.00  0.00     0.210 C 
ENDBRANCH  16  20
ENDBRANCH   9  12
ENDBRANCH   6   8
BRANCH   7  22
HETATM   22  C   UNL     1     -42.999  56.137 -53.695  1.00  0.00    -0.020 A 
HETATM   23  C   UNL     1     -41.694  56.086 -53.193  1.00  0.00     0.014 A 
HETATM   24  C   UNL     1     -40.918  54.937 -53.371  1.00  0.00     0.020 A 
HETATM   25  C   UNL     1     -41.447  53.841 -54.049  1.00  0.00     0.011 A 
HETATM   26 BR   UNL     1     -40.395  52.289 -54.293  1.00  0.00    -0.051 Br
HETATM   27  C   UNL     1     -42.748  53.878 -54.548  1.00  0.00     0.020 A 
HETATM   28  C   UNL     1     -43.524  55.025 -54.368  1.00  0.00     0.014 A 
ENDBRANCH   7  22
TORSDOF 5
ENDMDL
