MODEL 1
REMARK VINA RESULT:      -7.0      0.000      0.000
REMARK  3 active torsions:
REMARK  status: ('A' for Active; 'I' for Inactive)
REMARK    1  A    between atoms: C_2  and  C_3 
REMARK    2  A    between atoms: C_3  and  C_4 
REMARK    3  A    between atoms: C_24  and  N_25 
ROOT
HETATM    1  C   UNL     1     -43.601  58.221 -55.734  1.00  0.00     0.067 A 
HETATM    2  N   UNL     1     -44.785  58.763 -56.071  1.00  0.00    -0.177 NA
HETATM    3  N   UNL     1     -45.498  58.755 -54.930  1.00  0.00    -0.256 N 
HETATM    4  H   UNL     1     -46.437  59.135 -54.936  1.00  0.00     0.191 HD
HETATM    5  C   UNL     1     -44.808  58.234 -53.887  1.00  0.00     0.176 A 
HETATM    6  C   UNL     1     -43.578  57.850 -54.363  1.00  0.00     0.049 A 
HETATM    7  C   UNL     1     -42.591  57.259 -53.415  1.00  0.00     0.145 A 
HETATM    8  C   UNL     1     -41.269  58.077 -53.403  1.00  0.00     0.246 A 
HETATM    9  O   UNL     1     -41.103  59.228 -53.031  1.00  0.00    -0.271 OA
HETATM   10  N   UNL     1     -40.265  57.243 -53.887  1.00  0.00    -0.325 N 
HETATM   11  C   UNL     1     -40.760  55.991 -54.221  1.00  0.00     0.043 A 
HETATM   12  C   UNL     1     -42.142  55.922 -53.981  1.00  0.00     0.003 A 
HETATM   13  C   UNL     1     -40.028  54.935 -54.720  1.00  0.00     0.030 A 
HETATM   14  C   UNL     1     -40.715  53.753 -54.987  1.00  0.00     0.003 A 
HETATM   15  C   UNL     1     -42.097  53.655 -54.747  1.00  0.00     0.007 A 
HETATM   16  C   UNL     1     -42.835  54.736 -54.231  1.00  0.00    -0.051 A 
HETATM   17  C   UNL     1     -44.310  54.589 -54.006  1.00  0.00     0.049 C 
HETATM   18  C   UNL     1     -43.148  57.196 -51.994  1.00  0.00     0.095 A 
HETATM   19  C   UNL     1     -42.298  56.666 -50.978  1.00  0.00     0.101 C 
HETATM   20  N   UNL     1     -41.600  56.248 -50.150  1.00  0.00    -0.191 NA
HETATM   21  C   UNL     1     -44.399  57.627 -51.680  1.00  0.00     0.141 A 
HETATM   22  O   UNL     1     -45.272  58.153 -52.647  1.00  0.00    -0.279 OA
HETATM   23  H   UNL     1     -39.302  57.535 -53.962  1.00  0.00     0.169 HD
ENDROOT
BRANCH  21  24
HETATM   24  N   UNL     1     -44.962  57.603 -50.422  1.00  0.00    -0.282 NA
HETATM   25  H   UNL     1     -45.980  57.612 -50.400  1.00  0.00     0.126 HD
HETATM   26  H   UNL     1     -44.567  56.863 -49.847  1.00  0.00     0.126 HD
ENDBRANCH  21  24
BRANCH   1  27
HETATM   27  C   UNL     1     -42.527  58.134 -56.771  1.00  0.00     0.061 C 
BRANCH  27  28
HETATM   28  C   UNL     1     -42.884  57.275 -57.986  1.00  0.00     0.002 C 
HETATM   29  C   UNL     1     -43.044  55.796 -57.663  1.00  0.00     0.005 C 
ENDBRANCH  27  28
ENDBRANCH   1  27
TORSDOF 3
ENDMDL
MODEL 2
REMARK VINA RESULT:      -6.9      1.979      4.636
REMARK  3 active torsions:
REMARK  status: ('A' for Active; 'I' for Inactive)
REMARK    1  A    between atoms: C_2  and  C_3 
REMARK    2  A    between atoms: C_3  and  C_4 
REMARK    3  A    between atoms: C_24  and  N_25 
ROOT
HETATM    1  C   UNL     1     -43.767  58.369 -51.821  1.00  0.00     0.067 A 
HETATM    2  N   UNL     1     -43.599  59.469 -51.064  1.00  0.00    -0.177 NA
HETATM    3  N   UNL     1     -43.039  60.367 -51.894  1.00  0.00    -0.256 N 
HETATM    4  H   UNL     1     -42.829  61.295 -51.542  1.00  0.00     0.191 HD
HETATM    5  C   UNL     1     -42.852  59.879 -53.144  1.00  0.00     0.176 A 
HETATM    6  C   UNL     1     -43.287  58.576 -53.142  1.00  0.00     0.049 A 
HETATM    7  C   UNL     1     -43.221  57.793 -54.408  1.00  0.00     0.145 A 
HETATM    8  C   UNL     1     -44.625  57.258 -54.808  1.00  0.00     0.246 A 
HETATM    9  O   UNL     1     -45.609  57.905 -55.130  1.00  0.00    -0.271 OA
HETATM   10  N   UNL     1     -44.567  55.869 -54.754  1.00  0.00    -0.325 N 
HETATM   11  C   UNL     1     -43.311  55.427 -54.364  1.00  0.00     0.043 A 
HETATM   12  C   UNL     1     -42.453  56.513 -54.126  1.00  0.00     0.003 A 
HETATM   13  C   UNL     1     -42.921  54.113 -54.221  1.00  0.00     0.030 A 
HETATM   14  C   UNL     1     -41.608  53.877 -53.823  1.00  0.00     0.003 A 
HETATM   15  C   UNL     1     -40.726  54.946 -53.587  1.00  0.00     0.007 A 
HETATM   16  C   UNL     1     -41.130  56.285 -53.742  1.00  0.00    -0.051 A 
HETATM   17  C   UNL     1     -40.158  57.392 -53.464  1.00  0.00     0.049 C 
HETATM   18  C   UNL     1     -42.664  58.632 -55.557  1.00  0.00     0.095 A 
HETATM   19  C   UNL     1     -42.562  58.008 -56.836  1.00  0.00     0.101 C 
HETATM   20  N   UNL     1     -42.494  57.505 -57.880  1.00  0.00    -0.191 NA
HETATM   21  C   UNL     1     -42.278  59.927 -55.396  1.00  0.00     0.141 A 
HETATM   22  O   UNL     1     -42.357  60.580 -54.155  1.00  0.00    -0.279 OA
HETATM   23  H   UNL     1     -45.352  55.280 -54.989  1.00  0.00     0.169 HD
ENDROOT
BRANCH  21  24
HETATM   24  N   UNL     1     -41.772  60.739 -56.387  1.00  0.00    -0.282 NA
HETATM   25  H   UNL     1     -41.641  61.715 -56.126  1.00  0.00     0.126 HD
HETATM   26  H   UNL     1     -40.943  60.337 -56.818  1.00  0.00     0.126 HD
ENDBRANCH  21  24
BRANCH   1  27
HETATM   27  C   UNL     1     -44.436  57.175 -51.218  1.00  0.00     0.061 C 
BRANCH  27  28
HETATM   28  C   UNL     1     -43.476  56.096 -50.713  1.00  0.00     0.002 C 
HETATM   29  C   UNL     1     -44.082  54.700 -50.690  1.00  0.00     0.005 C 
ENDBRANCH  27  28
ENDBRANCH   1  27
TORSDOF 3
ENDMDL
MODEL 3
REMARK VINA RESULT:      -6.8      2.585      4.638
REMARK  3 active torsions:
REMARK  status: ('A' for Active; 'I' for Inactive)
REMARK    1  A    between atoms: C_2  and  C_3 
REMARK    2  A    between atoms: C_3  and  C_4 
REMARK    3  A    between atoms: C_24  and  N_25 
ROOT
HETATM    1  C   UNL     1     -44.490  57.346 -53.012  1.00  0.00     0.067 A 
HETATM    2  N   UNL     1     -45.325  57.246 -54.063  1.00  0.00    -0.177 NA
HETATM    3  N   UNL     1     -44.898  56.161 -54.732  1.00  0.00    -0.256 N 
HETATM    4  H   UNL     1     -45.392  55.876 -55.570  1.00  0.00     0.191 HD
HETATM    5  C   UNL     1     -43.831  55.570 -54.143  1.00  0.00     0.176 A 
HETATM    6  C   UNL     1     -43.512  56.316 -53.034  1.00  0.00     0.049 A 
HETATM    7  C   UNL     1     -42.379  55.877 -52.171  1.00  0.00     0.145 A 
HETATM    8  C   UNL     1     -42.847  55.650 -50.706  1.00  0.00     0.246 A 
HETATM    9  O   UNL     1     -43.631  54.813 -50.291  1.00  0.00    -0.271 OA
HETATM   10  N   UNL     1     -42.185  56.584 -49.914  1.00  0.00    -0.325 N 
HETATM   11  C   UNL     1     -41.352  57.395 -50.672  1.00  0.00     0.043 A 
HETATM   12  C   UNL     1     -41.419  57.047 -52.030  1.00  0.00     0.003 A 
HETATM   13  C   UNL     1     -40.552  58.410 -50.192  1.00  0.00     0.030 A 
HETATM   14  C   UNL     1     -39.782  59.107 -51.120  1.00  0.00     0.003 A 
HETATM   15  C   UNL     1     -39.824  58.772 -52.485  1.00  0.00     0.007 A 
HETATM   16  C   UNL     1     -40.638  57.729 -52.964  1.00  0.00    -0.051 A 
HETATM   17  C   UNL     1     -40.661  57.419 -54.431  1.00  0.00     0.049 C 
HETATM   18  C   UNL     1     -41.743  54.589 -52.694  1.00  0.00     0.095 A 
HETATM   19  C   UNL     1     -40.653  54.047 -51.951  1.00  0.00     0.101 C 
HETATM   20  N   UNL     1     -39.776  53.597 -51.337  1.00  0.00    -0.191 NA
HETATM   21  C   UNL     1     -42.184  53.961 -53.818  1.00  0.00     0.141 A 
HETATM   22  O   UNL     1     -43.250  54.461 -54.583  1.00  0.00    -0.279 OA
HETATM   23  H   UNL     1     -42.303  56.633 -48.913  1.00  0.00     0.169 HD
ENDROOT
BRANCH  21  24
HETATM   24  N   UNL     1     -41.660  52.799 -54.341  1.00  0.00    -0.282 NA
HETATM   25  H   UNL     1     -42.344  52.092 -54.603  1.00  0.00     0.126 HD
HETATM   26  H   UNL     1     -40.992  52.988 -55.085  1.00  0.00     0.126 HD
ENDBRANCH  21  24
BRANCH   1  27
HETATM   27  C   UNL     1     -44.723  58.429 -52.007  1.00  0.00     0.061 C 
BRANCH  27  28
HETATM   28  C   UNL     1     -43.914  59.705 -52.248  1.00  0.00     0.002 C 
HETATM   29  C   UNL     1     -43.515  60.427 -50.969  1.00  0.00     0.005 C 
ENDBRANCH  27  28
ENDBRANCH   1  27
TORSDOF 3
ENDMDL
MODEL 4
REMARK VINA RESULT:      -6.7     16.813     18.475
REMARK  3 active torsions:
REMARK  status: ('A' for Active; 'I' for Inactive)
REMARK    1  A    between atoms: C_2  and  C_3 
REMARK    2  A    between atoms: C_3  and  C_4 
REMARK    3  A    between atoms: C_24  and  N_25 
ROOT
HETATM    1  C   UNL     1     -36.046  41.610 -54.697  1.00  0.00     0.067 A 
HETATM    2  N   UNL     1     -37.257  41.850 -55.231  1.00  0.00    -0.177 NA
HETATM    3  N   UNL     1     -38.125  41.314 -54.354  1.00  0.00    -0.256 N 
HETATM    4  H   UNL     1     -39.119  41.386 -54.542  1.00  0.00     0.191 HD
HETATM    5  C   UNL     1     -37.509  40.751 -53.287  1.00  0.00     0.176 A 
HETATM    6  C   UNL     1     -36.156  40.895 -53.475  1.00  0.00     0.049 A 
HETATM    7  C   UNL     1     -35.225  40.383 -52.430  1.00  0.00     0.145 A 
HETATM    8  C   UNL     1     -34.307  41.517 -51.893  1.00  0.00     0.246 A 
HETATM    9  O   UNL     1     -34.634  42.514 -51.269  1.00  0.00    -0.271 OA
HETATM   10  N   UNL     1     -33.000  41.187 -52.240  1.00  0.00    -0.325 N 
HETATM   11  C   UNL     1     -32.946  39.989 -52.939  1.00  0.00     0.043 A 
HETATM   12  C   UNL     1     -34.232  39.451 -53.105  1.00  0.00     0.003 A 
HETATM   13  C   UNL     1     -31.806  39.379 -53.417  1.00  0.00     0.030 A 
HETATM   14  C   UNL     1     -31.964  38.171 -54.091  1.00  0.00     0.003 A 
HETATM   15  C   UNL     1     -33.241  37.607 -54.264  1.00  0.00     0.007 A 
HETATM   16  C   UNL     1     -34.398  38.233 -53.766  1.00  0.00    -0.051 A 
HETATM   17  C   UNL     1     -35.739  37.600 -53.987  1.00  0.00     0.049 C 
HETATM   18  C   UNL     1     -35.985  39.764 -51.257  1.00  0.00     0.095 A 
HETATM   19  C   UNL     1     -35.214  39.247 -50.174  1.00  0.00     0.101 C 
HETATM   20  N   UNL     1     -34.586  38.840 -49.287  1.00  0.00    -0.191 NA
HETATM   21  C   UNL     1     -37.344  39.701 -51.219  1.00  0.00     0.141 A 
HETATM   22  O   UNL     1     -38.143  40.193 -52.264  1.00  0.00    -0.279 OA
HETATM   23  H   UNL     1     -32.207  41.759 -51.988  1.00  0.00     0.169 HD
ENDROOT
BRANCH  21  24
HETATM   24  N   UNL     1     -38.091  39.161 -50.195  1.00  0.00    -0.282 NA
HETATM   25  H   UNL     1     -39.043  38.898 -50.442  1.00  0.00     0.126 HD
HETATM   26  H   UNL     1     -37.592  38.415 -49.717  1.00  0.00     0.126 HD
ENDBRANCH  21  24
BRANCH   1  27
HETATM   27  C   UNL     1     -34.833  42.137 -55.396  1.00  0.00     0.061 C 
BRANCH  27  28
HETATM   28  C   UNL     1     -34.505  41.436 -56.716  1.00  0.00     0.002 C 
HETATM   29  C   UNL     1     -33.295  40.514 -56.634  1.00  0.00     0.005 C 
ENDBRANCH  27  28
ENDBRANCH   1  27
TORSDOF 3
ENDMDL
MODEL 5
REMARK VINA RESULT:      -6.7      1.935      2.666
REMARK  3 active torsions:
REMARK  status: ('A' for Active; 'I' for Inactive)
REMARK    1  A    between atoms: C_2  and  C_3 
REMARK    2  A    between atoms: C_3  and  C_4 
REMARK    3  A    between atoms: C_24  and  N_25 
ROOT
HETATM    1  C   UNL     1     -44.224  57.931 -54.714  1.00  0.00     0.067 A 
HETATM    2  N   UNL     1     -45.347  58.503 -55.185  1.00  0.00    -0.177 NA
HETATM    3  N   UNL     1     -45.590  59.518 -54.336  1.00  0.00    -0.256 N 
HETATM    4  H   UNL     1     -46.395  60.112 -54.501  1.00  0.00     0.191 HD
HETATM    5  C   UNL     1     -44.662  59.611 -53.354  1.00  0.00     0.176 A 
HETATM    6  C   UNL     1     -43.766  58.587 -53.541  1.00  0.00     0.049 A 
HETATM    7  C   UNL     1     -42.610  58.461 -52.608  1.00  0.00     0.145 A 
HETATM    8  C   UNL     1     -41.261  58.508 -53.378  1.00  0.00     0.246 A 
HETATM    9  O   UNL     1     -40.791  59.441 -54.010  1.00  0.00    -0.271 OA
HETATM   10  N   UNL     1     -40.647  57.271 -53.208  1.00  0.00    -0.325 N 
HETATM   11  C   UNL     1     -41.423  56.420 -52.433  1.00  0.00     0.043 A 
HETATM   12  C   UNL     1     -42.616  57.050 -52.045  1.00  0.00     0.003 A 
HETATM   13  C   UNL     1     -41.099  55.130 -52.071  1.00  0.00     0.030 A 
HETATM   14  C   UNL     1     -42.014  54.441 -51.280  1.00  0.00     0.003 A 
HETATM   15  C   UNL     1     -43.213  55.052 -50.871  1.00  0.00     0.007 A 
HETATM   16  C   UNL     1     -43.532  56.372 -51.239  1.00  0.00    -0.051 A 
HETATM   17  C   UNL     1     -44.829  56.975 -50.790  1.00  0.00     0.049 C 
HETATM   18  C   UNL     1     -42.618  59.569 -51.554  1.00  0.00     0.095 A 
HETATM   19  C   UNL     1     -41.555  59.578 -50.603  1.00  0.00     0.101 C 
HETATM   20  N   UNL     1     -40.681  59.594 -49.839  1.00  0.00    -0.191 NA
HETATM   21  C   UNL     1     -43.586  60.524 -51.506  1.00  0.00     0.141 A 
HETATM   22  O   UNL     1     -44.653  60.552 -52.418  1.00  0.00    -0.279 OA
HETATM   23  H   UNL     1     -39.743  57.052 -53.599  1.00  0.00     0.169 HD
ENDROOT
BRANCH  21  24
HETATM   24  N   UNL     1     -43.652  61.550 -50.588  1.00  0.00    -0.282 NA
HETATM   25  H   UNL     1     -43.174  62.407 -50.857  1.00  0.00     0.126 HD
HETATM   26  H   UNL     1     -44.606  61.717 -50.277  1.00  0.00     0.126 HD
ENDBRANCH  21  24
BRANCH   1  27
HETATM   27  C   UNL     1     -43.625  56.787 -55.470  1.00  0.00     0.061 C 
BRANCH  27  28
HETATM   28  C   UNL     1     -43.886  55.412 -54.854  1.00  0.00     0.002 C 
HETATM   29  C   UNL     1     -42.873  54.354 -55.268  1.00  0.00     0.005 C 
ENDBRANCH  27  28
ENDBRANCH   1  27
TORSDOF 3
ENDMDL
MODEL 6
REMARK VINA RESULT:      -6.6      2.629      4.809
REMARK  3 active torsions:
REMARK  status: ('A' for Active; 'I' for Inactive)
REMARK    1  A    between atoms: C_2  and  C_3 
REMARK    2  A    between atoms: C_3  and  C_4 
REMARK    3  A    between atoms: C_24  and  N_25 
ROOT
HETATM    1  C   UNL     1     -43.554  55.247 -54.349  1.00  0.00     0.067 A 
HETATM    2  N   UNL     1     -43.210  54.477 -55.397  1.00  0.00    -0.177 NA
HETATM    3  N   UNL     1     -42.139  53.784 -54.971  1.00  0.00    -0.256 N 
HETATM    4  H   UNL     1     -41.706  53.116 -55.598  1.00  0.00     0.191 HD
HETATM    5  C   UNL     1     -41.798  54.083 -53.694  1.00  0.00     0.176 A 
HETATM    6  C   UNL     1     -42.673  55.046 -53.254  1.00  0.00     0.049 A 
HETATM    7  C   UNL     1     -42.546  55.551 -51.857  1.00  0.00     0.145 A 
HETATM    8  C   UNL     1     -43.867  55.344 -51.065  1.00  0.00     0.246 A 
HETATM    9  O   UNL     1     -44.397  54.289 -50.753  1.00  0.00    -0.271 OA
HETATM   10  N   UNL     1     -44.356  56.606 -50.743  1.00  0.00    -0.325 N 
HETATM   11  C   UNL     1     -43.530  57.611 -51.228  1.00  0.00     0.043 A 
HETATM   12  C   UNL     1     -42.434  57.065 -51.915  1.00  0.00     0.003 A 
HETATM   13  C   UNL     1     -43.724  58.966 -51.074  1.00  0.00     0.030 A 
HETATM   14  C   UNL     1     -42.772  59.814 -51.633  1.00  0.00     0.003 A 
HETATM   15  C   UNL     1     -41.660  59.293 -52.319  1.00  0.00     0.007 A 
HETATM   16  C   UNL     1     -41.466  57.907 -52.465  1.00  0.00    -0.051 A 
HETATM   17  C   UNL     1     -40.273  57.399 -53.218  1.00  0.00     0.049 C 
HETATM   18  C   UNL     1     -41.407  54.855 -51.111  1.00  0.00     0.095 A 
HETATM   19  C   UNL     1     -41.184  55.231 -49.754  1.00  0.00     0.101 C 
HETATM   20  N   UNL     1     -41.013  55.528 -48.645  1.00  0.00    -0.191 NA
HETATM   21  C   UNL     1     -40.625  53.905 -51.694  1.00  0.00     0.141 A 
HETATM   22  O   UNL     1     -40.806  53.506 -53.028  1.00  0.00    -0.279 OA
HETATM   23  H   UNL     1     -45.201  56.745 -50.209  1.00  0.00     0.169 HD
ENDROOT
BRANCH  21  24
HETATM   24  N   UNL     1     -39.587  53.238 -51.081  1.00  0.00    -0.282 NA
HETATM   25  H   UNL     1     -38.660  53.449 -51.443  1.00  0.00     0.126 HD
HETATM   26  H   UNL     1     -39.636  53.314 -50.068  1.00  0.00     0.126 HD
ENDBRANCH  21  24
BRANCH   1  27
HETATM   27  C   UNL     1     -44.767  56.114 -54.460  1.00  0.00     0.061 C 
BRANCH  27  28
HETATM   28  C   UNL     1     -44.532  57.448 -55.172  1.00  0.00     0.002 C 
HETATM   29  C   UNL     1     -45.088  58.649 -54.421  1.00  0.00     0.005 C 
ENDBRANCH  27  28
ENDBRANCH   1  27
TORSDOF 3
ENDMDL
MODEL 7
REMARK VINA RESULT:      -6.5      2.210      4.835
REMARK  3 active torsions:
REMARK  status: ('A' for Active; 'I' for Inactive)
REMARK    1  A    between atoms: C_2  and  C_3 
REMARK    2  A    between atoms: C_3  and  C_4 
REMARK    3  A    between atoms: C_24  and  N_25 
ROOT
HETATM    1  C   UNL     1     -41.337  57.254 -50.039  1.00  0.00     0.067 A 
HETATM    2  N   UNL     1     -40.723  58.272 -49.409  1.00  0.00    -0.177 NA
HETATM    3  N   UNL     1     -41.135  59.373 -50.064  1.00  0.00    -0.256 N 
HETATM    4  H   UNL     1     -40.806  60.280 -49.753  1.00  0.00     0.191 HD
HETATM    5  C   UNL     1     -41.987  59.089 -51.078  1.00  0.00     0.176 A 
HETATM    6  C   UNL     1     -42.133  57.724 -51.119  1.00  0.00     0.049 A 
HETATM    7  C   UNL     1     -43.045  57.126 -52.134  1.00  0.00     0.145 A 
HETATM    8  C   UNL     1     -44.150  56.267 -51.456  1.00  0.00     0.246 A 
HETATM    9  O   UNL     1     -45.043  56.644 -50.714  1.00  0.00    -0.271 OA
HETATM   10  N   UNL     1     -43.956  54.951 -51.865  1.00  0.00    -0.325 N 
HETATM   11  C   UNL     1     -42.864  54.837 -52.714  1.00  0.00     0.043 A 
HETATM   12  C   UNL     1     -42.259  56.088 -52.916  1.00  0.00     0.003 A 
HETATM   13  C   UNL     1     -42.409  53.676 -53.300  1.00  0.00     0.030 A 
HETATM   14  C   UNL     1     -41.296  53.774 -54.130  1.00  0.00     0.003 A 
HETATM   15  C   UNL     1     -40.676  55.016 -54.356  1.00  0.00     0.007 A 
HETATM   16  C   UNL     1     -41.151  56.198 -53.759  1.00  0.00    -0.051 A 
HETATM   17  C   UNL     1     -40.448  57.496 -54.018  1.00  0.00     0.049 C 
HETATM   18  C   UNL     1     -43.711  58.202 -52.991  1.00  0.00     0.095 A 
HETATM   19  C   UNL     1     -44.626  57.768 -53.996  1.00  0.00     0.101 C 
HETATM   20  N   UNL     1     -45.381  57.415 -54.804  1.00  0.00    -0.191 NA
HETATM   21  C   UNL     1     -43.462  59.529 -52.821  1.00  0.00     0.141 A 
HETATM   22  O   UNL     1     -42.567  60.001 -51.848  1.00  0.00    -0.279 OA
HETATM   23  H   UNL     1     -44.558  54.194 -51.575  1.00  0.00     0.169 HD
ENDROOT
BRANCH  21  24
HETATM   24  N   UNL     1     -44.028  60.549 -53.554  1.00  0.00    -0.282 NA
HETATM   25  H   UNL     1     -43.533  60.797 -54.409  1.00  0.00     0.126 HD
HETATM   26  H   UNL     1     -45.021  60.395 -53.710  1.00  0.00     0.126 HD
ENDBRANCH  21  24
BRANCH   1  27
HETATM   27  C   UNL     1     -41.148  55.865 -49.519  1.00  0.00     0.061 C 
BRANCH  27  28
HETATM   28  C   UNL     1     -40.044  55.069 -50.219  1.00  0.00     0.002 C 
HETATM   29  C   UNL     1     -40.289  53.567 -50.235  1.00  0.00     0.005 C 
ENDBRANCH  27  28
ENDBRANCH   1  27
TORSDOF 3
ENDMDL
MODEL 8
REMARK VINA RESULT:      -6.5      1.905      3.457
REMARK  3 active torsions:
REMARK  status: ('A' for Active; 'I' for Inactive)
REMARK    1  A    between atoms: C_2  and  C_3 
REMARK    2  A    between atoms: C_3  and  C_4 
REMARK    3  A    between atoms: C_24  and  N_25 
ROOT
HETATM    1  C   UNL     1     -42.009  56.113 -54.888  1.00  0.00     0.067 A 
HETATM    2  N   UNL     1     -42.700  55.679 -55.957  1.00  0.00    -0.177 NA
HETATM    3  N   UNL     1     -43.839  56.394 -55.938  1.00  0.00    -0.256 N 
HETATM    4  H   UNL     1     -44.523  56.246 -56.671  1.00  0.00     0.191 HD
HETATM    5  C   UNL     1     -43.890  57.266 -54.902  1.00  0.00     0.176 A 
HETATM    6  C   UNL     1     -42.736  57.105 -54.176  1.00  0.00     0.049 A 
HETATM    7  C   UNL     1     -42.512  57.964 -52.979  1.00  0.00     0.145 A 
HETATM    8  C   UNL     1     -41.188  58.769 -53.108  1.00  0.00     0.246 A 
HETATM    9  O   UNL     1     -40.916  59.638 -53.920  1.00  0.00    -0.271 OA
HETATM   10  N   UNL     1     -40.340  58.329 -52.096  1.00  0.00    -0.325 N 
HETATM   11  C   UNL     1     -40.934  57.338 -51.328  1.00  0.00     0.043 A 
HETATM   12  C   UNL     1     -42.226  57.054 -51.797  1.00  0.00     0.003 A 
HETATM   13  C   UNL     1     -40.366  56.700 -50.246  1.00  0.00     0.030 A 
HETATM   14  C   UNL     1     -41.134  55.733 -49.602  1.00  0.00     0.003 A 
HETATM   15  C   UNL     1     -42.434  55.435 -50.046  1.00  0.00     0.007 A 
HETATM   16  C   UNL     1     -43.008  56.096 -51.148  1.00  0.00    -0.051 A 
HETATM   17  C   UNL     1     -44.393  55.734 -51.594  1.00  0.00     0.049 C 
HETATM   18  C   UNL     1     -43.667  58.942 -52.767  1.00  0.00     0.095 A 
HETATM   19  C   UNL     1     -43.574  59.839 -51.662  1.00  0.00     0.101 C 
HETATM   20  N   UNL     1     -43.491  60.578 -50.771  1.00  0.00    -0.191 NA
HETATM   21  C   UNL     1     -44.751  58.980 -53.589  1.00  0.00     0.141 A 
HETATM   22  O   UNL     1     -44.888  58.114 -54.686  1.00  0.00    -0.279 OA
HETATM   23  H   UNL     1     -39.417  58.712 -51.952  1.00  0.00     0.169 HD
ENDROOT
BRANCH  21  24
HETATM   24  N   UNL     1     -45.824  59.836 -53.458  1.00  0.00    -0.282 NA
HETATM   25  H   UNL     1     -45.790  60.669 -54.041  1.00  0.00     0.126 HD
HETATM   26  H   UNL     1     -46.710  59.343 -53.534  1.00  0.00     0.126 HD
ENDBRANCH  21  24
BRANCH   1  27
HETATM   27  C   UNL     1     -40.641  55.562 -54.641  1.00  0.00     0.061 C 
BRANCH  27  28
HETATM   28  C   UNL     1     -40.606  54.065 -54.327  1.00  0.00     0.002 C 
HETATM   29  C   UNL     1     -40.631  53.752 -52.837  1.00  0.00     0.005 C 
ENDBRANCH  27  28
ENDBRANCH   1  27
TORSDOF 3
ENDMDL
MODEL 9
REMARK VINA RESULT:      -6.3      2.315      5.507
REMARK  3 active torsions:
REMARK  status: ('A' for Active; 'I' for Inactive)
REMARK    1  A    between atoms: C_2  and  C_3 
REMARK    2  A    between atoms: C_3  and  C_4 
REMARK    3  A    between atoms: C_24  and  N_25 
ROOT
HETATM    1  C   UNL     1     -42.386  55.614 -51.162  1.00  0.00     0.067 A 
HETATM    2  N   UNL     1     -42.939  54.388 -51.160  1.00  0.00    -0.177 NA
HETATM    3  N   UNL     1     -43.609  54.318 -52.325  1.00  0.00    -0.256 N 
HETATM    4  H   UNL     1     -44.105  53.463 -52.554  1.00  0.00     0.191 HD
HETATM    5  C   UNL     1     -43.496  55.449 -53.062  1.00  0.00     0.176 A 
HETATM    6  C   UNL     1     -42.731  56.331 -52.339  1.00  0.00     0.049 A 
HETATM    7  C   UNL     1     -42.419  57.665 -52.928  1.00  0.00     0.145 A 
HETATM    8  C   UNL     1     -40.884  57.890 -53.023  1.00  0.00     0.246 A 
HETATM    9  O   UNL     1     -40.078  57.278 -53.705  1.00  0.00    -0.271 OA
HETATM   10  N   UNL     1     -40.573  58.955 -52.183  1.00  0.00    -0.325 N 
HETATM   11  C   UNL     1     -41.702  59.450 -51.547  1.00  0.00     0.043 A 
HETATM   12  C   UNL     1     -42.844  58.727 -51.928  1.00  0.00     0.003 A 
HETATM   13  C   UNL     1     -41.738  60.505 -50.661  1.00  0.00     0.030 A 
HETATM   14  C   UNL     1     -42.980  60.853 -50.134  1.00  0.00     0.003 A 
HETATM   15  C   UNL     1     -44.140  60.150 -50.506  1.00  0.00     0.007 A 
HETATM   16  C   UNL     1     -44.094  59.079 -51.417  1.00  0.00    -0.051 A 
HETATM   17  C   UNL     1     -45.356  58.350 -51.771  1.00  0.00     0.049 C 
HETATM   18  C   UNL     1     -43.030  57.818 -54.321  1.00  0.00     0.095 A 
HETATM   19  C   UNL     1     -42.795  59.046 -55.009  1.00  0.00     0.101 C 
HETATM   20  N   UNL     1     -42.591  60.039 -55.574  1.00  0.00    -0.191 NA
HETATM   21  C   UNL     1     -43.767  56.837 -54.907  1.00  0.00     0.141 A 
HETATM   22  O   UNL     1     -44.028  55.615 -54.266  1.00  0.00    -0.279 OA
HETATM   23  H   UNL     1     -39.634  59.313 -52.080  1.00  0.00     0.169 HD
ENDROOT
BRANCH  21  24
HETATM   24  N   UNL     1     -44.342  56.908 -56.157  1.00  0.00    -0.282 NA
HETATM   25  H   UNL     1     -44.637  56.017 -56.552  1.00  0.00     0.126 HD
HETATM   26  H   UNL     1     -45.075  57.612 -56.196  1.00  0.00     0.126 HD
ENDBRANCH  21  24
BRANCH   1  27
HETATM   27  C   UNL     1     -41.503  56.009 -50.021  1.00  0.00     0.061 C 
BRANCH  27  28
HETATM   28  C   UNL     1     -41.073  54.849 -49.121  1.00  0.00     0.002 C 
HETATM   29  C   UNL     1     -39.703  54.282 -49.466  1.00  0.00     0.005 C 
ENDBRANCH  27  28
ENDBRANCH   1  27
TORSDOF 3
ENDMDL
MODEL 10
REMARK VINA RESULT:      -6.3      2.781      5.970
REMARK  3 active torsions:
REMARK  status: ('A' for Active; 'I' for Inactive)
REMARK    1  A    between atoms: C_2  and  C_3 
REMARK    2  A    between atoms: C_3  and  C_4 
REMARK    3  A    between atoms: C_24  and  N_25 
ROOT
HETATM    1  C   UNL     1     -41.507  58.116 -50.881  1.00  0.00     0.067 A 
HETATM    2  N   UNL     1     -41.268  56.902 -50.352  1.00  0.00    -0.177 NA
HETATM    3  N   UNL     1     -42.069  56.070 -51.040  1.00  0.00    -0.256 N 
HETATM    4  H   UNL     1     -42.051  55.080 -50.821  1.00  0.00     0.191 HD
HETATM    5  C   UNL     1     -42.800  56.709 -51.984  1.00  0.00     0.176 A 
HETATM    6  C   UNL     1     -42.489  58.045 -51.905  1.00  0.00     0.049 A 
HETATM    7  C   UNL     1     -43.136  58.993 -52.856  1.00  0.00     0.145 A 
HETATM    8  C   UNL     1     -42.072  59.771 -53.680  1.00  0.00     0.246 A 
HETATM    9  O   UNL     1     -41.280  59.324 -54.494  1.00  0.00    -0.271 OA
HETATM   10  N   UNL     1     -42.189  61.115 -53.337  1.00  0.00    -0.325 N 
HETATM   11  C   UNL     1     -43.185  61.315 -52.392  1.00  0.00     0.043 A 
HETATM   12  C   UNL     1     -43.790  60.097 -52.042  1.00  0.00     0.003 A 
HETATM   13  C   UNL     1     -43.559  62.525 -51.850  1.00  0.00     0.030 A 
HETATM   14  C   UNL     1     -44.590  62.514 -50.914  1.00  0.00     0.003 A 
HETATM   15  C   UNL     1     -45.219  61.309 -50.553  1.00  0.00     0.007 A 
HETATM   16  C   UNL     1     -44.835  60.078 -51.117  1.00  0.00    -0.051 A 
HETATM   17  C   UNL     1     -45.526  58.818 -50.689  1.00  0.00     0.049 C 
HETATM   18  C   UNL     1     -44.075  58.267 -53.818  1.00  0.00     0.095 A 
HETATM   19  C   UNL     1     -44.750  59.056 -54.797  1.00  0.00     0.101 C 
HETATM   20  N   UNL     1     -45.288  59.696 -55.602  1.00  0.00    -0.191 NA
HETATM   21  C   UNL     1     -44.274  56.922 -53.770  1.00  0.00     0.141 A 
HETATM   22  O   UNL     1     -43.634  56.107 -52.822  1.00  0.00    -0.279 OA
HETATM   23  H   UNL     1     -41.617  61.836 -53.752  1.00  0.00     0.169 HD
ENDROOT
BRANCH  21  24
HETATM   24  N   UNL     1     -45.102  56.205 -54.607  1.00  0.00    -0.282 NA
HETATM   25  H   UNL     1     -45.682  55.505 -54.150  1.00  0.00     0.126 HD
HETATM   26  H   UNL     1     -45.637  56.815 -55.220  1.00  0.00     0.126 HD
ENDBRANCH  21  24
BRANCH   1  27
HETATM   27  C   UNL     1     -40.722  59.287 -50.383  1.00  0.00     0.061 C 
BRANCH  27  28
HETATM   28  C   UNL     1     -39.319  59.413 -50.981  1.00  0.00     0.002 C 
HETATM   29  C   UNL     1     -38.249  59.775 -49.961  1.00  0.00     0.005 C 
ENDBRANCH  27  28
ENDBRANCH   1  27
TORSDOF 3
ENDMDL
