MODEL 1
REMARK VINA RESULT:      -7.5      0.000      0.000
REMARK  5 active torsions:
REMARK  status: ('A' for Active; 'I' for Inactive)
REMARK    1  A    between atoms: C_2  and  O_3 
REMARK    2  A    between atoms: C_4  and  C_5 
REMARK    3  A    between atoms: C_5  and  O_6 
REMARK    4  A    between atoms: C_9  and  C_10 
REMARK    5  A    between atoms: C_22  and  O_23 
ROOT
HETATM    1  C   UNL     1     -42.480  57.610 -55.220  1.00  0.00     0.047 C 
HETATM    2  C   UNL     1     -42.039  58.391 -53.971  1.00  0.00     0.073 C 
HETATM    3  C   UNL     1     -40.957  57.603 -53.159  1.00  0.00     0.133 C 
HETATM    4  C   UNL     1     -41.450  56.442 -52.243  1.00  0.00     0.074 C 
HETATM    5  C   UNL     1     -42.856  56.642 -51.795  1.00  0.00     0.030 A 
HETATM    6  C   UNL     1     -43.658  57.684 -52.209  1.00  0.00     0.042 A 
HETATM    7  N   UNL     1     -44.850  57.554 -51.554  1.00  0.00    -0.279 N 
HETATM    8  H   UNL     1     -45.672  58.149 -51.608  1.00  0.00     0.189 HD
HETATM    9  N   UNL     1     -44.872  56.495 -50.716  1.00  0.00    -0.149 NA
HETATM   10  C   UNL     1     -43.658  55.980 -50.864  1.00  0.00     0.190 A 
HETATM   11  C   UNL     1     -43.286  58.783 -53.130  1.00  0.00     0.097 C 
ENDROOT
BRANCH   4  12
HETATM   12  C   UNL     1     -41.321  55.069 -52.897  1.00  0.00    -0.047 A 
HETATM   13  C   UNL     1     -40.547  54.012 -52.390  1.00  0.00     0.027 A 
HETATM   14  C   UNL     1     -40.506  52.778 -53.045  1.00  0.00     0.011 A 
HETATM   15 BR   UNL     1     -39.459  51.375 -52.330  1.00  0.00    -0.051 Br
HETATM   16  C   UNL     1     -41.228  52.571 -54.216  1.00  0.00     0.019 A 
HETATM   17  C   UNL     1     -41.999  53.605 -54.736  1.00  0.00     0.002 A 
HETATM   18  C   UNL     1     -42.050  54.838 -54.081  1.00  0.00     0.008 A 
ENDBRANCH   4  12
BRANCH   3  19
HETATM   19  C   UNL     1     -40.120  58.565 -52.335  1.00  0.00     0.266 C 
HETATM   20  O   UNL     1     -39.284  59.309 -52.837  1.00  0.00    -0.265 OA
BRANCH  19  21
HETATM   21  O   UNL     1     -40.413  58.513 -51.010  1.00  0.00    -0.326 OA
HETATM   22  C   UNL     1     -40.844  59.754 -50.450  1.00  0.00     0.213 C 
ENDBRANCH  19  21
ENDBRANCH   3  19
BRANCH   2  23
HETATM   23  O   UNL     1     -41.478  59.614 -54.484  1.00  0.00    -0.389 OA
HETATM   24  H   UNL     1     -41.251  59.486 -55.423  1.00  0.00     0.210 HD
ENDBRANCH   2  23
BRANCH  10  25
HETATM   25  O   UNL     1     -43.390  54.926 -50.103  1.00  0.00    -0.343 OA
HETATM   26  H   UNL     1     -42.506  55.102 -49.743  1.00  0.00     0.219 HD
ENDBRANCH  10  25
TORSDOF 5
ENDMDL
MODEL 2
REMARK VINA RESULT:      -7.1      2.402      3.568
REMARK  5 active torsions:
REMARK  status: ('A' for Active; 'I' for Inactive)
REMARK    1  A    between atoms: C_2  and  O_3 
REMARK    2  A    between atoms: C_4  and  C_5 
REMARK    3  A    between atoms: C_5  and  O_6 
REMARK    4  A    between atoms: C_9  and  C_10 
REMARK    5  A    between atoms: C_22  and  O_23 
ROOT
HETATM    1  C   UNL     1     -43.911  54.031 -52.414  1.00  0.00     0.047 C 
HETATM    2  C   UNL     1     -43.254  55.420 -52.354  1.00  0.00     0.073 C 
HETATM    3  C   UNL     1     -41.867  55.427 -53.081  1.00  0.00     0.133 C 
HETATM    4  C   UNL     1     -40.649  54.832 -52.311  1.00  0.00     0.074 C 
HETATM    5  C   UNL     1     -40.824  54.918 -50.835  1.00  0.00     0.030 A 
HETATM    6  C   UNL     1     -41.963  55.389 -50.219  1.00  0.00     0.042 A 
HETATM    7  N   UNL     1     -41.730  55.358 -48.873  1.00  0.00    -0.279 N 
HETATM    8  H   UNL     1     -42.345  55.641 -48.115  1.00  0.00     0.189 HD
HETATM    9  N   UNL     1     -40.492  54.911 -48.568  1.00  0.00    -0.149 NA
HETATM   10  C   UNL     1     -39.964  54.676 -49.762  1.00  0.00     0.190 A 
HETATM   11  C   UNL     1     -43.186  55.904 -50.879  1.00  0.00     0.097 C 
ENDROOT
BRANCH   4  12
HETATM   12  C   UNL     1     -40.347  53.386 -52.698  1.00  0.00    -0.047 A 
HETATM   13  C   UNL     1     -40.073  52.355 -51.783  1.00  0.00     0.027 A 
HETATM   14  C   UNL     1     -39.830  51.052 -52.227  1.00  0.00     0.011 A 
HETATM   15 BR   UNL     1     -39.473  49.687 -50.968  1.00  0.00    -0.051 Br
HETATM   16  C   UNL     1     -39.850  50.749 -53.585  1.00  0.00     0.019 A 
HETATM   17  C   UNL     1     -40.118  51.755 -54.507  1.00  0.00     0.002 A 
HETATM   18  C   UNL     1     -40.370  53.058 -54.068  1.00  0.00     0.008 A 
ENDBRANCH   4  12
BRANCH   3  19
HETATM   19  C   UNL     1     -41.526  56.833 -53.540  1.00  0.00     0.266 C 
HETATM   20  O   UNL     1     -40.816  57.587 -52.882  1.00  0.00    -0.265 OA
BRANCH  19  21
HETATM   21  O   UNL     1     -42.075  57.141 -54.743  1.00  0.00    -0.326 OA
HETATM   22  C   UNL     1     -41.956  56.113 -55.728  1.00  0.00     0.213 C 
ENDBRANCH  19  21
ENDBRANCH   3  19
BRANCH   2  23
HETATM   23  O   UNL     1     -44.175  56.290 -53.039  1.00  0.00    -0.389 OA
HETATM   24  H   UNL     1     -44.734  56.737 -52.377  1.00  0.00     0.210 HD
ENDBRANCH   2  23
BRANCH  10  25
HETATM   25  O   UNL     1     -38.705  54.256 -49.756  1.00  0.00    -0.343 OA
HETATM   26  H   UNL     1     -38.405  54.399 -48.843  1.00  0.00     0.219 HD
ENDBRANCH  10  25
TORSDOF 5
ENDMDL
MODEL 3
REMARK VINA RESULT:      -6.8      2.618      4.362
REMARK  5 active torsions:
REMARK  status: ('A' for Active; 'I' for Inactive)
REMARK    1  A    between atoms: C_2  and  O_3 
REMARK    2  A    between atoms: C_4  and  C_5 
REMARK    3  A    between atoms: C_5  and  O_6 
REMARK    4  A    between atoms: C_9  and  C_10 
REMARK    5  A    between atoms: C_22  and  O_23 
ROOT
HETATM    1  C   UNL     1     -44.924  56.617 -54.329  1.00  0.00     0.047 C 
HETATM    2  C   UNL     1     -44.376  57.606 -55.372  1.00  0.00     0.073 C 
HETATM    3  C   UNL     1     -43.028  57.100 -55.985  1.00  0.00     0.133 C 
HETATM    4  C   UNL     1     -41.734  57.296 -55.137  1.00  0.00     0.074 C 
HETATM    5  C   UNL     1     -41.849  58.445 -54.198  1.00  0.00     0.030 A 
HETATM    6  C   UNL     1     -42.994  59.195 -54.032  1.00  0.00     0.042 A 
HETATM    7  N   UNL     1     -42.700  60.177 -53.129  1.00  0.00    -0.279 N 
HETATM    8  H   UNL     1     -43.301  60.916 -52.776  1.00  0.00     0.189 HD
HETATM    9  N   UNL     1     -41.419  60.128 -52.704  1.00  0.00    -0.149 NA
HETATM   10  C   UNL     1     -40.927  59.095 -53.376  1.00  0.00     0.190 A 
HETATM   11  C   UNL     1     -44.281  59.026 -54.746  1.00  0.00     0.097 C 
ENDROOT
BRANCH   4  12
HETATM   12  C   UNL     1     -41.336  56.046 -54.356  1.00  0.00    -0.047 A 
HETATM   13  C   UNL     1     -41.627  55.825 -53.000  1.00  0.00     0.027 A 
HETATM   14  C   UNL     1     -41.244  54.637 -52.371  1.00  0.00     0.011 A 
HETATM   15 BR   UNL     1     -41.658  54.370 -50.545  1.00  0.00    -0.051 Br
HETATM   16  C   UNL     1     -40.562  53.649 -53.074  1.00  0.00     0.019 A 
HETATM   17  C   UNL     1     -40.263  53.848 -54.417  1.00  0.00     0.002 A 
HETATM   18  C   UNL     1     -40.651  55.031 -55.053  1.00  0.00     0.008 A 
ENDBRANCH   4  12
BRANCH   3  19
HETATM   19  C   UNL     1     -42.818  57.709 -57.359  1.00  0.00     0.266 C 
HETATM   20  O   UNL     1     -42.130  58.709 -57.539  1.00  0.00    -0.265 OA
BRANCH  19  21
HETATM   21  O   UNL     1     -43.457  57.023 -58.341  1.00  0.00    -0.326 OA
HETATM   22  C   UNL     1     -43.236  55.612 -58.316  1.00  0.00     0.213 C 
ENDBRANCH  19  21
ENDBRANCH   3  19
BRANCH   2  23
HETATM   23  O   UNL     1     -45.391  57.664 -56.391  1.00  0.00    -0.389 OA
HETATM   24  H   UNL     1     -45.550  58.597 -56.624  1.00  0.00     0.210 HD
ENDBRANCH   2  23
BRANCH  10  25
HETATM   25  O   UNL     1     -39.640  58.844 -53.173  1.00  0.00    -0.343 OA
HETATM   26  H   UNL     1     -39.181  59.630 -53.512  1.00  0.00     0.219 HD
ENDBRANCH  10  25
TORSDOF 5
ENDMDL
MODEL 4
REMARK VINA RESULT:      -6.8      2.339      4.029
REMARK  5 active torsions:
REMARK  status: ('A' for Active; 'I' for Inactive)
REMARK    1  A    between atoms: C_2  and  O_3 
REMARK    2  A    between atoms: C_4  and  C_5 
REMARK    3  A    between atoms: C_5  and  O_6 
REMARK    4  A    between atoms: C_9  and  C_10 
REMARK    5  A    between atoms: C_22  and  O_23 
ROOT
HETATM    1  C   UNL     1     -43.808  55.937 -50.707  1.00  0.00     0.047 C 
HETATM    2  C   UNL     1     -44.202  57.223 -51.453  1.00  0.00     0.073 C 
HETATM    3  C   UNL     1     -43.856  57.128 -52.976  1.00  0.00     0.133 C 
HETATM    4  C   UNL     1     -42.371  57.358 -53.391  1.00  0.00     0.074 C 
HETATM    5  C   UNL     1     -41.645  58.219 -52.417  1.00  0.00     0.030 A 
HETATM    6  C   UNL     1     -42.193  58.687 -51.242  1.00  0.00     0.042 A 
HETATM    7  N   UNL     1     -41.246  59.472 -50.646  1.00  0.00    -0.279 N 
HETATM    8  H   UNL     1     -41.307  59.986 -49.773  1.00  0.00     0.189 HD
HETATM    9  N   UNL     1     -40.111  59.563 -51.373  1.00  0.00    -0.149 NA
HETATM   10  C   UNL     1     -40.386  58.821 -52.438  1.00  0.00     0.190 A 
HETATM   11  C   UNL     1     -43.569  58.454 -50.745  1.00  0.00     0.097 C 
ENDROOT
BRANCH   4  12
HETATM   12  C   UNL     1     -41.598  56.057 -53.587  1.00  0.00    -0.047 A 
HETATM   13  C   UNL     1     -41.240  55.176 -52.552  1.00  0.00     0.027 A 
HETATM   14  C   UNL     1     -40.550  53.992 -52.828  1.00  0.00     0.011 A 
HETATM   15 BR   UNL     1     -40.092  52.826 -51.411  1.00  0.00    -0.051 Br
HETATM   16  C   UNL     1     -40.199  53.662 -54.133  1.00  0.00     0.019 A 
HETATM   17  C   UNL     1     -40.542  54.521 -55.172  1.00  0.00     0.002 A 
HETATM   18  C   UNL     1     -41.239  55.702 -54.903  1.00  0.00     0.008 A 
ENDBRANCH   4  12
BRANCH   3  19
HETATM   19  C   UNL     1     -44.745  58.065 -53.773  1.00  0.00     0.266 C 
HETATM   20  O   UNL     1     -44.981  59.215 -53.414  1.00  0.00    -0.265 OA
BRANCH  19  21
HETATM   21  O   UNL     1     -45.225  57.496 -54.908  1.00  0.00    -0.326 OA
HETATM   22  C   UNL     1     -45.402  58.404 -55.996  1.00  0.00     0.213 C 
ENDBRANCH  19  21
ENDBRANCH   3  19
BRANCH   2  23
HETATM   23  O   UNL     1     -45.628  57.326 -51.275  1.00  0.00    -0.389 OA
HETATM   24  H   UNL     1     -45.991  57.896 -51.977  1.00  0.00     0.210 HD
ENDBRANCH   2  23
BRANCH  10  25
HETATM   25  O   UNL     1     -39.431  58.770 -53.359  1.00  0.00    -0.343 OA
HETATM   26  H   UNL     1     -39.377  57.832 -53.604  1.00  0.00     0.219 HD
ENDBRANCH  10  25
TORSDOF 5
ENDMDL
MODEL 5
REMARK VINA RESULT:      -6.8      2.768      3.778
REMARK  5 active torsions:
REMARK  status: ('A' for Active; 'I' for Inactive)
REMARK    1  A    between atoms: C_2  and  O_3 
REMARK    2  A    between atoms: C_4  and  C_5 
REMARK    3  A    between atoms: C_5  and  O_6 
REMARK    4  A    between atoms: C_9  and  C_10 
REMARK    5  A    between atoms: C_22  and  O_23 
ROOT
HETATM    1  C   UNL     1     -40.597  58.075 -53.209  1.00  0.00     0.047 C 
HETATM    2  C   UNL     1     -42.056  58.411 -53.561  1.00  0.00     0.073 C 
HETATM    3  C   UNL     1     -43.053  57.429 -52.860  1.00  0.00     0.133 C 
HETATM    4  C   UNL     1     -43.238  56.018 -53.495  1.00  0.00     0.074 C 
HETATM    5  C   UNL     1     -42.950  56.020 -54.956  1.00  0.00     0.030 A 
HETATM    6  C   UNL     1     -42.490  57.118 -55.651  1.00  0.00     0.042 A 
HETATM    7  N   UNL     1     -42.390  56.746 -56.962  1.00  0.00    -0.279 N 
HETATM    8  H   UNL     1     -42.093  57.303 -57.758  1.00  0.00     0.189 HD
HETATM    9  N   UNL     1     -42.778  55.470 -57.174  1.00  0.00    -0.149 NA
HETATM   10  C   UNL     1     -43.128  55.066 -55.959  1.00  0.00     0.190 A 
HETATM   11  C   UNL     1     -42.222  58.469 -55.106  1.00  0.00     0.097 C 
ENDROOT
BRANCH   4  12
HETATM   12  C   UNL     1     -42.394  54.942 -52.817  1.00  0.00    -0.047 A 
HETATM   13  C   UNL     1     -41.604  53.999 -53.498  1.00  0.00     0.027 A 
HETATM   14  C   UNL     1     -40.843  53.063 -52.793  1.00  0.00     0.011 A 
HETATM   15 BR   UNL     1     -39.785  51.814 -53.740  1.00  0.00    -0.051 Br
HETATM   16  C   UNL     1     -40.853  53.042 -51.402  1.00  0.00     0.019 A 
HETATM   17  C   UNL     1     -41.629  53.965 -50.709  1.00  0.00     0.002 A 
HETATM   18  C   UNL     1     -42.386  54.909 -51.409  1.00  0.00     0.008 A 
ENDBRANCH   4  12
BRANCH   3  19
HETATM   19  C   UNL     1     -44.412  58.087 -52.706  1.00  0.00     0.266 C 
HETATM   20  O   UNL     1     -44.967  58.677 -53.627  1.00  0.00    -0.265 OA
BRANCH  19  21
HETATM   21  O   UNL     1     -44.932  57.934 -51.461  1.00  0.00    -0.326 OA
HETATM   22  C   UNL     1     -45.589  59.094 -50.948  1.00  0.00     0.213 C 
ENDBRANCH  19  21
ENDBRANCH   3  19
BRANCH   2  23
HETATM   23  O   UNL     1     -42.252  59.750 -53.068  1.00  0.00    -0.389 OA
HETATM   24  H   UNL     1     -41.878  60.379 -53.712  1.00  0.00     0.210 HD
ENDBRANCH   2  23
BRANCH  10  25
HETATM   25  O   UNL     1     -43.600  53.827 -55.886  1.00  0.00    -0.343 OA
HETATM   26  H   UNL     1     -43.947  53.644 -56.774  1.00  0.00     0.219 HD
ENDBRANCH  10  25
TORSDOF 5
ENDMDL
MODEL 6
REMARK VINA RESULT:      -6.6      2.608      4.434
REMARK  5 active torsions:
REMARK  status: ('A' for Active; 'I' for Inactive)
REMARK    1  A    between atoms: C_2  and  O_3 
REMARK    2  A    between atoms: C_4  and  C_5 
REMARK    3  A    between atoms: C_5  and  O_6 
REMARK    4  A    between atoms: C_9  and  C_10 
REMARK    5  A    between atoms: C_22  and  O_23 
ROOT
HETATM    1  C   UNL     1     -44.983  56.661 -54.355  1.00  0.00     0.047 C 
HETATM    2  C   UNL     1     -44.322  57.466 -55.487  1.00  0.00     0.073 C 
HETATM    3  C   UNL     1     -42.955  56.835 -55.913  1.00  0.00     0.133 C 
HETATM    4  C   UNL     1     -41.719  57.119 -55.006  1.00  0.00     0.074 C 
HETATM    5  C   UNL     1     -41.856  58.400 -54.259  1.00  0.00     0.030 A 
HETATM    6  C   UNL     1     -42.979  59.199 -54.296  1.00  0.00     0.042 A 
HETATM    7  N   UNL     1     -42.711  60.297 -53.528  1.00  0.00    -0.279 N 
HETATM    8  H   UNL     1     -43.307  61.097 -53.337  1.00  0.00     0.189 HD
HETATM    9  N   UNL     1     -41.467  60.276 -53.003  1.00  0.00    -0.149 NA
HETATM   10  C   UNL     1     -40.970  59.140 -53.475  1.00  0.00     0.190 A 
HETATM   11  C   UNL     1     -44.217  58.961 -55.074  1.00  0.00     0.097 C 
ENDROOT
BRANCH   4  12
HETATM   12  C   UNL     1     -41.428  55.991 -54.021  1.00  0.00    -0.047 A 
HETATM   13  C   UNL     1     -40.913  54.733 -54.376  1.00  0.00     0.027 A 
HETATM   14  C   UNL     1     -40.655  53.765 -53.400  1.00  0.00     0.011 A 
HETATM   15 BR   UNL     1     -39.954  52.085 -53.913  1.00  0.00    -0.051 Br
HETATM   16  C   UNL     1     -40.907  54.025 -52.057  1.00  0.00     0.019 A 
HETATM   17  C   UNL     1     -41.419  55.264 -51.684  1.00  0.00     0.002 A 
HETATM   18  C   UNL     1     -41.671  56.238 -52.655  1.00  0.00     0.008 A 
ENDBRANCH   4  12
BRANCH   3  19
HETATM   19  C   UNL     1     -42.623  57.223 -57.342  1.00  0.00     0.266 C 
HETATM   20  O   UNL     1     -42.068  58.280 -57.626  1.00  0.00    -0.265 OA
BRANCH  19  21
HETATM   21  O   UNL     1     -42.992  56.277 -58.243  1.00  0.00    -0.326 OA
HETATM   22  C   UNL     1     -42.662  56.590 -59.597  1.00  0.00     0.213 C 
ENDBRANCH  19  21
ENDBRANCH   3  19
BRANCH   2  23
HETATM   23  O   UNL     1     -45.259  57.398 -56.579  1.00  0.00    -0.389 OA
HETATM   24  H   UNL     1     -46.145  57.635 -56.248  1.00  0.00     0.210 HD
ENDBRANCH   2  23
BRANCH  10  25
HETATM   25  O   UNL     1     -39.711  58.886 -53.138  1.00  0.00    -0.343 OA
HETATM   26  H   UNL     1     -39.610  57.929 -53.272  1.00  0.00     0.219 HD
ENDBRANCH  10  25
TORSDOF 5
ENDMDL
MODEL 7
REMARK VINA RESULT:      -6.5     15.691     17.655
REMARK  5 active torsions:
REMARK  status: ('A' for Active; 'I' for Inactive)
REMARK    1  A    between atoms: C_2  and  O_3 
REMARK    2  A    between atoms: C_4  and  C_5 
REMARK    3  A    between atoms: C_5  and  O_6 
REMARK    4  A    between atoms: C_9  and  C_10 
REMARK    5  A    between atoms: C_22  and  O_23 
ROOT
HETATM    1  C   UNL     1     -36.510  38.232 -56.123  1.00  0.00     0.047 C 
HETATM    2  C   UNL     1     -37.092  39.548 -56.665  1.00  0.00     0.073 C 
HETATM    3  C   UNL     1     -35.959  40.550 -57.068  1.00  0.00     0.133 C 
HETATM    4  C   UNL     1     -35.262  41.345 -55.922  1.00  0.00     0.074 C 
HETATM    5  C   UNL     1     -36.149  41.512 -54.737  1.00  0.00     0.030 A 
HETATM    6  C   UNL     1     -37.405  40.957 -54.629  1.00  0.00     0.042 A 
HETATM    7  N   UNL     1     -37.921  41.367 -53.432  1.00  0.00    -0.279 N 
HETATM    8  H   UNL     1     -38.828  41.159 -53.027  1.00  0.00     0.189 HD
HETATM    9  N   UNL     1     -37.081  42.178 -52.754  1.00  0.00    -0.149 NA
HETATM   10  C   UNL     1     -36.037  42.265 -53.568  1.00  0.00     0.190 A 
HETATM   11  C   UNL     1     -38.106  40.133 -55.642  1.00  0.00     0.097 C 
ENDROOT
BRANCH   4  12
HETATM   12  C   UNL     1     -33.942  40.719 -55.478  1.00  0.00    -0.047 A 
HETATM   13  C   UNL     1     -33.661  40.292 -54.169  1.00  0.00     0.027 A 
HETATM   14  C   UNL     1     -32.430  39.707 -53.858  1.00  0.00     0.011 A 
HETATM   15 BR   UNL     1     -32.089  39.136 -52.087  1.00  0.00    -0.051 Br
HETATM   16  C   UNL     1     -31.456  39.538 -54.836  1.00  0.00     0.019 A 
HETATM   17  C   UNL     1     -31.713  39.956 -56.137  1.00  0.00     0.002 A 
HETATM   18  C   UNL     1     -32.945  40.534 -56.456  1.00  0.00     0.008 A 
ENDBRANCH   4  12
BRANCH   3  19
HETATM   19  C   UNL     1     -36.472  41.527 -58.109  1.00  0.00     0.266 C 
HETATM   20  O   UNL     1     -36.788  42.680 -57.833  1.00  0.00    -0.265 OA
BRANCH  19  21
HETATM   21  O   UNL     1     -36.524  40.988 -59.355  1.00  0.00    -0.326 OA
HETATM   22  C   UNL     1     -37.435  41.638 -60.242  1.00  0.00     0.213 C 
ENDBRANCH  19  21
ENDBRANCH   3  19
BRANCH   2  23
HETATM   23  O   UNL     1     -37.847  39.162 -57.829  1.00  0.00    -0.389 OA
HETATM   24  H   UNL     1     -37.241  38.754 -58.475  1.00  0.00     0.210 HD
ENDBRANCH   2  23
BRANCH  10  25
HETATM   25  O   UNL     1     -35.055  43.057 -53.153  1.00  0.00    -0.343 OA
HETATM   26  H   UNL     1     -34.255  42.690 -53.563  1.00  0.00     0.219 HD
ENDBRANCH  10  25
TORSDOF 5
ENDMDL
MODEL 8
REMARK VINA RESULT:      -6.5      3.606      5.022
REMARK  5 active torsions:
REMARK  status: ('A' for Active; 'I' for Inactive)
REMARK    1  A    between atoms: C_2  and  O_3 
REMARK    2  A    between atoms: C_4  and  C_5 
REMARK    3  A    between atoms: C_5  and  O_6 
REMARK    4  A    between atoms: C_9  and  C_10 
REMARK    5  A    between atoms: C_22  and  O_23 
ROOT
HETATM    1  C   UNL     1     -45.645  58.348 -55.936  1.00  0.00     0.047 C 
HETATM    2  C   UNL     1     -44.552  58.684 -54.908  1.00  0.00     0.073 C 
HETATM    3  C   UNL     1     -43.171  58.931 -55.603  1.00  0.00     0.133 C 
HETATM    4  C   UNL     1     -42.354  57.679 -56.043  1.00  0.00     0.074 C 
HETATM    5  C   UNL     1     -42.676  56.482 -55.218  1.00  0.00     0.030 A 
HETATM    6  C   UNL     1     -43.644  56.458 -54.237  1.00  0.00     0.042 A 
HETATM    7  N   UNL     1     -43.613  55.212 -53.677  1.00  0.00    -0.279 N 
HETATM    8  H   UNL     1     -44.180  54.843 -52.920  1.00  0.00     0.189 HD
HETATM    9  N   UNL     1     -42.664  54.419 -54.221  1.00  0.00    -0.149 NA
HETATM   10  C   UNL     1     -42.104  55.212 -55.125  1.00  0.00     0.190 A 
HETATM   11  C   UNL     1     -44.509  57.583 -53.811  1.00  0.00     0.097 C 
ENDROOT
BRANCH   4  12
HETATM   12  C   UNL     1     -42.536  57.335 -57.520  1.00  0.00    -0.047 A 
HETATM   13  C   UNL     1     -43.350  56.298 -58.004  1.00  0.00     0.027 A 
HETATM   14  C   UNL     1     -43.475  56.070 -59.377  1.00  0.00     0.011 A 
HETATM   15 BR   UNL     1     -44.586  54.670 -59.995  1.00  0.00    -0.051 Br
HETATM   16  C   UNL     1     -42.794  56.864 -60.295  1.00  0.00     0.019 A 
HETATM   17  C   UNL     1     -41.981  57.895 -59.836  1.00  0.00     0.002 A 
HETATM   18  C   UNL     1     -41.858  58.132 -58.464  1.00  0.00     0.008 A 
ENDBRANCH   4  12
BRANCH   3  19
HETATM   19  C   UNL     1     -42.298  59.813 -54.730  1.00  0.00     0.266 C 
HETATM   20  O   UNL     1     -42.594  60.971 -54.457  1.00  0.00    -0.265 OA
BRANCH  19  21
HETATM   21  O   UNL     1     -41.184  59.174 -54.287  1.00  0.00    -0.326 OA
HETATM   22  C   UNL     1     -41.050  59.136 -52.865  1.00  0.00     0.213 C 
ENDBRANCH  19  21
ENDBRANCH   3  19
BRANCH   2  23
HETATM   23  O   UNL     1     -45.008  59.892 -54.272  1.00  0.00    -0.389 OA
HETATM   24  H   UNL     1     -45.903  59.741 -53.915  1.00  0.00     0.210 HD
ENDBRANCH   2  23
BRANCH  10  25
HETATM   25  O   UNL     1     -41.087  54.683 -55.794  1.00  0.00    -0.343 OA
HETATM   26  H   UNL     1     -40.555  55.445 -56.075  1.00  0.00     0.219 HD
ENDBRANCH  10  25
TORSDOF 5
ENDMDL
MODEL 9
REMARK VINA RESULT:      -6.4      2.360      3.708
REMARK  5 active torsions:
REMARK  status: ('A' for Active; 'I' for Inactive)
REMARK    1  A    between atoms: C_2  and  O_3 
REMARK    2  A    between atoms: C_4  and  C_5 
REMARK    3  A    between atoms: C_5  and  O_6 
REMARK    4  A    between atoms: C_9  and  C_10 
REMARK    5  A    between atoms: C_22  and  O_23 
ROOT
HETATM    1  C   UNL     1     -44.702  57.525 -53.060  1.00  0.00     0.047 C 
HETATM    2  C   UNL     1     -43.989  58.660 -53.814  1.00  0.00     0.073 C 
HETATM    3  C   UNL     1     -42.638  58.171 -54.435  1.00  0.00     0.133 C 
HETATM    4  C   UNL     1     -41.411  58.051 -53.481  1.00  0.00     0.074 C 
HETATM    5  C   UNL     1     -41.515  58.973 -52.317  1.00  0.00     0.030 A 
HETATM    6  C   UNL     1     -42.606  59.776 -52.063  1.00  0.00     0.042 A 
HETATM    7  N   UNL     1     -42.313  60.504 -50.944  1.00  0.00    -0.279 N 
HETATM    8  H   UNL     1     -42.882  61.203 -50.475  1.00  0.00     0.189 HD
HETATM    9  N   UNL     1     -41.082  60.239 -50.457  1.00  0.00    -0.149 NA
HETATM   10  C   UNL     1     -40.618  59.335 -51.311  1.00  0.00     0.190 A 
HETATM   11  C   UNL     1     -43.836  59.893 -52.881  1.00  0.00     0.097 C 
ENDROOT
BRANCH   4  12
HETATM   12  C   UNL     1     -41.183  56.628 -52.978  1.00  0.00    -0.047 A 
HETATM   13  C   UNL     1     -41.337  56.219 -51.642  1.00  0.00     0.027 A 
HETATM   14  C   UNL     1     -41.130  54.887 -51.275  1.00  0.00     0.011 A 
HETATM   15 BR   UNL     1     -41.353  54.369 -49.470  1.00  0.00    -0.051 Br
HETATM   16  C   UNL     1     -40.762  53.937 -52.223  1.00  0.00     0.019 A 
HETATM   17  C   UNL     1     -40.603  54.321 -53.550  1.00  0.00     0.002 A 
HETATM   18  C   UNL     1     -40.817  55.651 -53.924  1.00  0.00     0.008 A 
ENDBRANCH   4  12
BRANCH   3  19
HETATM   19  C   UNL     1     -42.263  59.043 -55.620  1.00  0.00     0.266 C 
HETATM   20  O   UNL     1     -41.580  60.055 -55.504  1.00  0.00    -0.265 OA
BRANCH  19  21
HETATM   21  O   UNL     1     -42.750  58.569 -56.796  1.00  0.00    -0.326 OA
HETATM   22  C   UNL     1     -42.589  57.162 -56.979  1.00  0.00     0.213 C 
ENDBRANCH  19  21
ENDBRANCH   3  19
BRANCH   2  23
HETATM   23  O   UNL     1     -44.906  59.037 -54.859  1.00  0.00    -0.389 OA
HETATM   24  H   UNL     1     -44.549  58.733 -55.714  1.00  0.00     0.210 HD
ENDBRANCH   2  23
BRANCH  10  25
HETATM   25  O   UNL     1     -39.377  58.922 -51.084  1.00  0.00    -0.343 OA
HETATM   26  H   UNL     1     -39.309  58.078 -51.561  1.00  0.00     0.219 HD
ENDBRANCH  10  25
TORSDOF 5
ENDMDL
MODEL 10
REMARK VINA RESULT:      -6.3      3.273      5.324
REMARK  5 active torsions:
REMARK  status: ('A' for Active; 'I' for Inactive)
REMARK    1  A    between atoms: C_2  and  O_3 
REMARK    2  A    between atoms: C_4  and  C_5 
REMARK    3  A    between atoms: C_5  and  O_6 
REMARK    4  A    between atoms: C_9  and  C_10 
REMARK    5  A    between atoms: C_22  and  O_23 
ROOT
HETATM    1  C   UNL     1     -40.339  56.935 -53.822  1.00  0.00     0.047 C 
HETATM    2  C   UNL     1     -41.071  55.637 -54.201  1.00  0.00     0.073 C 
HETATM    3  C   UNL     1     -42.573  55.909 -54.546  1.00  0.00     0.133 C 
HETATM    4  C   UNL     1     -43.560  56.102 -53.354  1.00  0.00     0.074 C 
HETATM    5  C   UNL     1     -43.094  55.408 -52.122  1.00  0.00     0.030 A 
HETATM    6  C   UNL     1     -41.890  54.744 -52.019  1.00  0.00     0.042 A 
HETATM    7  N   UNL     1     -41.840  54.203 -50.766  1.00  0.00    -0.279 N 
HETATM    8  H   UNL     1     -41.105  53.640 -50.346  1.00  0.00     0.189 HD
HETATM    9  N   UNL     1     -42.952  54.457 -50.043  1.00  0.00    -0.149 NA
HETATM   10  C   UNL     1     -43.695  55.161 -50.887  1.00  0.00     0.190 A 
HETATM   11  C   UNL     1     -40.870  54.577 -53.081  1.00  0.00     0.097 C 
ENDROOT
BRANCH   4  12
HETATM   12  C   UNL     1     -43.828  57.571 -53.033  1.00  0.00    -0.047 A 
HETATM   13  C   UNL     1     -43.152  58.309 -52.046  1.00  0.00     0.027 A 
HETATM   14  C   UNL     1     -43.447  59.658 -51.837  1.00  0.00     0.011 A 
HETATM   15 BR   UNL     1     -42.513  60.623 -50.505  1.00  0.00    -0.051 Br
HETATM   16  C   UNL     1     -44.419  60.300 -52.598  1.00  0.00     0.019 A 
HETATM   17  C   UNL     1     -45.100  59.588 -53.579  1.00  0.00     0.002 A 
HETATM   18  C   UNL     1     -44.803  58.240 -53.798  1.00  0.00     0.008 A 
ENDBRANCH   4  12
BRANCH   3  19
HETATM   19  C   UNL     1     -43.105  54.819 -55.458  1.00  0.00     0.266 C 
HETATM   20  O   UNL     1     -43.685  53.826 -55.031  1.00  0.00    -0.265 OA
BRANCH  19  21
HETATM   21  O   UNL     1     -42.878  55.077 -56.772  1.00  0.00    -0.326 OA
HETATM   22  C   UNL     1     -43.162  56.419 -57.169  1.00  0.00     0.213 C 
ENDBRANCH  19  21
ENDBRANCH   3  19
BRANCH   2  23
HETATM   23  O   UNL     1     -40.377  55.152 -55.366  1.00  0.00    -0.389 OA
HETATM   24  H   UNL     1     -39.549  54.722 -55.081  1.00  0.00     0.210 HD
ENDBRANCH   2  23
BRANCH  10  25
HETATM   25  O   UNL     1     -44.891  55.515 -50.435  1.00  0.00    -0.343 OA
HETATM   26  H   UNL     1     -45.517  55.126 -51.068  1.00  0.00     0.219 HD
ENDBRANCH  10  25
TORSDOF 5
ENDMDL
