MODEL 1
REMARK VINA RESULT:      -8.5      0.000      0.000
REMARK  5 active torsions:
REMARK  status: ('A' for Active; 'I' for Inactive)
REMARK    1  A    between atoms: O_2  and  C_3 
REMARK    2  A    between atoms: C_6  and  C_7 
REMARK    3  A    between atoms: C_11  and  N_12 
REMARK       I    between atoms: N_15  and  C_16 
REMARK    4  A    between atoms: C_16  and  C_17 
REMARK    5  A    between atoms: C_17  and  C_18 
ROOT
HETATM    1  N   UNL     1     -43.784  58.672 -51.811  1.00  0.00    -0.363 N 
HETATM    2  C   UNL     1     -42.772  59.100 -52.799  1.00  0.00     0.144 C 
HETATM    3  C   UNL     1     -41.701  58.015 -52.982  1.00  0.00     0.145 C 
HETATM    4  N   UNL     1     -42.264  56.688 -53.262  1.00  0.00    -0.349 N 
HETATM    5  C   UNL     1     -41.429  55.783 -53.913  1.00  0.00     0.224 C 
HETATM    6  O   UNL     1     -40.328  56.120 -54.359  1.00  0.00    -0.273 OA
HETATM    7  C   UNL     1     -43.352  56.286 -52.359  1.00  0.00     0.145 C 
HETATM    8  C   UNL     1     -44.416  57.385 -52.150  1.00  0.00     0.144 C 
ENDROOT
BRANCH   1   9
HETATM    9  C   UNL     1     -44.379  59.608 -51.013  1.00  0.00     0.122 A 
HETATM   10  N   UNL     1     -45.730  59.838 -50.968  1.00  0.00    -0.262 N 
HETATM   11  N   UNL     1     -46.112  60.751 -50.061  1.00  0.00    -0.173 NA
HETATM   12  H   UNL     1     -46.452  59.400 -51.523  1.00  0.00     0.191 HD
HETATM   13  C   UNL     1     -44.966  61.146 -49.481  1.00  0.00     0.090 A 
HETATM   14  C   UNL     1     -43.862  60.472 -50.072  1.00  0.00     0.084 A 
BRANCH  13  15
HETATM   15  C   UNL     1     -44.945  62.101 -48.369  1.00  0.00    -0.005 A 
HETATM   16  C   UNL     1     -44.750  63.469 -48.609  1.00  0.00     0.016 A 
HETATM   17  C   UNL     1     -44.796  64.402 -47.564  1.00  0.00     0.037 A 
HETATM   18  C   UNL     1     -45.036  63.978 -46.258  1.00  0.00     0.068 A 
HETATM   19  C   UNL     1     -45.195  62.614 -46.005  1.00  0.00     0.037 A 
HETATM   20  C   UNL     1     -45.155  61.683 -47.048  1.00  0.00     0.016 A 
BRANCH  18  21
HETATM   21  O   UNL     1     -45.125  64.781 -45.156  1.00  0.00    -0.356 OA
HETATM   22  C   UNL     1     -46.348  64.728 -44.431  1.00  0.00     0.210 C 
ENDBRANCH  18  21
ENDBRANCH  13  15
ENDBRANCH   1   9
BRANCH   5  23
HETATM   23  C   UNL     1     -41.905  54.351 -54.100  1.00  0.00     0.141 C 
BRANCH  23  24
HETATM   24  C   UNL     1     -41.071  53.303 -53.397  1.00  0.00    -0.048 A 
HETATM   25  C   UNL     1     -40.645  52.167 -54.104  1.00  0.00     0.031 A 
HETATM   26  C   UNL     1     -39.823  51.220 -53.491  1.00  0.00     0.034 A 
HETATM   27 CL   UNL     1     -39.309  49.837 -54.378  1.00  0.00    -0.084 Cl
HETATM   28  C   UNL     1     -39.406  51.390 -52.174  1.00  0.00     0.024 A 
HETATM   29  C   UNL     1     -39.810  52.521 -51.466  1.00  0.00     0.002 A 
HETATM   30  C   UNL     1     -40.629  53.475 -52.076  1.00  0.00     0.007 A 
ENDBRANCH  23  24
ENDBRANCH   5  23
TORSDOF 5
ENDMDL
MODEL 2
REMARK VINA RESULT:      -8.4      6.617      9.240
REMARK  5 active torsions:
REMARK  status: ('A' for Active; 'I' for Inactive)
REMARK    1  A    between atoms: O_2  and  C_3 
REMARK    2  A    between atoms: C_6  and  C_7 
REMARK    3  A    between atoms: C_11  and  N_12 
REMARK       I    between atoms: N_15  and  C_16 
REMARK    4  A    between atoms: C_16  and  C_17 
REMARK    5  A    between atoms: C_17  and  C_18 
ROOT
HETATM    1  N   UNL     1     -42.616  56.092 -55.718  1.00  0.00    -0.363 N 
HETATM    2  C   UNL     1     -43.571  56.248 -54.602  1.00  0.00     0.144 C 
HETATM    3  C   UNL     1     -43.459  55.069 -53.626  1.00  0.00     0.145 C 
HETATM    4  N   UNL     1     -42.083  54.811 -53.183  1.00  0.00    -0.349 N 
HETATM    5  C   UNL     1     -41.935  54.134 -51.976  1.00  0.00     0.224 C 
HETATM    6  O   UNL     1     -42.900  53.889 -51.245  1.00  0.00    -0.273 OA
HETATM    7  C   UNL     1     -41.094  54.763 -54.270  1.00  0.00     0.145 C 
HETATM    8  C   UNL     1     -41.222  55.933 -55.270  1.00  0.00     0.144 C 
ENDROOT
BRANCH   1   9
HETATM    9  C   UNL     1     -42.951  56.560 -56.957  1.00  0.00     0.122 A 
HETATM   10  N   UNL     1     -43.924  56.012 -57.753  1.00  0.00    -0.262 N 
HETATM   11  N   UNL     1     -44.146  56.671 -58.902  1.00  0.00    -0.173 NA
HETATM   12  H   UNL     1     -44.485  55.192 -57.570  1.00  0.00     0.191 HD
HETATM   13  C   UNL     1     -43.281  57.698 -58.869  1.00  0.00     0.090 A 
HETATM   14  C   UNL     1     -42.500  57.643 -57.682  1.00  0.00     0.084 A 
BRANCH  13  15
HETATM   15  C   UNL     1     -43.243  58.719 -59.921  1.00  0.00    -0.005 A 
HETATM   16  C   UNL     1     -44.427  59.325 -60.367  1.00  0.00     0.016 A 
HETATM   17  C   UNL     1     -44.400  60.351 -61.322  1.00  0.00     0.037 A 
HETATM   18  C   UNL     1     -43.184  60.786 -61.848  1.00  0.00     0.068 A 
HETATM   19  C   UNL     1     -42.004  60.164 -61.435  1.00  0.00     0.037 A 
HETATM   20  C   UNL     1     -42.030  59.144 -60.478  1.00  0.00     0.016 A 
BRANCH  18  21
HETATM   21  O   UNL     1     -43.017  61.785 -62.765  1.00  0.00    -0.356 OA
HETATM   22  C   UNL     1     -42.503  61.401 -64.034  1.00  0.00     0.210 C 
ENDBRANCH  18  21
ENDBRANCH  13  15
ENDBRANCH   1   9
BRANCH   5  23
HETATM   23  C   UNL     1     -40.540  53.712 -51.539  1.00  0.00     0.141 C 
BRANCH  23  24
HETATM   24  C   UNL     1     -40.242  52.237 -51.689  1.00  0.00    -0.048 A 
HETATM   25  C   UNL     1     -40.018  51.701 -52.968  1.00  0.00     0.031 A 
HETATM   26  C   UNL     1     -39.679  50.356 -53.122  1.00  0.00     0.034 A 
HETATM   27 CL   UNL     1     -39.405  49.722 -54.699  1.00  0.00    -0.084 Cl
HETATM   28  C   UNL     1     -39.551  49.526 -52.011  1.00  0.00     0.024 A 
HETATM   29  C   UNL     1     -39.757  50.050 -50.735  1.00  0.00     0.002 A 
HETATM   30  C   UNL     1     -40.091  51.397 -50.576  1.00  0.00     0.007 A 
ENDBRANCH  23  24
ENDBRANCH   5  23
TORSDOF 5
ENDMDL
MODEL 3
REMARK VINA RESULT:      -8.2      7.869     11.084
REMARK  5 active torsions:
REMARK  status: ('A' for Active; 'I' for Inactive)
REMARK    1  A    between atoms: O_2  and  C_3 
REMARK    2  A    between atoms: C_6  and  C_7 
REMARK    3  A    between atoms: C_11  and  N_12 
REMARK       I    between atoms: N_15  and  C_16 
REMARK    4  A    between atoms: C_16  and  C_17 
REMARK    5  A    between atoms: C_17  and  C_18 
ROOT
HETATM    1  N   UNL     1     -42.935  57.034 -57.178  1.00  0.00    -0.363 N 
HETATM    2  C   UNL     1     -44.101  57.915 -56.964  1.00  0.00     0.144 C 
HETATM    3  C   UNL     1     -43.758  59.366 -57.328  1.00  0.00     0.145 C 
HETATM    4  N   UNL     1     -43.163  59.503 -58.663  1.00  0.00    -0.349 N 
HETATM    5  C   UNL     1     -43.275  60.751 -59.269  1.00  0.00     0.224 C 
HETATM    6  O   UNL     1     -43.959  61.653 -58.776  1.00  0.00    -0.273 OA
HETATM    7  C   UNL     1     -42.071  58.559 -58.941  1.00  0.00     0.145 C 
HETATM    8  C   UNL     1     -42.402  57.102 -58.550  1.00  0.00     0.144 C 
ENDROOT
BRANCH   1   9
HETATM    9  C   UNL     1     -42.750  55.956 -56.360  1.00  0.00     0.122 A 
HETATM   10  N   UNL     1     -43.541  54.836 -56.365  1.00  0.00    -0.262 N 
HETATM   11  N   UNL     1     -43.140  53.862 -55.532  1.00  0.00    -0.173 NA
HETATM   12  H   UNL     1     -44.368  54.665 -56.920  1.00  0.00     0.191 HD
HETATM   13  C   UNL     1     -42.036  54.357 -54.947  1.00  0.00     0.090 A 
HETATM   14  C   UNL     1     -41.781  55.674 -55.421  1.00  0.00     0.084 A 
BRANCH  13  15
HETATM   15  C   UNL     1     -41.235  53.571 -54.004  1.00  0.00    -0.005 A 
HETATM   16  C   UNL     1     -41.103  53.981 -52.668  1.00  0.00     0.016 A 
HETATM   17  C   UNL     1     -40.398  53.204 -51.740  1.00  0.00     0.037 A 
HETATM   18  C   UNL     1     -39.811  52.002 -52.134  1.00  0.00     0.068 A 
HETATM   19  C   UNL     1     -39.908  51.605 -53.469  1.00  0.00     0.037 A 
HETATM   20  C   UNL     1     -40.616  52.377 -54.395  1.00  0.00     0.016 A 
BRANCH  18  21
HETATM   21  O   UNL     1     -39.118  51.144 -51.327  1.00  0.00    -0.356 OA
HETATM   22  C   UNL     1     -39.493  49.774 -51.388  1.00  0.00     0.210 C 
ENDBRANCH  18  21
ENDBRANCH  13  15
ENDBRANCH   1   9
BRANCH   5  23
HETATM   23  C   UNL     1     -42.554  60.994 -60.585  1.00  0.00     0.141 C 
BRANCH  23  24
HETATM   24  C   UNL     1     -41.286  61.812 -60.479  1.00  0.00    -0.048 A 
HETATM   25  C   UNL     1     -40.686  62.317 -61.644  1.00  0.00     0.031 A 
HETATM   26  C   UNL     1     -39.552  63.126 -61.562  1.00  0.00     0.034 A 
HETATM   27 CL   UNL     1     -38.836  63.737 -63.004  1.00  0.00    -0.084 Cl
HETATM   28  C   UNL     1     -39.002  63.451 -60.326  1.00  0.00     0.024 A 
HETATM   29  C   UNL     1     -39.596  62.968 -59.160  1.00  0.00     0.002 A 
HETATM   30  C   UNL     1     -40.735  62.162 -59.237  1.00  0.00     0.007 A 
ENDBRANCH  23  24
ENDBRANCH   5  23
TORSDOF 5
ENDMDL
MODEL 4
REMARK VINA RESULT:      -8.2      3.391     10.859
REMARK  5 active torsions:
REMARK  status: ('A' for Active; 'I' for Inactive)
REMARK    1  A    between atoms: O_2  and  C_3 
REMARK    2  A    between atoms: C_6  and  C_7 
REMARK    3  A    between atoms: C_11  and  N_12 
REMARK       I    between atoms: N_15  and  C_16 
REMARK    4  A    between atoms: C_16  and  C_17 
REMARK    5  A    between atoms: C_17  and  C_18 
ROOT
HETATM    1  N   UNL     1     -43.934  58.442 -52.126  1.00  0.00    -0.363 N 
HETATM    2  C   UNL     1     -45.157  59.079 -52.655  1.00  0.00     0.144 C 
HETATM    3  C   UNL     1     -45.812  59.965 -51.586  1.00  0.00     0.145 C 
HETATM    4  N   UNL     1     -44.878  60.917 -50.971  1.00  0.00    -0.349 N 
HETATM    5  C   UNL     1     -45.439  62.050 -50.389  1.00  0.00     0.224 C 
HETATM    6  O   UNL     1     -46.640  62.314 -50.506  1.00  0.00    -0.273 OA
HETATM    7  C   UNL     1     -43.605  60.325 -50.537  1.00  0.00     0.145 C 
HETATM    8  C   UNL     1     -42.957  59.410 -51.600  1.00  0.00     0.144 C 
ENDROOT
BRANCH   1   9
HETATM    9  C   UNL     1     -43.586  57.194 -52.562  1.00  0.00     0.122 A 
HETATM   10  N   UNL     1     -44.256  56.501 -53.537  1.00  0.00    -0.262 N 
HETATM   11  N   UNL     1     -43.703  55.324 -53.867  1.00  0.00    -0.173 NA
HETATM   12  H   UNL     1     -45.095  56.778 -54.027  1.00  0.00     0.191 HD
HETATM   13  C   UNL     1     -42.622  55.228 -53.076  1.00  0.00     0.090 A 
HETATM   14  C   UNL     1     -42.534  56.367 -52.229  1.00  0.00     0.084 A 
BRANCH  13  15
HETATM   15  C   UNL     1     -41.685  54.104 -53.169  1.00  0.00    -0.005 A 
HETATM   16  C   UNL     1     -40.918  53.723 -52.057  1.00  0.00     0.016 A 
HETATM   17  C   UNL     1     -40.071  52.609 -52.111  1.00  0.00     0.037 A 
HETATM   18  C   UNL     1     -39.974  51.858 -53.281  1.00  0.00     0.068 A 
HETATM   19  C   UNL     1     -40.707  52.251 -54.403  1.00  0.00     0.037 A 
HETATM   20  C   UNL     1     -41.557  53.361 -54.349  1.00  0.00     0.016 A 
BRANCH  18  21
HETATM   21  O   UNL     1     -39.205  50.742 -53.460  1.00  0.00    -0.356 OA
HETATM   22  C   UNL     1     -39.645  49.821 -54.450  1.00  0.00     0.210 C 
ENDBRANCH  18  21
ENDBRANCH  13  15
ENDBRANCH   1   9
BRANCH   5  23
HETATM   23  C   UNL     1     -44.537  62.997 -49.612  1.00  0.00     0.141 C 
BRANCH  23  24
HETATM   24  C   UNL     1     -44.799  63.052 -48.124  1.00  0.00    -0.048 A 
HETATM   25  C   UNL     1     -44.900  61.858 -47.392  1.00  0.00     0.031 A 
HETATM   26  C   UNL     1     -45.078  61.888 -46.008  1.00  0.00     0.034 A 
HETATM   27 CL   UNL     1     -45.195  60.411 -45.132  1.00  0.00    -0.084 Cl
HETATM   28  C   UNL     1     -45.151  63.102 -45.330  1.00  0.00     0.024 A 
HETATM   29  C   UNL     1     -45.038  64.295 -46.043  1.00  0.00     0.002 A 
HETATM   30  C   UNL     1     -44.854  64.270 -47.428  1.00  0.00     0.007 A 
ENDBRANCH  23  24
ENDBRANCH   5  23
TORSDOF 5
ENDMDL
MODEL 5
REMARK VINA RESULT:      -8.2      6.293      8.905
REMARK  5 active torsions:
REMARK  status: ('A' for Active; 'I' for Inactive)
REMARK    1  A    between atoms: O_2  and  C_3 
REMARK    2  A    between atoms: C_6  and  C_7 
REMARK    3  A    between atoms: C_11  and  N_12 
REMARK       I    between atoms: N_15  and  C_16 
REMARK    4  A    between atoms: C_16  and  C_17 
REMARK    5  A    between atoms: C_17  and  C_18 
ROOT
HETATM    1  N   UNL     1     -42.511  56.333 -55.230  1.00  0.00    -0.363 N 
HETATM    2  C   UNL     1     -43.337  56.517 -54.019  1.00  0.00     0.144 C 
HETATM    3  C   UNL     1     -43.227  55.295 -53.097  1.00  0.00     0.145 C 
HETATM    4  N   UNL     1     -41.840  54.913 -52.803  1.00  0.00    -0.349 N 
HETATM    5  C   UNL     1     -41.630  54.179 -51.640  1.00  0.00     0.224 C 
HETATM    6  O   UNL     1     -42.536  53.980 -50.824  1.00  0.00    -0.273 OA
HETATM    7  C   UNL     1     -40.969  54.832 -53.985  1.00  0.00     0.145 C 
HETATM    8  C   UNL     1     -41.098  56.048 -54.930  1.00  0.00     0.144 C 
ENDROOT
BRANCH   1   9
HETATM    9  C   UNL     1     -42.927  56.874 -56.413  1.00  0.00     0.122 A 
HETATM   10  N   UNL     1     -42.113  57.080 -57.498  1.00  0.00    -0.262 N 
HETATM   11  N   UNL     1     -42.739  57.554 -58.586  1.00  0.00    -0.173 NA
HETATM   12  H   UNL     1     -41.120  56.909 -57.567  1.00  0.00     0.191 HD
HETATM   13  C   UNL     1     -44.023  57.672 -58.208  1.00  0.00     0.090 A 
HETATM   14  C   UNL     1     -44.170  57.282 -56.848  1.00  0.00     0.084 A 
BRANCH  13  15
HETATM   15  C   UNL     1     -45.074  58.099 -59.138  1.00  0.00    -0.005 A 
HETATM   16  C   UNL     1     -45.070  59.398 -59.667  1.00  0.00     0.016 A 
HETATM   17  C   UNL     1     -46.027  59.798 -60.609  1.00  0.00     0.037 A 
HETATM   18  C   UNL     1     -47.006  58.902 -61.036  1.00  0.00     0.068 A 
HETATM   19  C   UNL     1     -47.038  57.619 -60.488  1.00  0.00     0.037 A 
HETATM   20  C   UNL     1     -46.080  57.217 -59.552  1.00  0.00     0.016 A 
BRANCH  18  21
HETATM   21  O   UNL     1     -47.981  59.157 -61.961  1.00  0.00    -0.356 OA
HETATM   22  C   UNL     1     -48.867  58.085 -62.259  1.00  0.00     0.210 C 
ENDBRANCH  18  21
ENDBRANCH  13  15
ENDBRANCH   1   9
BRANCH   5  23
HETATM   23  C   UNL     1     -40.238  53.633 -51.359  1.00  0.00     0.141 C 
BRANCH  23  24
HETATM   24  C   UNL     1     -40.072  52.150 -51.604  1.00  0.00    -0.048 A 
HETATM   25  C   UNL     1     -39.911  51.677 -52.917  1.00  0.00     0.031 A 
HETATM   26  C   UNL     1     -39.693  50.320 -53.158  1.00  0.00     0.034 A 
HETATM   27 CL   UNL     1     -39.495  49.764 -54.775  1.00  0.00    -0.084 Cl
HETATM   28  C   UNL     1     -39.624  49.415 -52.103  1.00  0.00     0.024 A 
HETATM   29  C   UNL     1     -39.767  49.874 -50.794  1.00  0.00     0.002 A 
HETATM   30  C   UNL     1     -39.981  51.232 -50.546  1.00  0.00     0.007 A 
ENDBRANCH  23  24
ENDBRANCH   5  23
TORSDOF 5
ENDMDL
MODEL 6
REMARK VINA RESULT:      -8.0     19.566     21.796
REMARK  5 active torsions:
REMARK  status: ('A' for Active; 'I' for Inactive)
REMARK    1  A    between atoms: O_2  and  C_3 
REMARK    2  A    between atoms: C_6  and  C_7 
REMARK    3  A    between atoms: C_11  and  N_12 
REMARK       I    between atoms: N_15  and  C_16 
REMARK    4  A    between atoms: C_16  and  C_17 
REMARK    5  A    between atoms: C_17  and  C_18 
ROOT
HETATM    1  N   UNL     1     -32.973  40.102 -51.311  1.00  0.00    -0.363 N 
HETATM    2  C   UNL     1     -32.038  40.178 -52.453  1.00  0.00     0.144 C 
HETATM    3  C   UNL     1     -32.792  40.024 -53.781  1.00  0.00     0.145 C 
HETATM    4  N   UNL     1     -33.938  40.933 -53.905  1.00  0.00    -0.349 N 
HETATM    5  C   UNL     1     -34.364  41.224 -55.198  1.00  0.00     0.224 C 
HETATM    6  O   UNL     1     -33.728  40.855 -56.190  1.00  0.00    -0.273 OA
HETATM    7  C   UNL     1     -34.824  40.958 -52.732  1.00  0.00     0.145 C 
HETATM    8  C   UNL     1     -34.067  41.085 -51.391  1.00  0.00     0.144 C 
ENDROOT
BRANCH   1   9
HETATM    9  C   UNL     1     -32.549  39.554 -50.133  1.00  0.00     0.122 A 
HETATM   10  N   UNL     1     -32.497  38.206 -49.883  1.00  0.00    -0.262 N 
HETATM   11  N   UNL     1     -31.979  37.878 -48.688  1.00  0.00    -0.173 NA
HETATM   12  H   UNL     1     -32.791  37.452 -50.488  1.00  0.00     0.191 HD
HETATM   13  C   UNL     1     -31.677  39.058 -48.120  1.00  0.00     0.090 A 
HETATM   14  C   UNL     1     -32.047  40.125 -48.984  1.00  0.00     0.084 A 
BRANCH  13  15
HETATM   15  C   UNL     1     -31.016  39.147 -46.815  1.00  0.00    -0.005 A 
HETATM   16  C   UNL     1     -30.335  40.315 -46.440  1.00  0.00     0.016 A 
HETATM   17  C   UNL     1     -29.758  40.441 -45.169  1.00  0.00     0.037 A 
HETATM   18  C   UNL     1     -29.851  39.395 -44.252  1.00  0.00     0.068 A 
HETATM   19  C   UNL     1     -30.497  38.216 -44.629  1.00  0.00     0.037 A 
HETATM   20  C   UNL     1     -31.077  38.092 -45.895  1.00  0.00     0.016 A 
BRANCH  18  21
HETATM   21  O   UNL     1     -29.353  39.396 -42.979  1.00  0.00    -0.356 OA
HETATM   22  C   UNL     1     -28.366  40.378 -42.686  1.00  0.00     0.210 C 
ENDBRANCH  18  21
ENDBRANCH  13  15
ENDBRANCH   1   9
BRANCH   5  23
HETATM   23  C   UNL     1     -35.633  42.042 -55.385  1.00  0.00     0.141 C 
BRANCH  23  24
HETATM   24  C   UNL     1     -36.545  41.564 -56.493  1.00  0.00    -0.048 A 
HETATM   25  C   UNL     1     -36.556  42.242 -57.723  1.00  0.00     0.031 A 
HETATM   26  C   UNL     1     -37.343  41.778 -58.778  1.00  0.00     0.034 A 
HETATM   27 CL   UNL     1     -37.339  42.623 -60.278  1.00  0.00    -0.084 Cl
HETATM   28  C   UNL     1     -38.123  40.634 -58.632  1.00  0.00     0.024 A 
HETATM   29  C   UNL     1     -38.109  39.944 -57.420  1.00  0.00     0.002 A 
HETATM   30  C   UNL     1     -37.319  40.401 -56.362  1.00  0.00     0.007 A 
ENDBRANCH  23  24
ENDBRANCH   5  23
TORSDOF 5
ENDMDL
MODEL 7
REMARK VINA RESULT:      -7.8      6.608      9.546
REMARK  5 active torsions:
REMARK  status: ('A' for Active; 'I' for Inactive)
REMARK    1  A    between atoms: O_2  and  C_3 
REMARK    2  A    between atoms: C_6  and  C_7 
REMARK    3  A    between atoms: C_11  and  N_12 
REMARK       I    between atoms: N_15  and  C_16 
REMARK    4  A    between atoms: C_16  and  C_17 
REMARK    5  A    between atoms: C_17  and  C_18 
ROOT
HETATM    1  N   UNL     1     -42.494  58.455 -56.617  1.00  0.00    -0.363 N 
HETATM    2  C   UNL     1     -43.299  57.434 -57.318  1.00  0.00     0.144 C 
HETATM    3  C   UNL     1     -42.969  56.030 -56.795  1.00  0.00     0.145 C 
HETATM    4  N   UNL     1     -43.042  55.925 -55.332  1.00  0.00    -0.349 N 
HETATM    5  C   UNL     1     -43.250  54.651 -54.810  1.00  0.00     0.224 C 
HETATM    6  O   UNL     1     -43.502  53.684 -55.536  1.00  0.00    -0.273 OA
HETATM    7  C   UNL     1     -42.340  56.995 -54.610  1.00  0.00     0.145 C 
HETATM    8  C   UNL     1     -42.648  58.409 -55.153  1.00  0.00     0.144 C 
ENDROOT
BRANCH   1   9
HETATM    9  C   UNL     1     -42.100  59.577 -57.289  1.00  0.00     0.122 A 
HETATM   10  N   UNL     1     -41.717  60.747 -56.684  1.00  0.00    -0.262 N 
HETATM   11  N   UNL     1     -41.297  61.702 -57.528  1.00  0.00    -0.173 NA
HETATM   12  H   UNL     1     -41.709  60.959 -55.697  1.00  0.00     0.191 HD
HETATM   13  C   UNL     1     -41.408  61.145 -58.746  1.00  0.00     0.090 A 
HETATM   14  C   UNL     1     -41.934  59.828 -58.635  1.00  0.00     0.084 A 
BRANCH  13  15
HETATM   15  C   UNL     1     -40.980  61.841 -59.963  1.00  0.00    -0.005 A 
HETATM   16  C   UNL     1     -39.872  62.702 -59.939  1.00  0.00     0.016 A 
HETATM   17  C   UNL     1     -39.410  63.319 -61.109  1.00  0.00     0.037 A 
HETATM   18  C   UNL     1     -40.051  63.085 -62.325  1.00  0.00     0.068 A 
HETATM   19  C   UNL     1     -41.176  62.258 -62.351  1.00  0.00     0.037 A 
HETATM   20  C   UNL     1     -41.635  61.638 -61.185  1.00  0.00     0.016 A 
BRANCH  18  21
HETATM   21  O   UNL     1     -39.691  63.606 -63.536  1.00  0.00    -0.356 OA
HETATM   22  C   UNL     1     -38.339  64.026 -63.669  1.00  0.00     0.210 C 
ENDBRANCH  18  21
ENDBRANCH  13  15
ENDBRANCH   1   9
BRANCH   5  23
HETATM   23  C   UNL     1     -43.190  54.459 -53.302  1.00  0.00     0.141 C 
BRANCH  23  24
HETATM   24  C   UNL     1     -41.906  53.849 -52.786  1.00  0.00    -0.048 A 
HETATM   25  C   UNL     1     -41.432  54.204 -51.513  1.00  0.00     0.031 A 
HETATM   26  C   UNL     1     -40.284  53.604 -50.993  1.00  0.00     0.034 A 
HETATM   27 CL   UNL     1     -39.723  54.052 -49.428  1.00  0.00    -0.084 Cl
HETATM   28  C   UNL     1     -39.595  52.640 -51.724  1.00  0.00     0.024 A 
HETATM   29  C   UNL     1     -40.063  52.269 -52.984  1.00  0.00     0.002 A 
HETATM   30  C   UNL     1     -41.215  52.862 -53.507  1.00  0.00     0.007 A 
ENDBRANCH  23  24
ENDBRANCH   5  23
TORSDOF 5
ENDMDL
MODEL 8
REMARK VINA RESULT:      -7.7      7.611     10.972
REMARK  5 active torsions:
REMARK  status: ('A' for Active; 'I' for Inactive)
REMARK    1  A    between atoms: O_2  and  C_3 
REMARK    2  A    between atoms: C_6  and  C_7 
REMARK    3  A    between atoms: C_11  and  N_12 
REMARK       I    between atoms: N_15  and  C_16 
REMARK    4  A    between atoms: C_16  and  C_17 
REMARK    5  A    between atoms: C_17  and  C_18 
ROOT
HETATM    1  N   UNL     1     -43.263  57.353 -56.299  1.00  0.00    -0.363 N 
HETATM    2  C   UNL     1     -42.352  57.960 -57.290  1.00  0.00     0.144 C 
HETATM    3  C   UNL     1     -42.998  57.976 -58.682  1.00  0.00     0.145 C 
HETATM    4  N   UNL     1     -44.343  58.565 -58.690  1.00  0.00    -0.349 N 
HETATM    5  C   UNL     1     -44.795  59.069 -59.906  1.00  0.00     0.224 C 
HETATM    6  O   UNL     1     -44.055  59.147 -60.892  1.00  0.00    -0.273 OA
HETATM    7  C   UNL     1     -45.236  58.056 -57.639  1.00  0.00     0.145 C 
HETATM    8  C   UNL     1     -44.579  58.012 -56.241  1.00  0.00     0.144 C 
ENDROOT
BRANCH   1   9
HETATM    9  C   UNL     1     -42.741  56.639 -55.258  1.00  0.00     0.122 A 
HETATM   10  N   UNL     1     -43.054  56.853 -53.939  1.00  0.00    -0.262 N 
HETATM   11  N   UNL     1     -42.486  55.991 -53.082  1.00  0.00    -0.173 NA
HETATM   12  H   UNL     1     -43.657  57.567 -53.555  1.00  0.00     0.191 HD
HETATM   13  C   UNL     1     -41.763  55.171 -53.862  1.00  0.00     0.090 A 
HETATM   14  C   UNL     1     -41.877  55.565 -55.224  1.00  0.00     0.084 A 
BRANCH  13  15
HETATM   15  C   UNL     1     -41.028  54.025 -53.318  1.00  0.00    -0.005 A 
HETATM   16  C   UNL     1     -40.684  53.979 -51.959  1.00  0.00     0.016 A 
HETATM   17  C   UNL     1     -40.044  52.860 -51.411  1.00  0.00     0.037 A 
HETATM   18  C   UNL     1     -39.734  51.766 -52.218  1.00  0.00     0.068 A 
HETATM   19  C   UNL     1     -40.041  51.817 -53.579  1.00  0.00     0.037 A 
HETATM   20  C   UNL     1     -40.685  52.932 -54.126  1.00  0.00     0.016 A 
BRANCH  18  21
HETATM   21  O   UNL     1     -39.132  50.609 -51.808  1.00  0.00    -0.356 OA
HETATM   22  C   UNL     1     -39.592  49.406 -52.412  1.00  0.00     0.210 C 
ENDBRANCH  18  21
ENDBRANCH  13  15
ENDBRANCH   1   9
BRANCH   5  23
HETATM   23  C   UNL     1     -46.231  59.559 -60.008  1.00  0.00     0.141 C 
BRANCH  23  24
HETATM   24  C   UNL     1     -47.158  58.661 -60.797  1.00  0.00    -0.048 A 
HETATM   25  C   UNL     1     -48.135  59.232 -61.629  1.00  0.00     0.031 A 
HETATM   26  C   UNL     1     -48.958  58.422 -62.413  1.00  0.00     0.034 A 
HETATM   27 CL   UNL     1     -50.146  59.144 -63.429  1.00  0.00    -0.084 Cl
HETATM   28  C   UNL     1     -48.820  57.037 -62.388  1.00  0.00     0.024 A 
HETATM   29  C   UNL     1     -47.844  56.458 -61.577  1.00  0.00     0.002 A 
HETATM   30  C   UNL     1     -47.014  57.265 -60.794  1.00  0.00     0.007 A 
ENDBRANCH  23  24
ENDBRANCH   5  23
TORSDOF 5
ENDMDL
MODEL 9
REMARK VINA RESULT:      -7.6      7.652     11.012
REMARK  5 active torsions:
REMARK  status: ('A' for Active; 'I' for Inactive)
REMARK    1  A    between atoms: O_2  and  C_3 
REMARK    2  A    between atoms: C_6  and  C_7 
REMARK    3  A    between atoms: C_11  and  N_12 
REMARK       I    between atoms: N_15  and  C_16 
REMARK    4  A    between atoms: C_16  and  C_17 
REMARK    5  A    between atoms: C_17  and  C_18 
ROOT
HETATM    1  N   UNL     1     -42.792  57.597 -57.118  1.00  0.00    -0.363 N 
HETATM    2  C   UNL     1     -42.751  57.141 -58.523  1.00  0.00     0.144 C 
HETATM    3  C   UNL     1     -43.553  58.090 -59.424  1.00  0.00     0.145 C 
HETATM    4  N   UNL     1     -43.179  59.500 -59.258  1.00  0.00    -0.349 N 
HETATM    5  C   UNL     1     -43.463  60.348 -60.325  1.00  0.00     0.224 C 
HETATM    6  O   UNL     1     -43.874  59.917 -61.407  1.00  0.00    -0.273 OA
HETATM    7  C   UNL     1     -43.104  59.949 -57.861  1.00  0.00     0.145 C 
HETATM    8  C   UNL     1     -42.322  58.982 -56.945  1.00  0.00     0.144 C 
ENDROOT
BRANCH   1   9
HETATM    9  C   UNL     1     -42.773  56.672 -56.113  1.00  0.00     0.122 A 
HETATM   10  N   UNL     1     -43.895  56.134 -55.536  1.00  0.00    -0.262 N 
HETATM   11  N   UNL     1     -43.653  55.186 -54.617  1.00  0.00    -0.173 NA
HETATM   12  H   UNL     1     -44.860  56.361 -55.730  1.00  0.00     0.191 HD
HETATM   13  C   UNL     1     -42.313  55.093 -54.578  1.00  0.00     0.090 A 
HETATM   14  C   UNL     1     -41.732  56.027 -55.480  1.00  0.00     0.084 A 
BRANCH  13  15
HETATM   15  C   UNL     1     -41.624  54.109 -53.738  1.00  0.00    -0.005 A 
HETATM   16  C   UNL     1     -40.915  53.047 -54.321  1.00  0.00     0.016 A 
HETATM   17  C   UNL     1     -40.195  52.139 -53.533  1.00  0.00     0.037 A 
HETATM   18  C   UNL     1     -40.174  52.278 -52.146  1.00  0.00     0.068 A 
HETATM   19  C   UNL     1     -40.905  53.311 -51.556  1.00  0.00     0.037 A 
HETATM   20  C   UNL     1     -41.620  54.221 -52.342  1.00  0.00     0.016 A 
BRANCH  18  21
HETATM   21  O   UNL     1     -39.498  51.478 -51.269  1.00  0.00    -0.356 OA
HETATM   22  C   UNL     1     -39.502  50.084 -51.550  1.00  0.00     0.210 C 
ENDBRANCH  18  21
ENDBRANCH  13  15
ENDBRANCH   1   9
BRANCH   5  23
HETATM   23  C   UNL     1     -43.232  61.842 -60.155  1.00  0.00     0.141 C 
BRANCH  23  24
HETATM   24  C   UNL     1     -41.939  62.360 -60.744  1.00  0.00    -0.048 A 
HETATM   25  C   UNL     1     -40.937  62.854 -59.893  1.00  0.00     0.031 A 
HETATM   26  C   UNL     1     -39.713  63.278 -60.412  1.00  0.00     0.034 A 
HETATM   27 CL   UNL     1     -38.498  63.877 -59.349  1.00  0.00    -0.084 Cl
HETATM   28  C   UNL     1     -39.463  63.211 -61.780  1.00  0.00     0.024 A 
HETATM   29  C   UNL     1     -40.443  62.709 -62.635  1.00  0.00     0.002 A 
HETATM   30  C   UNL     1     -41.669  62.279 -62.119  1.00  0.00     0.007 A 
ENDBRANCH  23  24
ENDBRANCH   5  23
TORSDOF 5
ENDMDL
MODEL 10
REMARK VINA RESULT:      -7.5      3.716     11.216
REMARK  5 active torsions:
REMARK  status: ('A' for Active; 'I' for Inactive)
REMARK    1  A    between atoms: O_2  and  C_3 
REMARK    2  A    between atoms: C_6  and  C_7 
REMARK    3  A    between atoms: C_11  and  N_12 
REMARK       I    between atoms: N_15  and  C_16 
REMARK    4  A    between atoms: C_16  and  C_17 
REMARK    5  A    between atoms: C_17  and  C_18 
ROOT
HETATM    1  N   UNL     1     -44.028  59.534 -51.105  1.00  0.00    -0.363 N 
HETATM    2  C   UNL     1     -45.459  59.351 -50.783  1.00  0.00     0.144 C 
HETATM    3  C   UNL     1     -45.757  59.826 -49.354  1.00  0.00     0.145 C 
HETATM    4  N   UNL     1     -45.268  61.183 -49.080  1.00  0.00    -0.349 N 
HETATM    5  C   UNL     1     -45.892  61.872 -48.045  1.00  0.00     0.224 C 
HETATM    6  O   UNL     1     -46.895  61.426 -47.480  1.00  0.00    -0.273 OA
HETATM    7  C   UNL     1     -43.878  61.424 -49.496  1.00  0.00     0.145 C 
HETATM    8  C   UNL     1     -43.567  60.921 -50.923  1.00  0.00     0.144 C 
ENDROOT
BRANCH   1   9
HETATM    9  C   UNL     1     -43.411  58.647 -51.940  1.00  0.00     0.122 A 
HETATM   10  N   UNL     1     -42.906  58.968 -53.174  1.00  0.00    -0.262 N 
HETATM   11  N   UNL     1     -42.272  57.964 -53.799  1.00  0.00    -0.173 NA
HETATM   12  H   UNL     1     -42.950  59.860 -53.647  1.00  0.00     0.191 HD
HETATM   13  C   UNL     1     -42.362  56.930 -52.946  1.00  0.00     0.090 A 
HETATM   14  C   UNL     1     -43.092  57.314 -51.787  1.00  0.00     0.084 A 
BRANCH  13  15
HETATM   15  C   UNL     1     -41.728  55.636 -53.219  1.00  0.00    -0.005 A 
HETATM   16  C   UNL     1     -41.035  55.423 -54.420  1.00  0.00     0.016 A 
HETATM   17  C   UNL     1     -40.366  54.216 -54.665  1.00  0.00     0.037 A 
HETATM   18  C   UNL     1     -40.382  53.201 -53.710  1.00  0.00     0.068 A 
HETATM   19  C   UNL     1     -41.099  53.391 -52.527  1.00  0.00     0.037 A 
HETATM   20  C   UNL     1     -41.763  54.597 -52.280  1.00  0.00     0.016 A 
BRANCH  18  21
HETATM   21  O   UNL     1     -39.756  51.990 -53.814  1.00  0.00    -0.356 OA
HETATM   22  C   UNL     1     -39.528  51.287 -52.598  1.00  0.00     0.210 C 
ENDBRANCH  18  21
ENDBRANCH  13  15
ENDBRANCH   1   9
BRANCH   5  23
HETATM   23  C   UNL     1     -45.333  63.222 -47.622  1.00  0.00     0.141 C 
BRANCH  23  24
HETATM   24  C   UNL     1     -45.536  63.570 -46.164  1.00  0.00    -0.048 A 
HETATM   25  C   UNL     1     -44.621  63.105 -45.206  1.00  0.00     0.031 A 
HETATM   26  C   UNL     1     -44.755  63.468 -43.865  1.00  0.00     0.034 A 
HETATM   27 CL   UNL     1     -43.618  62.890 -42.708  1.00  0.00    -0.084 Cl
HETATM   28  C   UNL     1     -45.794  64.300 -43.457  1.00  0.00     0.024 A 
HETATM   29  C   UNL     1     -46.701  64.780 -44.400  1.00  0.00     0.002 A 
HETATM   30  C   UNL     1     -46.568  64.424 -45.745  1.00  0.00     0.007 A 
ENDBRANCH  23  24
ENDBRANCH   5  23
TORSDOF 5
ENDMDL
