MODEL 1
REMARK VINA RESULT:      -8.5      0.000      0.000
REMARK  5 active torsions:
REMARK  status: ('A' for Active; 'I' for Inactive)
REMARK    1  A    between atoms: C_2  and  N_3 
REMARK    2  A    between atoms: C_7  and  N_8 
REMARK       I    between atoms: N_8  and  C_9 
REMARK       I    between atoms: C_9  and  N_10 
REMARK    3  A    between atoms: N_10  and  C_11 
REMARK    4  A    between atoms: C_11  and  C_12 
REMARK    5  A    between atoms: C_17  and  C_18 
ROOT
HETATM    1  N   UNL     1     -44.417  55.619 -54.558  1.00  0.00    -0.293 N 
HETATM    2  C   UNL     1     -43.260  55.014 -55.092  1.00  0.00     0.322 C 
HETATM    3  N   UNL     1     -42.076  55.618 -54.780  1.00  0.00    -0.339 N 
HETATM    4  O   UNL     1     -43.417  53.957 -55.674  1.00  0.00    -0.247 OA
HETATM    5  H   UNL     1     -45.201  54.984 -54.460  1.00  0.00     0.172 HD
HETATM    6  H   UNL     1     -42.092  56.245 -53.992  1.00  0.00     0.164 HD
ENDROOT
BRANCH   3   7
HETATM    7  C   UNL     1     -40.881  54.835 -55.012  1.00  0.00     0.163 C 
BRANCH   7   8
HETATM    8  C   UNL     1     -40.596  53.726 -54.031  1.00  0.00    -0.037 A 
HETATM    9  C   UNL     1     -40.441  54.076 -52.678  1.00  0.00     0.051 A 
HETATM   10  C   UNL     1     -40.074  53.125 -51.732  1.00  0.00     0.117 A 
HETATM   11  F   UNL     1     -39.919  53.494 -50.454  1.00  0.00    -0.206 F 
HETATM   12  C   UNL     1     -39.850  51.806 -52.095  1.00  0.00     0.058 A 
HETATM   13  C   UNL     1     -39.992  51.422 -53.435  1.00  0.00     0.051 A 
HETATM   14  C   UNL     1     -40.353  52.392 -54.398  1.00  0.00     0.025 A 
BRANCH  13  15
HETATM   15  C   UNL     1     -39.725  49.997 -53.857  1.00  0.00     0.417 C 
HETATM   16  F   UNL     1     -38.552  49.832 -54.524  1.00  0.00    -0.166 F 
HETATM   17  F   UNL     1     -39.677  49.149 -52.792  1.00  0.00    -0.166 F 
HETATM   18  F   UNL     1     -40.700  49.515 -54.675  1.00  0.00    -0.166 F 
ENDBRANCH  13  15
ENDBRANCH   7   8
ENDBRANCH   3   7
BRANCH   1  19
HETATM   19  C   UNL     1     -44.608  56.932 -54.176  1.00  0.00     0.129 C 
HETATM   20  N   UNL     1     -44.269  57.615 -53.028  1.00  0.00    -0.250 N 
HETATM   21  N   UNL     1     -44.699  58.897 -53.052  1.00  0.00    -0.183 NA
HETATM   22  C   UNL     1     -45.186  59.059 -54.282  1.00  0.00     0.142 C 
HETATM   23  C   UNL     1     -45.130  57.875 -55.035  1.00  0.00     0.071 C 
BRANCH  20  24
HETATM   24  C   UNL     1     -43.350  57.212 -51.966  1.00  0.00     0.104 C 
HETATM   25  C   UNL     1     -44.047  56.348 -50.915  1.00  0.00     0.034 C 
HETATM   26  C   UNL     1     -42.682  58.431 -51.326  1.00  0.00     0.034 C 
ENDBRANCH  20  24
ENDBRANCH   1  19
TORSDOF 5
ENDMDL
MODEL 2
REMARK VINA RESULT:      -8.3      0.748      2.831
REMARK  5 active torsions:
REMARK  status: ('A' for Active; 'I' for Inactive)
REMARK    1  A    between atoms: C_2  and  N_3 
REMARK    2  A    between atoms: C_7  and  N_8 
REMARK       I    between atoms: N_8  and  C_9 
REMARK       I    between atoms: C_9  and  N_10 
REMARK    3  A    between atoms: N_10  and  C_11 
REMARK    4  A    between atoms: C_11  and  C_12 
REMARK    5  A    between atoms: C_17  and  C_18 
ROOT
HETATM    1  N   UNL     1     -44.418  55.405 -54.580  1.00  0.00    -0.293 N 
HETATM    2  C   UNL     1     -43.302  54.749 -55.138  1.00  0.00     0.322 C 
HETATM    3  N   UNL     1     -42.083  55.274 -54.818  1.00  0.00    -0.339 N 
HETATM    4  O   UNL     1     -43.523  53.719 -55.747  1.00  0.00    -0.247 OA
HETATM    5  H   UNL     1     -45.237  54.814 -54.494  1.00  0.00     0.172 HD
HETATM    6  H   UNL     1     -42.058  55.879 -54.013  1.00  0.00     0.164 HD
ENDROOT
BRANCH   3   7
HETATM    7  C   UNL     1     -40.936  54.430 -55.079  1.00  0.00     0.163 C 
BRANCH   7   8
HETATM    8  C   UNL     1     -40.462  53.561 -53.942  1.00  0.00    -0.037 A 
HETATM    9  C   UNL     1     -40.025  52.261 -54.253  1.00  0.00     0.051 A 
HETATM   10  C   UNL     1     -39.673  51.367 -53.247  1.00  0.00     0.117 A 
HETATM   11  F   UNL     1     -39.276  50.131 -53.576  1.00  0.00    -0.206 F 
HETATM   12  C   UNL     1     -39.743  51.730 -51.912  1.00  0.00     0.058 A 
HETATM   13  C   UNL     1     -40.178  53.016 -51.565  1.00  0.00     0.051 A 
HETATM   14  C   UNL     1     -40.547  53.920 -52.587  1.00  0.00     0.025 A 
BRANCH  13  15
HETATM   15  C   UNL     1     -40.289  53.422 -50.115  1.00  0.00     0.417 C 
HETATM   16  F   UNL     1     -41.382  54.181 -49.839  1.00  0.00    -0.166 F 
HETATM   17  F   UNL     1     -40.356  52.345 -49.285  1.00  0.00    -0.166 F 
HETATM   18  F   UNL     1     -39.210  54.144 -49.703  1.00  0.00    -0.166 F 
ENDBRANCH  13  15
ENDBRANCH   7   8
ENDBRANCH   3   7
BRANCH   1  19
HETATM   19  C   UNL     1     -44.531  56.716 -54.162  1.00  0.00     0.129 C 
HETATM   20  N   UNL     1     -44.154  57.345 -52.995  1.00  0.00    -0.250 N 
HETATM   21  N   UNL     1     -44.506  58.650 -52.984  1.00  0.00    -0.183 NA
HETATM   22  C   UNL     1     -44.980  58.876 -54.209  1.00  0.00     0.142 C 
HETATM   23  C   UNL     1     -44.993  57.712 -54.994  1.00  0.00     0.071 C 
BRANCH  20  24
HETATM   24  C   UNL     1     -43.263  56.858 -51.945  1.00  0.00     0.104 C 
HETATM   25  C   UNL     1     -44.038  56.161 -50.826  1.00  0.00     0.034 C 
HETATM   26  C   UNL     1     -42.393  57.990 -51.393  1.00  0.00     0.034 C 
ENDBRANCH  20  24
ENDBRANCH   1  19
TORSDOF 5
ENDMDL
MODEL 3
REMARK VINA RESULT:      -8.1      1.573      2.248
REMARK  5 active torsions:
REMARK  status: ('A' for Active; 'I' for Inactive)
REMARK    1  A    between atoms: C_2  and  N_3 
REMARK    2  A    between atoms: C_7  and  N_8 
REMARK       I    between atoms: N_8  and  C_9 
REMARK       I    between atoms: C_9  and  N_10 
REMARK    3  A    between atoms: N_10  and  C_11 
REMARK    4  A    between atoms: C_11  and  C_12 
REMARK    5  A    between atoms: C_17  and  C_18 
ROOT
HETATM    1  N   UNL     1     -42.602  58.211 -54.476  1.00  0.00    -0.293 N 
HETATM    2  C   UNL     1     -42.125  57.013 -55.046  1.00  0.00     0.322 C 
HETATM    3  N   UNL     1     -41.815  56.018 -54.164  1.00  0.00    -0.339 N 
HETATM    4  O   UNL     1     -42.148  56.940 -56.260  1.00  0.00    -0.247 OA
HETATM    5  H   UNL     1     -43.174  58.763 -55.106  1.00  0.00     0.172 HD
HETATM    6  H   UNL     1     -42.207  56.106 -53.240  1.00  0.00     0.164 HD
ENDROOT
BRANCH   3   7
HETATM    7  C   UNL     1     -41.667  54.692 -54.725  1.00  0.00     0.163 C 
BRANCH   7   8
HETATM    8  C   UNL     1     -41.054  53.643 -53.831  1.00  0.00    -0.037 A 
HETATM    9  C   UNL     1     -40.626  54.044 -52.554  1.00  0.00     0.051 A 
HETATM   10  C   UNL     1     -39.958  53.159 -51.715  1.00  0.00     0.117 A 
HETATM   11  F   UNL     1     -39.548  53.576 -50.510  1.00  0.00    -0.206 F 
HETATM   12  C   UNL     1     -39.693  51.858 -52.113  1.00  0.00     0.058 A 
HETATM   13  C   UNL     1     -40.103  51.425 -53.381  1.00  0.00     0.051 A 
HETATM   14  C   UNL     1     -40.772  52.328 -54.238  1.00  0.00     0.025 A 
BRANCH  13  15
HETATM   15  C   UNL     1     -39.801  50.020 -53.846  1.00  0.00     0.417 C 
HETATM   16  F   UNL     1     -39.633  49.130 -52.832  1.00  0.00    -0.166 F 
HETATM   17  F   UNL     1     -40.791  49.517 -54.633  1.00  0.00    -0.166 F 
HETATM   18  F   UNL     1     -38.665  49.964 -54.594  1.00  0.00    -0.166 F 
ENDBRANCH  13  15
ENDBRANCH   7   8
ENDBRANCH   3   7
BRANCH   1  19
HETATM   19  C   UNL     1     -42.381  58.715 -53.210  1.00  0.00     0.129 C 
HETATM   20  N   UNL     1     -43.139  58.677 -52.060  1.00  0.00    -0.250 N 
HETATM   21  N   UNL     1     -42.556  59.352 -51.043  1.00  0.00    -0.183 NA
HETATM   22  C   UNL     1     -41.359  59.694 -51.517  1.00  0.00     0.142 C 
HETATM   23  C   UNL     1     -41.185  59.299 -52.853  1.00  0.00     0.071 C 
BRANCH  20  24
HETATM   24  C   UNL     1     -44.302  57.845 -51.763  1.00  0.00     0.104 C 
HETATM   25  C   UNL     1     -45.324  58.589 -50.902  1.00  0.00     0.034 C 
HETATM   26  C   UNL     1     -43.882  56.527 -51.107  1.00  0.00     0.034 C 
ENDBRANCH  20  24
ENDBRANCH   1  19
TORSDOF 5
ENDMDL
MODEL 4
REMARK VINA RESULT:      -7.9      1.118      2.139
REMARK  5 active torsions:
REMARK  status: ('A' for Active; 'I' for Inactive)
REMARK    1  A    between atoms: C_2  and  N_3 
REMARK    2  A    between atoms: C_7  and  N_8 
REMARK       I    between atoms: N_8  and  C_9 
REMARK       I    between atoms: C_9  and  N_10 
REMARK    3  A    between atoms: N_10  and  C_11 
REMARK    4  A    between atoms: C_11  and  C_12 
REMARK    5  A    between atoms: C_17  and  C_18 
ROOT
HETATM    1  N   UNL     1     -44.265  56.213 -53.446  1.00  0.00    -0.293 N 
HETATM    2  C   UNL     1     -43.252  55.585 -54.199  1.00  0.00     0.322 C 
HETATM    3  N   UNL     1     -41.971  55.916 -53.864  1.00  0.00    -0.339 N 
HETATM    4  O   UNL     1     -43.610  54.728 -54.985  1.00  0.00    -0.247 OA
HETATM    5  H   UNL     1     -45.137  55.697 -53.424  1.00  0.00     0.172 HD
HETATM    6  H   UNL     1     -41.844  56.338 -52.958  1.00  0.00     0.164 HD
ENDROOT
BRANCH   3   7
HETATM    7  C   UNL     1     -40.934  55.040 -54.366  1.00  0.00     0.163 C 
BRANCH   7   8
HETATM    8  C   UNL     1     -40.614  53.823 -53.535  1.00  0.00    -0.037 A 
HETATM    9  C   UNL     1     -40.378  54.015 -52.162  1.00  0.00     0.051 A 
HETATM   10  C   UNL     1     -39.974  52.957 -51.354  1.00  0.00     0.117 A 
HETATM   11  F   UNL     1     -39.742  53.176 -50.053  1.00  0.00    -0.206 F 
HETATM   12  C   UNL     1     -39.793  51.686 -51.876  1.00  0.00     0.058 A 
HETATM   13  C   UNL     1     -40.017  51.460 -53.241  1.00  0.00     0.051 A 
HETATM   14  C   UNL     1     -40.414  52.537 -54.065  1.00  0.00     0.025 A 
BRANCH  13  15
HETATM   15  C   UNL     1     -39.798  50.089 -53.836  1.00  0.00     0.417 C 
HETATM   16  F   UNL     1     -40.841  49.642 -54.584  1.00  0.00    -0.166 F 
HETATM   17  F   UNL     1     -38.706  50.053 -54.649  1.00  0.00    -0.166 F 
HETATM   18  F   UNL     1     -39.582  49.146 -52.879  1.00  0.00    -0.166 F 
ENDBRANCH  13  15
ENDBRANCH   7   8
ENDBRANCH   3   7
BRANCH   1  19
HETATM   19  C   UNL     1     -44.219  57.415 -52.768  1.00  0.00     0.129 C 
HETATM   20  N   UNL     1     -43.865  58.685 -53.170  1.00  0.00    -0.250 N 
HETATM   21  N   UNL     1     -43.916  59.574 -52.153  1.00  0.00    -0.183 NA
HETATM   22  C   UNL     1     -44.443  58.887 -51.140  1.00  0.00     0.142 C 
HETATM   23  C   UNL     1     -44.677  57.544 -51.475  1.00  0.00     0.071 C 
BRANCH  20  24
HETATM   24  C   UNL     1     -43.688  59.194 -54.528  1.00  0.00     0.104 C 
HETATM   25  C   UNL     1     -42.237  59.594 -54.796  1.00  0.00     0.034 C 
HETATM   26  C   UNL     1     -44.642  60.358 -54.807  1.00  0.00     0.034 C 
ENDBRANCH  20  24
ENDBRANCH   1  19
TORSDOF 5
ENDMDL
MODEL 5
REMARK VINA RESULT:      -7.8      2.507      3.389
REMARK  5 active torsions:
REMARK  status: ('A' for Active; 'I' for Inactive)
REMARK    1  A    between atoms: C_2  and  N_3 
REMARK    2  A    between atoms: C_7  and  N_8 
REMARK       I    between atoms: N_8  and  C_9 
REMARK       I    between atoms: C_9  and  N_10 
REMARK    3  A    between atoms: N_10  and  C_11 
REMARK    4  A    between atoms: C_11  and  C_12 
REMARK    5  A    between atoms: C_17  and  C_18 
ROOT
HETATM    1  N   UNL     1     -43.068  57.314 -51.526  1.00  0.00    -0.293 N 
HETATM    2  C   UNL     1     -42.668  56.002 -51.198  1.00  0.00     0.322 C 
HETATM    3  N   UNL     1     -41.334  55.739 -51.324  1.00  0.00    -0.339 N 
HETATM    4  O   UNL     1     -43.521  55.275 -50.725  1.00  0.00    -0.247 OA
HETATM    5  H   UNL     1     -43.929  57.603 -51.075  1.00  0.00     0.172 HD
HETATM    6  H   UNL     1     -40.724  56.541 -51.358  1.00  0.00     0.164 HD
ENDROOT
BRANCH   3   7
HETATM    7  C   UNL     1     -40.856  54.539 -50.670  1.00  0.00     0.163 C 
BRANCH   7   8
HETATM    8  C   UNL     1     -40.398  53.416 -51.566  1.00  0.00    -0.037 A 
HETATM    9  C   UNL     1     -40.380  53.653 -52.952  1.00  0.00     0.051 A 
HETATM   10  C   UNL     1     -40.070  52.634 -53.846  1.00  0.00     0.117 A 
HETATM   11  F   UNL     1     -40.078  52.888 -55.161  1.00  0.00    -0.206 F 
HETATM   12  C   UNL     1     -39.773  51.356 -53.398  1.00  0.00     0.058 A 
HETATM   13  C   UNL     1     -39.784  51.084 -52.024  1.00  0.00     0.051 A 
HETATM   14  C   UNL     1     -40.111  52.116 -51.116  1.00  0.00     0.025 A 
BRANCH  13  15
HETATM   15  C   UNL     1     -39.491  49.691 -51.516  1.00  0.00     0.417 C 
HETATM   16  F   UNL     1     -40.488  49.160 -50.761  1.00  0.00    -0.166 F 
HETATM   17  F   UNL     1     -39.275  48.812 -52.533  1.00  0.00    -0.166 F 
HETATM   18  F   UNL     1     -38.368  49.655 -50.747  1.00  0.00    -0.166 F 
ENDBRANCH  13  15
ENDBRANCH   7   8
ENDBRANCH   3   7
BRANCH   1  19
HETATM   19  C   UNL     1     -42.456  58.219 -52.370  1.00  0.00     0.129 C 
HETATM   20  N   UNL     1     -41.948  59.482 -52.152  1.00  0.00    -0.250 N 
HETATM   21  N   UNL     1     -41.475  60.044 -53.287  1.00  0.00    -0.183 NA
HETATM   22  C   UNL     1     -41.557  59.072 -54.196  1.00  0.00     0.142 C 
HETATM   23  C   UNL     1     -42.135  57.904 -53.672  1.00  0.00     0.071 C 
BRANCH  20  24
HETATM   24  C   UNL     1     -41.659  60.140 -50.880  1.00  0.00     0.104 C 
HETATM   25  C   UNL     1     -40.752  59.284 -49.995  1.00  0.00     0.034 C 
HETATM   26  C   UNL     1     -42.951  60.515 -50.150  1.00  0.00     0.034 C 
ENDBRANCH  20  24
ENDBRANCH   1  19
TORSDOF 5
ENDMDL
MODEL 6
REMARK VINA RESULT:      -7.7      2.197      3.788
REMARK  5 active torsions:
REMARK  status: ('A' for Active; 'I' for Inactive)
REMARK    1  A    between atoms: C_2  and  N_3 
REMARK    2  A    between atoms: C_7  and  N_8 
REMARK       I    between atoms: N_8  and  C_9 
REMARK       I    between atoms: C_9  and  N_10 
REMARK    3  A    between atoms: N_10  and  C_11 
REMARK    4  A    between atoms: C_11  and  C_12 
REMARK    5  A    between atoms: C_17  and  C_18 
ROOT
HETATM    1  N   UNL     1     -43.288  56.176 -55.674  1.00  0.00    -0.293 N 
HETATM    2  C   UNL     1     -42.634  54.927 -55.702  1.00  0.00     0.322 C 
HETATM    3  N   UNL     1     -41.280  54.962 -55.532  1.00  0.00    -0.339 N 
HETATM    4  O   UNL     1     -43.344  53.941 -55.755  1.00  0.00    -0.247 OA
HETATM    5  H   UNL     1     -44.265  56.119 -55.412  1.00  0.00     0.172 HD
HETATM    6  H   UNL     1     -40.904  55.804 -55.126  1.00  0.00     0.164 HD
ENDROOT
BRANCH   3   7
HETATM    7  C   UNL     1     -40.645  53.702 -55.208  1.00  0.00     0.163 C 
BRANCH   7   8
HETATM    8  C   UNL     1     -40.387  53.429 -53.747  1.00  0.00    -0.037 A 
HETATM    9  C   UNL     1     -39.875  52.166 -53.401  1.00  0.00     0.051 A 
HETATM   10  C   UNL     1     -39.711  51.805 -52.067  1.00  0.00     0.117 A 
HETATM   11  F   UNL     1     -39.237  50.588 -51.770  1.00  0.00    -0.206 F 
HETATM   12  C   UNL     1     -40.047  52.677 -51.044  1.00  0.00     0.058 A 
HETATM   13  C   UNL     1     -40.562  53.942 -51.353  1.00  0.00     0.051 A 
HETATM   14  C   UNL     1     -40.740  54.305 -52.707  1.00  0.00     0.025 A 
BRANCH  13  15
HETATM   15  C   UNL     1     -40.961  54.897 -50.253  1.00  0.00     0.417 C 
HETATM   16  F   UNL     1     -42.241  54.738 -49.824  1.00  0.00    -0.166 F 
HETATM   17  F   UNL     1     -40.173  54.765 -49.150  1.00  0.00    -0.166 F 
HETATM   18  F   UNL     1     -40.847  56.198 -50.639  1.00  0.00    -0.166 F 
ENDBRANCH  13  15
ENDBRANCH   7   8
ENDBRANCH   3   7
BRANCH   1  19
HETATM   19  C   UNL     1     -42.778  57.426 -55.963  1.00  0.00     0.129 C 
HETATM   20  N   UNL     1     -42.347  58.454 -55.152  1.00  0.00    -0.250 N 
HETATM   21  N   UNL     1     -41.967  59.539 -55.864  1.00  0.00    -0.183 NA
HETATM   22  C   UNL     1     -42.024  59.138 -57.133  1.00  0.00     0.142 C 
HETATM   23  C   UNL     1     -42.497  57.821 -57.252  1.00  0.00     0.071 C 
BRANCH  20  24
HETATM   24  C   UNL     1     -42.046  58.421 -53.723  1.00  0.00     0.104 C 
HETATM   25  C   UNL     1     -42.256  59.788 -53.071  1.00  0.00     0.034 C 
HETATM   26  C   UNL     1     -40.628  57.901 -53.472  1.00  0.00     0.034 C 
ENDBRANCH  20  24
ENDBRANCH   1  19
TORSDOF 5
ENDMDL
MODEL 7
REMARK VINA RESULT:      -7.7      3.250      5.286
REMARK  5 active torsions:
REMARK  status: ('A' for Active; 'I' for Inactive)
REMARK    1  A    between atoms: C_2  and  N_3 
REMARK    2  A    between atoms: C_7  and  N_8 
REMARK       I    between atoms: N_8  and  C_9 
REMARK       I    between atoms: C_9  and  N_10 
REMARK    3  A    between atoms: N_10  and  C_11 
REMARK    4  A    between atoms: C_11  and  C_12 
REMARK    5  A    between atoms: C_17  and  C_18 
ROOT
HETATM    1  N   UNL     1     -43.939  56.993 -57.116  1.00  0.00    -0.293 N 
HETATM    2  C   UNL     1     -43.457  56.665 -55.831  1.00  0.00     0.322 C 
HETATM    3  N   UNL     1     -42.100  56.669 -55.688  1.00  0.00    -0.339 N 
HETATM    4  O   UNL     1     -44.290  56.530 -54.955  1.00  0.00    -0.247 OA
HETATM    5  H   UNL     1     -44.884  57.361 -57.115  1.00  0.00     0.172 HD
HETATM    6  H   UNL     1     -41.580  57.165 -56.395  1.00  0.00     0.164 HD
ENDROOT
BRANCH   3   7
HETATM    7  C   UNL     1     -41.602  56.686 -54.329  1.00  0.00     0.163 C 
BRANCH   7   8
HETATM    8  C   UNL     1     -41.088  55.379 -53.779  1.00  0.00    -0.037 A 
HETATM    9  C   UNL     1     -40.811  54.350 -54.697  1.00  0.00     0.051 A 
HETATM   10  C   UNL     1     -40.435  53.085 -54.257  1.00  0.00     0.117 A 
HETATM   11  F   UNL     1     -40.195  52.121 -55.155  1.00  0.00    -0.206 F 
HETATM   12  C   UNL     1     -40.323  52.802 -52.905  1.00  0.00     0.058 A 
HETATM   13  C   UNL     1     -40.593  53.804 -51.963  1.00  0.00     0.051 A 
HETATM   14  C   UNL     1     -40.987  55.085 -52.410  1.00  0.00     0.025 A 
BRANCH  13  15
HETATM   15  C   UNL     1     -40.504  53.509 -50.484  1.00  0.00     0.417 C 
HETATM   16  F   UNL     1     -41.602  53.893 -49.780  1.00  0.00    -0.166 F 
HETATM   17  F   UNL     1     -40.341  52.180 -50.236  1.00  0.00    -0.166 F 
HETATM   18  F   UNL     1     -39.442  54.130 -49.903  1.00  0.00    -0.166 F 
ENDBRANCH  13  15
ENDBRANCH   7   8
ENDBRANCH   3   7
BRANCH   1  19
HETATM   19  C   UNL     1     -43.307  56.865 -58.335  1.00  0.00     0.129 C 
HETATM   20  N   UNL     1     -43.524  56.016 -59.400  1.00  0.00    -0.250 N 
HETATM   21  N   UNL     1     -42.624  56.202 -60.391  1.00  0.00    -0.183 NA
HETATM   22  C   UNL     1     -41.925  57.270 -60.008  1.00  0.00     0.142 C 
HETATM   23  C   UNL     1     -42.326  57.741 -58.747  1.00  0.00     0.071 C 
BRANCH  20  24
HETATM   24  C   UNL     1     -44.682  55.166 -59.665  1.00  0.00     0.104 C 
HETATM   25  C   UNL     1     -44.428  53.718 -59.245  1.00  0.00     0.034 C 
HETATM   26  C   UNL     1     -45.101  55.250 -61.135  1.00  0.00     0.034 C 
ENDBRANCH  20  24
ENDBRANCH   1  19
TORSDOF 5
ENDMDL
MODEL 8
REMARK VINA RESULT:      -7.6      2.598      3.812
REMARK  5 active torsions:
REMARK  status: ('A' for Active; 'I' for Inactive)
REMARK    1  A    between atoms: C_2  and  N_3 
REMARK    2  A    between atoms: C_7  and  N_8 
REMARK       I    between atoms: N_8  and  C_9 
REMARK       I    between atoms: C_9  and  N_10 
REMARK    3  A    between atoms: N_10  and  C_11 
REMARK    4  A    between atoms: C_11  and  C_12 
REMARK    5  A    between atoms: C_17  and  C_18 
ROOT
HETATM    1  N   UNL     1     -43.776  58.268 -55.098  1.00  0.00    -0.293 N 
HETATM    2  C   UNL     1     -43.435  57.552 -53.932  1.00  0.00     0.322 C 
HETATM    3  N   UNL     1     -42.098  57.412 -53.691  1.00  0.00    -0.339 N 
HETATM    4  O   UNL     1     -44.353  57.234 -53.199  1.00  0.00    -0.247 OA
HETATM    5  H   UNL     1     -44.697  58.691 -55.062  1.00  0.00     0.172 HD
HETATM    6  H   UNL     1     -41.490  58.049 -54.180  1.00  0.00     0.164 HD
ENDROOT
BRANCH   3   7
HETATM    7  C   UNL     1     -41.732  57.002 -52.352  1.00  0.00     0.163 C 
BRANCH   7   8
HETATM    8  C   UNL     1     -41.314  55.563 -52.174  1.00  0.00    -0.037 A 
HETATM    9  C   UNL     1     -41.041  55.120 -50.868  1.00  0.00     0.051 A 
HETATM   10  C   UNL     1     -40.550  53.839 -50.637  1.00  0.00     0.117 A 
HETATM   11  F   UNL     1     -40.284  53.453 -49.383  1.00  0.00    -0.206 F 
HETATM   12  C   UNL     1     -40.316  52.964 -51.686  1.00  0.00     0.058 A 
HETATM   13  C   UNL     1     -40.575  53.374 -53.001  1.00  0.00     0.051 A 
HETATM   14  C   UNL     1     -41.062  54.679 -53.236  1.00  0.00     0.025 A 
BRANCH  13  15
HETATM   15  C   UNL     1     -40.300  52.445 -54.161  1.00  0.00     0.417 C 
HETATM   16  F   UNL     1     -39.249  51.607 -53.956  1.00  0.00    -0.166 F 
HETATM   17  F   UNL     1     -41.369  51.651 -54.444  1.00  0.00    -0.166 F 
HETATM   18  F   UNL     1     -40.026  53.127 -55.307  1.00  0.00    -0.166 F 
ENDBRANCH  13  15
ENDBRANCH   7   8
ENDBRANCH   3   7
BRANCH   1  19
HETATM   19  C   UNL     1     -43.037  58.447 -56.250  1.00  0.00     0.129 C 
HETATM   20  N   UNL     1     -42.685  57.579 -57.261  1.00  0.00    -0.250 N 
HETATM   21  N   UNL     1     -41.898  58.169 -58.188  1.00  0.00    -0.183 NA
HETATM   22  C   UNL     1     -41.874  59.453 -57.833  1.00  0.00     0.142 C 
HETATM   23  C   UNL     1     -42.589  59.688 -56.647  1.00  0.00     0.071 C 
BRANCH  20  24
HETATM   24  C   UNL     1     -43.226  56.253 -57.552  1.00  0.00     0.104 C 
HETATM   25  C   UNL     1     -42.648  55.190 -56.618  1.00  0.00     0.034 C 
HETATM   26  C   UNL     1     -43.004  55.880 -59.020  1.00  0.00     0.034 C 
ENDBRANCH  20  24
ENDBRANCH   1  19
TORSDOF 5
ENDMDL
MODEL 9
REMARK VINA RESULT:      -7.6      2.132      3.444
REMARK  5 active torsions:
REMARK  status: ('A' for Active; 'I' for Inactive)
REMARK    1  A    between atoms: C_2  and  N_3 
REMARK    2  A    between atoms: C_7  and  N_8 
REMARK       I    between atoms: N_8  and  C_9 
REMARK       I    between atoms: C_9  and  N_10 
REMARK    3  A    between atoms: N_10  and  C_11 
REMARK    4  A    between atoms: C_11  and  C_12 
REMARK    5  A    between atoms: C_17  and  C_18 
ROOT
HETATM    1  N   UNL     1     -43.398  57.269 -51.383  1.00  0.00    -0.293 N 
HETATM    2  C   UNL     1     -42.918  55.983 -51.060  1.00  0.00     0.322 C 
HETATM    3  N   UNL     1     -41.584  55.779 -51.266  1.00  0.00    -0.339 N 
HETATM    4  O   UNL     1     -43.705  55.226 -50.525  1.00  0.00    -0.247 OA
HETATM    5  H   UNL     1     -44.243  57.526 -50.884  1.00  0.00     0.172 HD
HETATM    6  H   UNL     1     -41.016  56.607 -51.349  1.00  0.00     0.164 HD
ENDROOT
BRANCH   3   7
HETATM    7  C   UNL     1     -41.011  54.614 -50.625  1.00  0.00     0.163 C 
BRANCH   7   8
HETATM    8  C   UNL     1     -40.518  53.515 -51.533  1.00  0.00    -0.037 A 
HETATM    9  C   UNL     1     -40.481  53.778 -52.914  1.00  0.00     0.051 A 
HETATM   10  C   UNL     1     -40.139  52.780 -53.820  1.00  0.00     0.117 A 
HETATM   11  F   UNL     1     -40.130  53.057 -55.130  1.00  0.00    -0.206 F 
HETATM   12  C   UNL     1     -39.827  51.500 -53.390  1.00  0.00     0.058 A 
HETATM   13  C   UNL     1     -39.856  51.203 -52.021  1.00  0.00     0.051 A 
HETATM   14  C   UNL     1     -40.215  52.213 -51.101  1.00  0.00     0.025 A 
BRANCH  13  15
HETATM   15  C   UNL     1     -39.546  49.807 -51.534  1.00  0.00     0.417 C 
HETATM   16  F   UNL     1     -40.494  49.290 -50.709  1.00  0.00    -0.166 F 
HETATM   17  F   UNL     1     -39.414  48.924 -52.561  1.00  0.00    -0.166 F 
HETATM   18  F   UNL     1     -38.372  49.756 -50.845  1.00  0.00    -0.166 F 
ENDBRANCH  13  15
ENDBRANCH   7   8
ENDBRANCH   3   7
BRANCH   1  19
HETATM   19  C   UNL     1     -42.883  58.186 -52.276  1.00  0.00     0.129 C 
HETATM   20  N   UNL     1     -42.640  58.114 -53.631  1.00  0.00    -0.250 N 
HETATM   21  N   UNL     1     -42.072  59.244 -54.108  1.00  0.00    -0.183 NA
HETATM   22  C   UNL     1     -42.089  60.084 -53.074  1.00  0.00     0.142 C 
HETATM   23  C   UNL     1     -42.608  59.487 -51.914  1.00  0.00     0.071 C 
BRANCH  20  24
HETATM   24  C   UNL     1     -43.116  57.120 -54.590  1.00  0.00     0.104 C 
HETATM   25  C   UNL     1     -41.959  56.355 -55.232  1.00  0.00     0.034 C 
HETATM   26  C   UNL     1     -44.010  57.765 -55.653  1.00  0.00     0.034 C 
ENDBRANCH  20  24
ENDBRANCH   1  19
TORSDOF 5
ENDMDL
MODEL 10
REMARK VINA RESULT:      -7.5      3.276      4.709
REMARK  5 active torsions:
REMARK  status: ('A' for Active; 'I' for Inactive)
REMARK    1  A    between atoms: C_2  and  N_3 
REMARK    2  A    between atoms: C_7  and  N_8 
REMARK       I    between atoms: N_8  and  C_9 
REMARK       I    between atoms: C_9  and  N_10 
REMARK    3  A    between atoms: N_10  and  C_11 
REMARK    4  A    between atoms: C_11  and  C_12 
REMARK    5  A    between atoms: C_17  and  C_18 
ROOT
HETATM    1  N   UNL     1     -43.959  56.888 -57.039  1.00  0.00    -0.293 N 
HETATM    2  C   UNL     1     -43.422  56.617 -55.764  1.00  0.00     0.322 C 
HETATM    3  N   UNL     1     -42.068  56.755 -55.648  1.00  0.00    -0.339 N 
HETATM    4  O   UNL     1     -44.219  56.403 -54.871  1.00  0.00    -0.247 OA
HETATM    5  H   UNL     1     -44.935  57.160 -57.021  1.00  0.00     0.172 HD
HETATM    6  H   UNL     1     -41.614  57.297 -56.366  1.00  0.00     0.164 HD
ENDROOT
BRANCH   3   7
HETATM    7  C   UNL     1     -41.548  56.829 -54.299  1.00  0.00     0.163 C 
BRANCH   7   8
HETATM    8  C   UNL     1     -41.374  55.521 -53.568  1.00  0.00    -0.037 A 
HETATM    9  C   UNL     1     -41.622  55.511 -52.184  1.00  0.00     0.051 A 
HETATM   10  C   UNL     1     -41.382  54.369 -51.425  1.00  0.00     0.117 A 
HETATM   11  F   UNL     1     -41.611  54.397 -50.106  1.00  0.00    -0.206 F 
HETATM   12  C   UNL     1     -40.891  53.213 -52.010  1.00  0.00     0.058 A 
HETATM   13  C   UNL     1     -40.631  53.189 -53.387  1.00  0.00     0.051 A 
HETATM   14  C   UNL     1     -40.864  54.352 -54.155  1.00  0.00     0.025 A 
BRANCH  13  15
HETATM   15  C   UNL     1     -40.070  51.947 -54.039  1.00  0.00     0.417 C 
HETATM   16  F   UNL     1     -40.921  50.887 -54.025  1.00  0.00    -0.166 F 
HETATM   17  F   UNL     1     -39.747  52.157 -55.345  1.00  0.00    -0.166 F 
HETATM   18  F   UNL     1     -38.926  51.526 -53.434  1.00  0.00    -0.166 F 
ENDBRANCH  13  15
ENDBRANCH   7   8
ENDBRANCH   3   7
BRANCH   1  19
HETATM   19  C   UNL     1     -43.340  56.817 -58.271  1.00  0.00     0.129 C 
HETATM   20  N   UNL     1     -43.562  56.010 -59.367  1.00  0.00    -0.250 N 
HETATM   21  N   UNL     1     -42.677  56.246 -60.361  1.00  0.00    -0.183 NA
HETATM   22  C   UNL     1     -41.984  57.305 -59.942  1.00  0.00     0.142 C 
HETATM   23  C   UNL     1     -42.374  57.719 -58.658  1.00  0.00     0.071 C 
BRANCH  20  24
HETATM   24  C   UNL     1     -44.715  55.160 -59.653  1.00  0.00     0.104 C 
HETATM   25  C   UNL     1     -44.458  53.707 -59.250  1.00  0.00     0.034 C 
HETATM   26  C   UNL     1     -45.122  55.262 -61.125  1.00  0.00     0.034 C 
ENDBRANCH  20  24
ENDBRANCH   1  19
TORSDOF 5
ENDMDL
