MODEL 1
REMARK VINA RESULT:      -7.0      0.000      0.000
REMARK  4 active torsions:
REMARK  status: ('A' for Active; 'I' for Inactive)
REMARK    1  A    between atoms: O_2  and  C_3 
REMARK    2  A    between atoms: C_6  and  C_7 
REMARK    3  A    between atoms: C_12  and  N_13 
REMARK    4  A    between atoms: C_15  and  C_16 
ROOT
HETATM    1  C   UNL     1     -36.783  42.312 -55.612  1.00  0.00     0.135 C 
HETATM    2  N   UNL     1     -37.537  41.875 -54.440  1.00  0.00    -0.214 N 
HETATM    3  C   UNL     1     -37.061  40.870 -53.678  1.00  0.00     0.736 A 
HETATM    4  N   UNL     1     -35.747  40.495 -53.732  1.00  0.00    -0.074 N 
HETATM    5  N   UNL     1     -35.484  39.504 -52.862  1.00  0.00     0.037 NA
HETATM    6  C   UNL     1     -36.692  39.309 -52.337  1.00  0.00     0.753 A 
HETATM    7  N   UNL     1     -37.686  40.112 -52.816  1.00  0.00     0.131 NA
HETATM    8  C   UNL     1     -34.738  41.133 -54.567  1.00  0.00     0.164 C 
HETATM    9  C   UNL     1     -35.292  42.422 -55.215  1.00  0.00     0.063 C 
HETATM   10  H   UNL     1     -38.545  41.991 -54.483  1.00  0.00     0.178 HD
ENDROOT
BRANCH   1  11
HETATM   11  C   UNL     1     -37.081  41.484 -56.857  1.00  0.00    -0.035 A 
HETATM   12  C   UNL     1     -38.011  40.429 -56.864  1.00  0.00     0.012 A 
HETATM   13  C   UNL     1     -38.285  39.701 -58.030  1.00  0.00     0.037 A 
HETATM   14  C   UNL     1     -37.644  40.018 -59.223  1.00  0.00     0.068 A 
HETATM   15  C   UNL     1     -36.727  41.068 -59.236  1.00  0.00     0.037 A 
HETATM   16  C   UNL     1     -36.455  41.799 -58.074  1.00  0.00     0.012 A 
BRANCH  14  17
HETATM   17  O   UNL     1     -37.825  39.394 -60.426  1.00  0.00    -0.356 OA
HETATM   18  C   UNL     1     -36.650  39.044 -61.147  1.00  0.00     0.210 C 
ENDBRANCH  14  17
ENDBRANCH   1  11
BRANCH   8  19
HETATM   19  C   UNL     1     -34.093  40.204 -55.590  1.00  0.00    -0.031 A 
HETATM   20  C   UNL     1     -34.794  39.190 -56.260  1.00  0.00     0.028 A 
HETATM   21  C   UNL     1     -34.157  38.405 -57.223  1.00  0.00     0.011 A 
HETATM   22 BR   UNL     1     -35.132  37.064 -58.130  1.00  0.00    -0.051 Br
HETATM   23  C   UNL     1     -32.813  38.607 -57.528  1.00  0.00     0.019 A 
HETATM   24  C   UNL     1     -32.101  39.602 -56.866  1.00  0.00     0.002 A 
HETATM   25  C   UNL     1     -32.734  40.396 -55.909  1.00  0.00     0.009 A 
ENDBRANCH   8  19
BRANCH   6  26
HETATM   26  N   UNL     1     -37.001  38.387 -51.430  1.00  0.00    -0.229 N 
HETATM   27  H   UNL     1     -37.137  37.445 -51.772  1.00  0.00     0.174 HD
HETATM   28  H   UNL     1     -37.635  38.670 -50.696  1.00  0.00     0.174 HD
ENDBRANCH   6  26
TORSDOF 4
ENDMDL
MODEL 2
REMARK VINA RESULT:      -6.8     16.543     18.967
REMARK  4 active torsions:
REMARK  status: ('A' for Active; 'I' for Inactive)
REMARK    1  A    between atoms: O_2  and  C_3 
REMARK    2  A    between atoms: C_6  and  C_7 
REMARK    3  A    between atoms: C_12  and  N_13 
REMARK    4  A    between atoms: C_15  and  C_16 
ROOT
HETATM    1  C   UNL     1     -43.840  58.696 -53.847  1.00  0.00     0.135 C 
HETATM    2  N   UNL     1     -43.654  58.968 -55.269  1.00  0.00    -0.214 N 
HETATM    3  C   UNL     1     -43.346  57.957 -56.106  1.00  0.00     0.736 A 
HETATM    4  N   UNL     1     -43.561  56.652 -55.757  1.00  0.00    -0.074 N 
HETATM    5  N   UNL     1     -43.221  55.817 -56.754  1.00  0.00     0.037 NA
HETATM    6  C   UNL     1     -42.779  56.683 -57.664  1.00  0.00     0.753 A 
HETATM    7  N   UNL     1     -42.825  57.998 -57.304  1.00  0.00     0.131 NA
HETATM    8  C   UNL     1     -44.154  56.219 -54.499  1.00  0.00     0.164 C 
HETATM    9  C   UNL     1     -44.707  57.424 -53.706  1.00  0.00     0.063 C 
HETATM   10  H   UNL     1     -43.314  59.894 -55.512  1.00  0.00     0.178 HD
ENDROOT
BRANCH   1  11
HETATM   11  C   UNL     1     -42.533  58.700 -53.062  1.00  0.00    -0.035 A 
HETATM   12  C   UNL     1     -41.271  58.682 -53.684  1.00  0.00     0.012 A 
HETATM   13  C   UNL     1     -40.085  58.712 -52.939  1.00  0.00     0.037 A 
HETATM   14  C   UNL     1     -40.130  58.776 -51.550  1.00  0.00     0.068 A 
HETATM   15  C   UNL     1     -41.371  58.807 -50.917  1.00  0.00     0.037 A 
HETATM   16  C   UNL     1     -42.557  58.780 -51.660  1.00  0.00     0.012 A 
BRANCH  14  17
HETATM   17  O   UNL     1     -39.052  58.818 -50.710  1.00  0.00    -0.356 OA
HETATM   18  C   UNL     1     -38.762  60.072 -50.105  1.00  0.00     0.210 C 
ENDBRANCH  14  17
ENDBRANCH   1  11
BRANCH   8  19
HETATM   19  C   UNL     1     -43.245  55.337 -53.650  1.00  0.00    -0.031 A 
HETATM   20  C   UNL     1     -42.302  54.452 -54.195  1.00  0.00     0.028 A 
HETATM   21  C   UNL     1     -41.465  53.708 -53.362  1.00  0.00     0.011 A 
HETATM   22 BR   UNL     1     -40.184  52.543 -54.122  1.00  0.00    -0.051 Br
HETATM   23  C   UNL     1     -41.557  53.822 -51.977  1.00  0.00     0.019 A 
HETATM   24  C   UNL     1     -42.493  54.688 -51.420  1.00  0.00     0.002 A 
HETATM   25  C   UNL     1     -43.327  55.441 -52.247  1.00  0.00     0.009 A 
ENDBRANCH   8  19
BRANCH   6  26
HETATM   26  N   UNL     1     -42.274  56.366 -58.852  1.00  0.00    -0.229 N 
HETATM   27  H   UNL     1     -41.413  55.836 -58.850  1.00  0.00     0.174 HD
HETATM   28  H   UNL     1     -42.340  57.070 -59.574  1.00  0.00     0.174 HD
ENDBRANCH   6  26
TORSDOF 4
ENDMDL
MODEL 3
REMARK VINA RESULT:      -6.7     16.367     18.738
REMARK  4 active torsions:
REMARK  status: ('A' for Active; 'I' for Inactive)
REMARK    1  A    between atoms: O_2  and  C_3 
REMARK    2  A    between atoms: C_6  and  C_7 
REMARK    3  A    between atoms: C_12  and  N_13 
REMARK    4  A    between atoms: C_15  and  C_16 
ROOT
HETATM    1  C   UNL     1     -43.628  58.160 -53.144  1.00  0.00     0.135 C 
HETATM    2  N   UNL     1     -43.713  58.402 -54.581  1.00  0.00    -0.214 N 
HETATM    3  C   UNL     1     -43.376  57.421 -55.443  1.00  0.00     0.736 A 
HETATM    4  N   UNL     1     -43.315  56.113 -55.046  1.00  0.00    -0.074 N 
HETATM    5  N   UNL     1     -43.000  55.304 -56.073  1.00  0.00     0.037 NA
HETATM    6  C   UNL     1     -42.855  56.193 -57.053  1.00  0.00     0.753 A 
HETATM    7  N   UNL     1     -43.061  57.497 -56.709  1.00  0.00     0.131 NA
HETATM    8  C   UNL     1     -43.625  55.640 -53.703  1.00  0.00     0.164 C 
HETATM    9  C   UNL     1     -44.240  56.771 -52.849  1.00  0.00     0.063 C 
HETATM   10  H   UNL     1     -43.572  59.359 -54.888  1.00  0.00     0.178 HD
ENDROOT
BRANCH   1  11
HETATM   11  C   UNL     1     -42.233  58.406 -52.578  1.00  0.00    -0.035 A 
HETATM   12  C   UNL     1     -41.099  58.571 -53.394  1.00  0.00     0.012 A 
HETATM   13  C   UNL     1     -39.833  58.822 -52.848  1.00  0.00     0.037 A 
HETATM   14  C   UNL     1     -39.671  58.929 -51.471  1.00  0.00     0.068 A 
HETATM   15  C   UNL     1     -40.786  58.780 -50.647  1.00  0.00     0.037 A 
HETATM   16  C   UNL     1     -42.052  58.533 -51.191  1.00  0.00     0.012 A 
BRANCH  14  17
HETATM   17  O   UNL     1     -38.498  59.177 -50.814  1.00  0.00    -0.356 OA
HETATM   18  C   UNL     1     -38.521  60.205 -49.832  1.00  0.00     0.210 C 
ENDBRANCH  14  17
ENDBRANCH   1  11
BRANCH   8  19
HETATM   19  C   UNL     1     -42.462  54.951 -52.998  1.00  0.00    -0.031 A 
HETATM   20  C   UNL     1     -42.229  55.050 -51.618  1.00  0.00     0.028 A 
HETATM   21  C   UNL     1     -41.175  54.353 -51.025  1.00  0.00     0.011 A 
HETATM   22 BR   UNL     1     -40.901  54.482 -49.159  1.00  0.00    -0.051 Br
HETATM   23  C   UNL     1     -40.329  53.556 -51.793  1.00  0.00     0.019 A 
HETATM   24  C   UNL     1     -40.540  53.454 -53.165  1.00  0.00     0.002 A 
HETATM   25  C   UNL     1     -41.598  54.141 -53.762  1.00  0.00     0.009 A 
ENDBRANCH   8  19
BRANCH   6  26
HETATM   26  N   UNL     1     -42.495  55.914 -58.302  1.00  0.00    -0.229 N 
HETATM   27  H   UNL     1     -42.263  56.702 -58.892  1.00  0.00     0.174 HD
HETATM   28  H   UNL     1     -43.001  55.171 -58.763  1.00  0.00     0.174 HD
ENDBRANCH   6  26
TORSDOF 4
ENDMDL
MODEL 4
REMARK VINA RESULT:      -6.5     16.063     18.243
REMARK  4 active torsions:
REMARK  status: ('A' for Active; 'I' for Inactive)
REMARK    1  A    between atoms: O_2  and  C_3 
REMARK    2  A    between atoms: C_6  and  C_7 
REMARK    3  A    between atoms: C_12  and  N_13 
REMARK    4  A    between atoms: C_15  and  C_16 
ROOT
HETATM    1  C   UNL     1     -42.891  55.826 -50.698  1.00  0.00     0.135 C 
HETATM    2  N   UNL     1     -41.820  56.423 -49.908  1.00  0.00    -0.214 N 
HETATM    3  C   UNL     1     -41.182  57.519 -50.369  1.00  0.00     0.736 A 
HETATM    4  N   UNL     1     -41.729  58.303 -51.347  1.00  0.00    -0.074 N 
HETATM    5  N   UNL     1     -40.944  59.359 -51.623  1.00  0.00     0.037 NA
HETATM    6  C   UNL     1     -39.926  59.134 -50.796  1.00  0.00     0.753 A 
HETATM    7  N   UNL     1     -40.023  58.014 -50.023  1.00  0.00     0.131 NA
HETATM    8  C   UNL     1     -43.030  58.073 -51.962  1.00  0.00     0.164 C 
HETATM    9  C   UNL     1     -43.803  56.962 -51.216  1.00  0.00     0.063 C 
HETATM   10  H   UNL     1     -41.291  55.793 -49.313  1.00  0.00     0.178 HD
ENDROOT
BRANCH   1  11
HETATM   11  C   UNL     1     -42.382  54.849 -51.753  1.00  0.00    -0.035 A 
HETATM   12  C   UNL     1     -43.149  54.465 -52.868  1.00  0.00     0.012 A 
HETATM   13  C   UNL     1     -42.647  53.586 -53.837  1.00  0.00     0.037 A 
HETATM   14  C   UNL     1     -41.357  53.077 -53.721  1.00  0.00     0.068 A 
HETATM   15  C   UNL     1     -40.579  53.455 -52.628  1.00  0.00     0.037 A 
HETATM   16  C   UNL     1     -41.078  54.336 -51.662  1.00  0.00     0.012 A 
BRANCH  14  17
HETATM   17  O   UNL     1     -40.747  52.220 -54.595  1.00  0.00    -0.356 OA
HETATM   18  C   UNL     1     -39.883  51.242 -54.032  1.00  0.00     0.210 C 
ENDBRANCH  14  17
ENDBRANCH   1  11
BRANCH   8  19
HETATM   19  C   UNL     1     -42.977  57.829 -53.466  1.00  0.00    -0.031 A 
HETATM   20  C   UNL     1     -44.050  58.100 -54.329  1.00  0.00     0.028 A 
HETATM   21  C   UNL     1     -43.920  57.902 -55.704  1.00  0.00     0.011 A 
HETATM   22 BR   UNL     1     -45.373  58.301 -56.847  1.00  0.00    -0.051 Br
HETATM   23  C   UNL     1     -42.729  57.423 -56.244  1.00  0.00     0.019 A 
HETATM   24  C   UNL     1     -41.658  57.140 -55.402  1.00  0.00     0.002 A 
HETATM   25  C   UNL     1     -41.778  57.344 -54.026  1.00  0.00     0.009 A 
ENDBRANCH   8  19
BRANCH   6  26
HETATM   26  N   UNL     1     -38.830  59.880 -50.699  1.00  0.00    -0.229 N 
HETATM   27  H   UNL     1     -38.715  60.607 -51.393  1.00  0.00     0.174 HD
HETATM   28  H   UNL     1     -37.979  59.401 -50.438  1.00  0.00     0.174 HD
ENDBRANCH   6  26
TORSDOF 4
ENDMDL
MODEL 5
REMARK VINA RESULT:      -6.4     16.795     18.721
REMARK  4 active torsions:
REMARK  status: ('A' for Active; 'I' for Inactive)
REMARK    1  A    between atoms: O_2  and  C_3 
REMARK    2  A    between atoms: C_6  and  C_7 
REMARK    3  A    between atoms: C_12  and  N_13 
REMARK    4  A    between atoms: C_15  and  C_16 
ROOT
HETATM    1  C   UNL     1     -42.005  59.340 -54.796  1.00  0.00     0.135 C 
HETATM    2  N   UNL     1     -42.866  60.075 -53.875  1.00  0.00    -0.214 N 
HETATM    3  C   UNL     1     -43.416  59.436 -52.822  1.00  0.00     0.736 A 
HETATM    4  N   UNL     1     -42.917  58.244 -52.372  1.00  0.00    -0.074 N 
HETATM    5  N   UNL     1     -43.590  57.808 -51.293  1.00  0.00     0.037 NA
HETATM    6  C   UNL     1     -44.501  58.770 -51.164  1.00  0.00     0.753 A 
HETATM    7  N   UNL     1     -44.440  59.776 -52.084  1.00  0.00     0.131 NA
HETATM    8  C   UNL     1     -41.759  57.565 -52.937  1.00  0.00     0.164 C 
HETATM    9  C   UNL     1     -41.037  58.468 -53.963  1.00  0.00     0.063 C 
HETATM   10  H   UNL     1     -43.382  60.858 -54.265  1.00  0.00     0.178 HD
ENDROOT
BRANCH   1  11
HETATM   11  C   UNL     1     -42.781  58.614 -55.889  1.00  0.00    -0.035 A 
HETATM   12  C   UNL     1     -44.158  58.808 -56.102  1.00  0.00     0.012 A 
HETATM   13  C   UNL     1     -44.842  58.147 -57.131  1.00  0.00     0.037 A 
HETATM   14  C   UNL     1     -44.162  57.283 -57.983  1.00  0.00     0.068 A 
HETATM   15  C   UNL     1     -42.795  57.087 -57.794  1.00  0.00     0.037 A 
HETATM   16  C   UNL     1     -42.109  57.749 -56.769  1.00  0.00     0.012 A 
BRANCH  14  17
HETATM   17  O   UNL     1     -44.706  56.584 -59.025  1.00  0.00    -0.356 OA
HETATM   18  C   UNL     1     -43.980  55.451 -59.484  1.00  0.00     0.210 C 
ENDBRANCH  14  17
ENDBRANCH   1  11
BRANCH   8  19
HETATM   19  C   UNL     1     -42.057  56.179 -53.497  1.00  0.00    -0.031 A 
HETATM   20  C   UNL     1     -41.121  55.134 -53.506  1.00  0.00     0.028 A 
HETATM   21  C   UNL     1     -41.472  53.872 -53.988  1.00  0.00     0.011 A 
HETATM   22 BR   UNL     1     -40.199  52.474 -53.963  1.00  0.00    -0.051 Br
HETATM   23  C   UNL     1     -42.753  53.630 -54.479  1.00  0.00     0.019 A 
HETATM   24  C   UNL     1     -43.691  54.657 -54.486  1.00  0.00     0.002 A 
HETATM   25  C   UNL     1     -43.349  55.919 -53.997  1.00  0.00     0.009 A 
ENDBRANCH   8  19
BRANCH   6  26
HETATM   26  N   UNL     1     -45.466  58.803 -50.250  1.00  0.00    -0.229 N 
HETATM   27  H   UNL     1     -45.610  57.958 -49.714  1.00  0.00     0.174 HD
HETATM   28  H   UNL     1     -46.311  59.297 -50.503  1.00  0.00     0.174 HD
ENDBRANCH   6  26
TORSDOF 4
ENDMDL
MODEL 6
REMARK VINA RESULT:      -6.3     17.289     19.398
REMARK  4 active torsions:
REMARK  status: ('A' for Active; 'I' for Inactive)
REMARK    1  A    between atoms: O_2  and  C_3 
REMARK    2  A    between atoms: C_6  and  C_7 
REMARK    3  A    between atoms: C_12  and  N_13 
REMARK    4  A    between atoms: C_15  and  C_16 
ROOT
HETATM    1  C   UNL     1     -40.986  59.345 -53.352  1.00  0.00     0.135 C 
HETATM    2  N   UNL     1     -42.010  60.384 -53.416  1.00  0.00    -0.214 N 
HETATM    3  C   UNL     1     -43.032  60.368 -52.537  1.00  0.00     0.736 A 
HETATM    4  N   UNL     1     -42.960  59.654 -51.372  1.00  0.00    -0.074 N 
HETATM    5  N   UNL     1     -44.071  59.813 -50.631  1.00  0.00     0.037 NA
HETATM    6  C   UNL     1     -44.784  60.611 -51.422  1.00  0.00     0.753 A 
HETATM    7  N   UNL     1     -44.195  60.964 -52.601  1.00  0.00     0.131 NA
HETATM    8  C   UNL     1     -41.802  58.879 -50.947  1.00  0.00     0.164 C 
HETATM    9  C   UNL     1     -40.592  59.145 -51.870  1.00  0.00     0.063 C 
HETATM   10  H   UNL     1     -42.189  60.787 -54.331  1.00  0.00     0.178 HD
ENDROOT
BRANCH   1  11
HETATM   11  C   UNL     1     -41.369  58.081 -54.114  1.00  0.00    -0.035 A 
HETATM   12  C   UNL     1     -40.750  56.839 -53.887  1.00  0.00     0.012 A 
HETATM   13  C   UNL     1     -41.140  55.687 -54.584  1.00  0.00     0.037 A 
HETATM   14  C   UNL     1     -42.169  55.746 -55.518  1.00  0.00     0.068 A 
HETATM   15  C   UNL     1     -42.802  56.967 -55.747  1.00  0.00     0.037 A 
HETATM   16  C   UNL     1     -42.416  58.117 -55.050  1.00  0.00     0.012 A 
BRANCH  14  17
HETATM   17  O   UNL     1     -42.648  54.700 -56.257  1.00  0.00    -0.356 OA
HETATM   18  C   UNL     1     -43.422  53.729 -55.563  1.00  0.00     0.210 C 
ENDBRANCH  14  17
ENDBRANCH   1  11
BRANCH   8  19
HETATM   19  C   UNL     1     -42.076  57.390 -50.769  1.00  0.00    -0.031 A 
HETATM   20  C   UNL     1     -41.245  56.537 -50.027  1.00  0.00     0.028 A 
HETATM   21  C   UNL     1     -41.579  55.192 -49.860  1.00  0.00     0.011 A 
HETATM   22 BR   UNL     1     -40.455  54.071 -48.832  1.00  0.00    -0.051 Br
HETATM   23  C   UNL     1     -42.735  54.670 -50.434  1.00  0.00     0.019 A 
HETATM   24  C   UNL     1     -43.566  55.500 -51.181  1.00  0.00     0.002 A 
HETATM   25  C   UNL     1     -43.243  56.848 -51.344  1.00  0.00     0.009 A 
ENDBRANCH   8  19
BRANCH   6  26
HETATM   26  N   UNL     1     -46.014  61.049 -51.171  1.00  0.00    -0.229 N 
HETATM   27  H   UNL     1     -46.089  61.940 -50.699  1.00  0.00     0.174 HD
HETATM   28  H   UNL     1     -46.691  60.355 -50.884  1.00  0.00     0.174 HD
ENDBRANCH   6  26
TORSDOF 4
ENDMDL
MODEL 7
REMARK VINA RESULT:      -6.0     17.269     19.647
REMARK  4 active torsions:
REMARK  status: ('A' for Active; 'I' for Inactive)
REMARK    1  A    between atoms: O_2  and  C_3 
REMARK    2  A    between atoms: C_6  and  C_7 
REMARK    3  A    between atoms: C_12  and  N_13 
REMARK    4  A    between atoms: C_15  and  C_16 
ROOT
HETATM    1  C   UNL     1     -42.119  57.472 -56.846  1.00  0.00     0.135 C 
HETATM    2  N   UNL     1     -43.221  57.396 -57.802  1.00  0.00    -0.214 N 
HETATM    3  C   UNL     1     -44.428  57.895 -57.467  1.00  0.00     0.736 A 
HETATM    4  N   UNL     1     -44.572  58.786 -56.439  1.00  0.00    -0.074 N 
HETATM    5  N   UNL     1     -45.851  59.180 -56.308  1.00  0.00     0.037 NA
HETATM    6  C   UNL     1     -46.430  58.465 -57.270  1.00  0.00     0.753 A 
HETATM    7  N   UNL     1     -45.601  57.657 -57.993  1.00  0.00     0.131 NA
HETATM    8  C   UNL     1     -43.474  59.304 -55.633  1.00  0.00     0.164 C 
HETATM    9  C   UNL     1     -42.110  58.890 -56.229  1.00  0.00     0.063 C 
HETATM   10  H   UNL     1     -43.203  56.617 -58.452  1.00  0.00     0.178 HD
ENDROOT
BRANCH   1  11
HETATM   11  C   UNL     1     -42.108  56.314 -55.855  1.00  0.00    -0.035 A 
HETATM   12  C   UNL     1     -42.861  55.141 -56.045  1.00  0.00     0.012 A 
HETATM   13  C   UNL     1     -42.813  54.081 -55.131  1.00  0.00     0.037 A 
HETATM   14  C   UNL     1     -41.998  54.161 -54.006  1.00  0.00     0.068 A 
HETATM   15  C   UNL     1     -41.235  55.311 -53.807  1.00  0.00     0.037 A 
HETATM   16  C   UNL     1     -41.280  56.369 -54.722  1.00  0.00     0.012 A 
BRANCH  14  17
HETATM   17  O   UNL     1     -41.854  53.199 -53.045  1.00  0.00    -0.356 OA
HETATM   18  C   UNL     1     -40.608  53.162 -52.360  1.00  0.00     0.210 C 
ENDBRANCH  14  17
ENDBRANCH   1  11
BRANCH   8  19
HETATM   19  C   UNL     1     -43.579  58.977 -54.148  1.00  0.00    -0.031 A 
HETATM   20  C   UNL     1     -42.851  59.652 -53.157  1.00  0.00     0.028 A 
HETATM   21  C   UNL     1     -43.030  59.339 -51.808  1.00  0.00     0.011 A 
HETATM   22 BR   UNL     1     -42.055  60.282 -50.492  1.00  0.00    -0.051 Br
HETATM   23  C   UNL     1     -43.926  58.344 -51.423  1.00  0.00     0.019 A 
HETATM   24  C   UNL     1     -44.650  57.659 -52.393  1.00  0.00     0.002 A 
HETATM   25  C   UNL     1     -44.482  57.973 -53.743  1.00  0.00     0.009 A 
ENDBRANCH   8  19
BRANCH   6  26
HETATM   26  N   UNL     1     -47.730  58.452 -57.547  1.00  0.00    -0.229 N 
HETATM   27  H   UNL     1     -48.273  57.708 -57.130  1.00  0.00     0.174 HD
HETATM   28  H   UNL     1     -47.994  58.695 -58.492  1.00  0.00     0.174 HD
ENDBRANCH   6  26
TORSDOF 4
ENDMDL
MODEL 8
REMARK VINA RESULT:      -5.9     17.336     19.560
REMARK  4 active torsions:
REMARK  status: ('A' for Active; 'I' for Inactive)
REMARK    1  A    between atoms: O_2  and  C_3 
REMARK    2  A    between atoms: C_6  and  C_7 
REMARK    3  A    between atoms: C_12  and  N_13 
REMARK    4  A    between atoms: C_15  and  C_16 
ROOT
HETATM    1  C   UNL     1     -44.562  57.354 -53.828  1.00  0.00     0.135 C 
HETATM    2  N   UNL     1     -44.265  58.579 -53.093  1.00  0.00    -0.214 N 
HETATM    3  C   UNL     1     -43.917  59.694 -53.767  1.00  0.00     0.736 A 
HETATM    4  N   UNL     1     -44.186  59.833 -55.102  1.00  0.00    -0.074 N 
HETATM    5  N   UNL     1     -43.791  61.034 -55.558  1.00  0.00     0.037 NA
HETATM    6  C   UNL     1     -43.264  61.557 -54.453  1.00  0.00     0.753 A 
HETATM    7  N   UNL     1     -43.307  60.769 -53.341  1.00  0.00     0.131 NA
HETATM    8  C   UNL     1     -44.880  58.842 -55.914  1.00  0.00     0.164 C 
HETATM    9  C   UNL     1     -45.465  57.717 -55.030  1.00  0.00     0.063 C 
HETATM   10  H   UNL     1     -43.888  58.465 -52.157  1.00  0.00     0.178 HD
ENDROOT
BRANCH   1  11
HETATM   11  C   UNL     1     -43.318  56.536 -54.155  1.00  0.00    -0.035 A 
HETATM   12  C   UNL     1     -42.031  56.901 -53.719  1.00  0.00     0.012 A 
HETATM   13  C   UNL     1     -40.907  56.117 -54.010  1.00  0.00     0.037 A 
HETATM   14  C   UNL     1     -41.043  54.938 -54.736  1.00  0.00     0.068 A 
HETATM   15  C   UNL     1     -42.312  54.554 -55.167  1.00  0.00     0.037 A 
HETATM   16  C   UNL     1     -43.437  55.335 -54.873  1.00  0.00     0.012 A 
BRANCH  14  17
HETATM   17  O   UNL     1     -40.034  54.082 -55.081  1.00  0.00    -0.356 OA
HETATM   18  C   UNL     1     -40.086  52.775 -54.523  1.00  0.00     0.210 C 
ENDBRANCH  14  17
ENDBRANCH   1  11
BRANCH   8  19
HETATM   19  C   UNL     1     -44.057  58.296 -57.074  1.00  0.00    -0.031 A 
HETATM   20  C   UNL     1     -44.589  57.469 -58.075  1.00  0.00     0.028 A 
HETATM   21  C   UNL     1     -43.793  57.043 -59.140  1.00  0.00     0.011 A 
HETATM   22 BR   UNL     1     -44.543  55.951 -60.489  1.00  0.00    -0.051 Br
HETATM   23  C   UNL     1     -42.455  57.421 -59.223  1.00  0.00     0.019 A 
HETATM   24  C   UNL     1     -41.909  58.233 -58.234  1.00  0.00     0.002 A 
HETATM   25  C   UNL     1     -42.701  58.670 -57.172  1.00  0.00     0.009 A 
ENDBRANCH   8  19
BRANCH   6  26
HETATM   26  N   UNL     1     -42.678  62.748 -54.366  1.00  0.00    -0.229 N 
HETATM   27  H   UNL     1     -43.250  63.551 -54.591  1.00  0.00     0.174 HD
HETATM   28  H   UNL     1     -41.720  62.804 -54.682  1.00  0.00     0.174 HD
ENDBRANCH   6  26
TORSDOF 4
ENDMDL
MODEL 9
REMARK VINA RESULT:      -5.7     17.858     20.046
REMARK  4 active torsions:
REMARK  status: ('A' for Active; 'I' for Inactive)
REMARK    1  A    between atoms: O_2  and  C_3 
REMARK    2  A    between atoms: C_6  and  C_7 
REMARK    3  A    between atoms: C_12  and  N_13 
REMARK    4  A    between atoms: C_15  and  C_16 
ROOT
HETATM    1  C   UNL     1     -41.105  58.285 -52.176  1.00  0.00     0.135 C 
HETATM    2  N   UNL     1     -41.459  57.337 -51.124  1.00  0.00    -0.214 N 
HETATM    3  C   UNL     1     -42.277  56.303 -51.406  1.00  0.00     0.736 A 
HETATM    4  N   UNL     1     -42.490  55.893 -52.694  1.00  0.00    -0.074 N 
HETATM    5  N   UNL     1     -43.305  54.824 -52.739  1.00  0.00     0.037 NA
HETATM    6  C   UNL     1     -43.571  54.661 -51.445  1.00  0.00     0.753 A 
HETATM    7  N   UNL     1     -42.976  55.550 -50.597  1.00  0.00     0.131 NA
HETATM    8  C   UNL     1     -41.858  56.485 -53.865  1.00  0.00     0.164 C 
HETATM    9  C   UNL     1     -40.755  57.484 -53.452  1.00  0.00     0.063 C 
HETATM   10  H   UNL     1     -41.478  57.700 -50.175  1.00  0.00     0.178 HD
ENDROOT
BRANCH   1  11
HETATM   11  C   UNL     1     -42.134  59.397 -52.350  1.00  0.00    -0.035 A 
HETATM   12  C   UNL     1     -42.092  60.313 -53.416  1.00  0.00     0.012 A 
HETATM   13  C   UNL     1     -43.066  61.309 -53.567  1.00  0.00     0.037 A 
HETATM   14  C   UNL     1     -44.117  61.406 -52.660  1.00  0.00     0.068 A 
HETATM   15  C   UNL     1     -44.181  60.500 -51.603  1.00  0.00     0.037 A 
HETATM   16  C   UNL     1     -43.211  59.502 -51.453  1.00  0.00     0.012 A 
BRANCH  14  17
HETATM   17  O   UNL     1     -45.131  62.323 -52.697  1.00  0.00    -0.356 OA
HETATM   18  C   UNL     1     -46.280  62.036 -51.909  1.00  0.00     0.210 C 
ENDBRANCH  14  17
ENDBRANCH   1  11
BRANCH   8  19
HETATM   19  C   UNL     1     -42.837  57.087 -54.867  1.00  0.00    -0.031 A 
HETATM   20  C   UNL     1     -42.525  57.295 -56.220  1.00  0.00     0.028 A 
HETATM   21  C   UNL     1     -43.484  57.804 -57.098  1.00  0.00     0.011 A 
HETATM   22 BR   UNL     1     -43.045  58.049 -58.921  1.00  0.00    -0.051 Br
HETATM   23  C   UNL     1     -44.761  58.125 -56.647  1.00  0.00     0.019 A 
HETATM   24  C   UNL     1     -45.085  57.933 -55.307  1.00  0.00     0.002 A 
HETATM   25  C   UNL     1     -44.134  57.416 -54.425  1.00  0.00     0.009 A 
ENDBRANCH   8  19
BRANCH   6  26
HETATM   26  N   UNL     1     -44.384  53.742 -50.933  1.00  0.00    -0.229 N 
HETATM   27  H   UNL     1     -45.002  53.274 -51.583  1.00  0.00     0.174 HD
HETATM   28  H   UNL     1     -44.791  53.950 -50.032  1.00  0.00     0.174 HD
ENDBRANCH   6  26
TORSDOF 4
ENDMDL
MODEL 10
REMARK VINA RESULT:      -5.7     18.049     19.844
REMARK  4 active torsions:
REMARK  status: ('A' for Active; 'I' for Inactive)
REMARK    1  A    between atoms: O_2  and  C_3 
REMARK    2  A    between atoms: C_6  and  C_7 
REMARK    3  A    between atoms: C_12  and  N_13 
REMARK    4  A    between atoms: C_15  and  C_16 
ROOT
HETATM    1  C   UNL     1     -44.339  59.914 -55.924  1.00  0.00     0.135 C 
HETATM    2  N   UNL     1     -44.665  59.187 -54.701  1.00  0.00    -0.214 N 
HETATM    3  C   UNL     1     -44.206  57.931 -54.529  1.00  0.00     0.736 A 
HETATM    4  N   UNL     1     -43.159  57.448 -55.266  1.00  0.00    -0.074 N 
HETATM    5  N   UNL     1     -42.844  56.192 -54.903  1.00  0.00     0.037 NA
HETATM    6  C   UNL     1     -43.760  55.969 -53.963  1.00  0.00     0.753 A 
HETATM    7  N   UNL     1     -44.620  56.998 -53.713  1.00  0.00     0.131 NA
HETATM    8  C   UNL     1     -42.426  58.215 -56.264  1.00  0.00     0.164 C 
HETATM    9  C   UNL     1     -42.837  59.704 -56.227  1.00  0.00     0.063 C 
HETATM   10  H   UNL     1     -45.545  59.427 -54.253  1.00  0.00     0.178 HD
ENDROOT
BRANCH   1  11
HETATM   11  C   UNL     1     -45.298  59.614 -57.071  1.00  0.00    -0.035 A 
HETATM   12  C   UNL     1     -46.307  58.638 -56.984  1.00  0.00     0.012 A 
HETATM   13  C   UNL     1     -47.192  58.399 -58.044  1.00  0.00     0.037 A 
HETATM   14  C   UNL     1     -47.098  59.142 -59.217  1.00  0.00     0.068 A 
HETATM   15  C   UNL     1     -46.111  60.122 -59.317  1.00  0.00     0.037 A 
HETATM   16  C   UNL     1     -45.229  60.363 -58.257  1.00  0.00     0.012 A 
BRANCH  14  17
HETATM   17  O   UNL     1     -47.899  59.015 -60.317  1.00  0.00    -0.356 OA
HETATM   18  C   UNL     1     -47.433  59.617 -61.519  1.00  0.00     0.210 C 
ENDBRANCH  14  17
ENDBRANCH   1  11
BRANCH   8  19
HETATM   19  C   UNL     1     -42.489  57.633 -57.672  1.00  0.00    -0.031 A 
HETATM   20  C   UNL     1     -43.298  56.540 -58.019  1.00  0.00     0.028 A 
HETATM   21  C   UNL     1     -43.349  56.086 -59.338  1.00  0.00     0.011 A 
HETATM   22 BR   UNL     1     -44.468  54.629 -59.782  1.00  0.00    -0.051 Br
HETATM   23  C   UNL     1     -42.591  56.702 -60.331  1.00  0.00     0.019 A 
HETATM   24  C   UNL     1     -41.777  57.781 -60.003  1.00  0.00     0.002 A 
HETATM   25  C   UNL     1     -41.728  58.246 -58.687  1.00  0.00     0.009 A 
ENDBRANCH   8  19
BRANCH   6  26
HETATM   26  N   UNL     1     -43.918  54.831 -53.294  1.00  0.00    -0.229 N 
HETATM   27  H   UNL     1     -44.611  54.833 -52.558  1.00  0.00     0.174 HD
HETATM   28  H   UNL     1     -43.079  54.307 -53.089  1.00  0.00     0.174 HD
ENDBRANCH   6  26
TORSDOF 4
ENDMDL
