MODEL 1
REMARK VINA RESULT:      -7.5      0.000      0.000
REMARK  7 active torsions:
REMARK  status: ('A' for Active; 'I' for Inactive)
REMARK    1  A    between atoms: C_10  and  C_11 
REMARK       I    between atoms: C_11  and  N_12 
REMARK    2  A    between atoms: N_12  and  C_13 
REMARK    3  A    between atoms: C_13  and  C_14 
REMARK    4  A    between atoms: C_14  and  O_15 
REMARK    5  A    between atoms: C_14  and  C_16 
REMARK    6  A    between atoms: C_16  and  O_17 
REMARK    7  A    between atoms: O_17  and  C_18 
ROOT
HETATM    1  C   UNL     1     -41.916  57.536 -53.239  1.00  0.00     0.257 C 
HETATM    2  N   UNL     1     -42.943  56.801 -52.693  1.00  0.00    -0.354 N 
HETATM    3  O   UNL     1     -40.925  57.882 -52.606  1.00  0.00    -0.267 OA
HETATM    4  H   UNL     1     -43.756  56.689 -53.299  1.00  0.00     0.162 HD
ENDROOT
BRANCH   2   5
HETATM    5  C   UNL     1     -43.153  56.600 -51.263  1.00  0.00     0.156 C 
BRANCH   5   6
HETATM    6  C   UNL     1     -43.389  55.147 -50.806  1.00  0.00     0.160 C 
BRANCH   6   7
HETATM    7  O   UNL     1     -43.949  54.389 -51.891  1.00  0.00    -0.392 OA
HETATM    8  H   UNL     1     -43.184  54.056 -52.410  1.00  0.00     0.210 HD
ENDBRANCH   6   7
BRANCH   6   9
HETATM    9  C   UNL     1     -42.061  54.478 -50.414  1.00  0.00     0.209 C 
BRANCH   9  10
HETATM   10  O   UNL     1     -41.131  54.642 -51.493  1.00  0.00    -0.349 OA
BRANCH  10  11
HETATM   11  C   UNL     1     -40.662  53.508 -52.094  1.00  0.00     0.069 A 
HETATM   12  C   UNL     1     -40.986  53.392 -53.449  1.00  0.00     0.038 A 
HETATM   13  C   UNL     1     -40.573  52.282 -54.189  1.00  0.00     0.026 A 
HETATM   14  C   UNL     1     -39.833  51.280 -53.566  1.00  0.00     0.034 A 
HETATM   15 CL   UNL     1     -39.319  49.908 -54.468  1.00  0.00    -0.084 Cl
HETATM   16  C   UNL     1     -39.508  51.383 -52.215  1.00  0.00     0.026 A 
HETATM   17  C   UNL     1     -39.924  52.496 -51.477  1.00  0.00     0.038 A 
ENDBRANCH  10  11
ENDBRANCH   9  10
ENDBRANCH   6   9
ENDBRANCH   5   6
ENDBRANCH   2   5
BRANCH   1  18
HETATM   18  C   UNL     1     -42.081  57.892 -54.634  1.00  0.00     0.098 A 
HETATM   19  C   UNL     1     -42.379  57.075 -55.710  1.00  0.00     0.167 A 
HETATM   20  N   UNL     1     -42.490  57.920 -56.821  1.00  0.00    -0.226 N 
HETATM   21  N   UNL     1     -42.588  55.721 -55.803  1.00  0.00    -0.240 NA
HETATM   22  C   UNL     1     -42.847  57.412 -58.065  1.00  0.00     0.128 A 
HETATM   23  N   UNL     1     -42.235  59.210 -56.503  1.00  0.00    -0.178 NA
HETATM   24  C   UNL     1     -43.090  56.101 -58.223  1.00  0.00    -0.027 A 
HETATM   25  C   UNL     1     -43.504  55.429 -59.483  1.00  0.00     0.051 C 
HETATM   26  C   UNL     1     -42.921  55.282 -56.984  1.00  0.00     0.127 A 
HETATM   27  C   UNL     1     -42.007  59.186 -55.189  1.00  0.00     0.160 A 
ENDBRANCH   1  18
TORSDOF 7
ENDMDL
MODEL 2
REMARK VINA RESULT:      -7.4      1.250      2.080
REMARK  7 active torsions:
REMARK  status: ('A' for Active; 'I' for Inactive)
REMARK    1  A    between atoms: C_10  and  C_11 
REMARK       I    between atoms: C_11  and  N_12 
REMARK    2  A    between atoms: N_12  and  C_13 
REMARK    3  A    between atoms: C_13  and  C_14 
REMARK    4  A    between atoms: C_14  and  O_15 
REMARK    5  A    between atoms: C_14  and  C_16 
REMARK    6  A    between atoms: C_16  and  O_17 
REMARK    7  A    between atoms: O_17  and  C_18 
ROOT
HETATM    1  C   UNL     1     -42.171  56.817 -54.298  1.00  0.00     0.257 C 
HETATM    2  N   UNL     1     -43.200  56.579 -53.417  1.00  0.00    -0.354 N 
HETATM    3  O   UNL     1     -41.067  57.223 -53.950  1.00  0.00    -0.267 OA
HETATM    4  H   UNL     1     -44.095  56.362 -53.855  1.00  0.00     0.162 HD
ENDROOT
BRANCH   2   5
HETATM    5  C   UNL     1     -43.240  57.051 -52.037  1.00  0.00     0.156 C 
BRANCH   5   6
HETATM    6  C   UNL     1     -43.418  55.972 -50.951  1.00  0.00     0.160 C 
BRANCH   6   7
HETATM    7  O   UNL     1     -44.810  55.860 -50.613  1.00  0.00    -0.392 OA
HETATM    8  H   UNL     1     -45.220  56.716 -50.868  1.00  0.00     0.210 HD
ENDBRANCH   6   7
BRANCH   6   9
HETATM    9  C   UNL     1     -42.958  54.599 -51.469  1.00  0.00     0.209 C 
BRANCH   9  10
HETATM   10  O   UNL     1     -41.557  54.670 -51.767  1.00  0.00    -0.349 OA
BRANCH  10  11
HETATM   11  C   UNL     1     -40.967  53.548 -52.278  1.00  0.00     0.069 A 
HETATM   12  C   UNL     1     -41.282  53.283 -53.614  1.00  0.00     0.038 A 
HETATM   13  C   UNL     1     -40.751  52.168 -54.265  1.00  0.00     0.026 A 
HETATM   14  C   UNL     1     -39.902  51.310 -53.572  1.00  0.00     0.034 A 
HETATM   15 CL   UNL     1     -39.242  49.932 -54.364  1.00  0.00    -0.084 Cl
HETATM   16  C   UNL     1     -39.585  51.561 -52.239  1.00  0.00     0.026 A 
HETATM   17  C   UNL     1     -40.119  52.680 -51.589  1.00  0.00     0.038 A 
ENDBRANCH  10  11
ENDBRANCH   9  10
ENDBRANCH   6   9
ENDBRANCH   5   6
ENDBRANCH   2   5
BRANCH   1  18
HETATM   18  C   UNL     1     -42.475  56.563 -55.692  1.00  0.00     0.098 A 
HETATM   19  C   UNL     1     -42.409  57.430 -56.768  1.00  0.00     0.167 A 
HETATM   20  N   UNL     1     -42.741  56.673 -57.898  1.00  0.00    -0.226 N 
HETATM   21  N   UNL     1     -42.068  58.757 -56.857  1.00  0.00    -0.240 NA
HETATM   22  C   UNL     1     -42.709  57.241 -59.166  1.00  0.00     0.128 A 
HETATM   23  N   UNL     1     -43.052  55.395 -57.578  1.00  0.00    -0.178 NA
HETATM   24  C   UNL     1     -42.360  58.527 -59.330  1.00  0.00    -0.027 A 
HETATM   25  C   UNL     1     -42.258  59.254 -60.623  1.00  0.00     0.051 C 
HETATM   26  C   UNL     1     -42.047  59.254 -58.061  1.00  0.00     0.127 A 
HETATM   27  C   UNL     1     -42.874  55.335 -56.257  1.00  0.00     0.160 A 
ENDBRANCH   1  18
TORSDOF 7
ENDMDL
MODEL 3
REMARK VINA RESULT:      -7.3      2.675      6.296
REMARK  7 active torsions:
REMARK  status: ('A' for Active; 'I' for Inactive)
REMARK    1  A    between atoms: C_10  and  C_11 
REMARK       I    between atoms: C_11  and  N_12 
REMARK    2  A    between atoms: N_12  and  C_13 
REMARK    3  A    between atoms: C_13  and  C_14 
REMARK    4  A    between atoms: C_14  and  O_15 
REMARK    5  A    between atoms: C_14  and  C_16 
REMARK    6  A    between atoms: C_16  and  O_17 
REMARK    7  A    between atoms: O_17  and  C_18 
ROOT
HETATM    1  C   UNL     1     -42.009  55.758 -52.229  1.00  0.00     0.257 C 
HETATM    2  N   UNL     1     -41.328  56.953 -52.233  1.00  0.00    -0.354 N 
HETATM    3  O   UNL     1     -43.204  55.663 -52.489  1.00  0.00    -0.267 OA
HETATM    4  H   UNL     1     -40.372  56.900 -51.882  1.00  0.00     0.162 HD
ENDROOT
BRANCH   2   5
HETATM    5  C   UNL     1     -41.957  58.270 -52.235  1.00  0.00     0.156 C 
BRANCH   5   6
HETATM    6  C   UNL     1     -41.358  59.311 -53.200  1.00  0.00     0.160 C 
BRANCH   6   7
HETATM    7  O   UNL     1     -39.928  59.176 -53.220  1.00  0.00    -0.392 OA
HETATM    8  H   UNL     1     -39.700  58.853 -54.119  1.00  0.00     0.210 HD
ENDBRANCH   6   7
BRANCH   6   9
HETATM    9  C   UNL     1     -41.863  59.079 -54.633  1.00  0.00     0.209 C 
BRANCH   9  10
HETATM   10  O   UNL     1     -41.827  57.672 -54.907  1.00  0.00    -0.349 OA
BRANCH  10  11
HETATM   11  C   UNL     1     -42.278  57.258 -56.129  1.00  0.00     0.069 A 
HETATM   12  C   UNL     1     -42.571  55.894 -56.210  1.00  0.00     0.038 A 
HETATM   13  C   UNL     1     -43.039  55.333 -57.400  1.00  0.00     0.026 A 
HETATM   14  C   UNL     1     -43.211  56.144 -58.518  1.00  0.00     0.034 A 
HETATM   15 CL   UNL     1     -43.786  55.464 -59.990  1.00  0.00    -0.084 Cl
HETATM   16  C   UNL     1     -42.917  57.505 -58.451  1.00  0.00     0.026 A 
HETATM   17  C   UNL     1     -42.448  58.063 -57.257  1.00  0.00     0.038 A 
ENDBRANCH  10  11
ENDBRANCH   9  10
ENDBRANCH   6   9
ENDBRANCH   5   6
ENDBRANCH   2   5
BRANCH   1  18
HETATM   18  C   UNL     1     -41.219  54.593 -51.886  1.00  0.00     0.098 A 
HETATM   19  C   UNL     1     -40.942  53.475 -52.652  1.00  0.00     0.167 A 
HETATM   20  N   UNL     1     -40.084  52.679 -51.883  1.00  0.00    -0.226 N 
HETATM   21  N   UNL     1     -41.324  53.114 -53.921  1.00  0.00    -0.240 NA
HETATM   22  C   UNL     1     -39.565  51.496 -52.396  1.00  0.00     0.128 A 
HETATM   23  N   UNL     1     -39.849  53.220 -50.665  1.00  0.00    -0.178 NA
HETATM   24  C   UNL     1     -39.877  51.095 -53.638  1.00  0.00    -0.027 A 
HETATM   25  C   UNL     1     -39.376  49.872 -54.320  1.00  0.00     0.051 C 
HETATM   26  C   UNL     1     -40.816  52.001 -54.368  1.00  0.00     0.127 A 
HETATM   27  C   UNL     1     -40.519  54.373 -50.683  1.00  0.00     0.160 A 
ENDBRANCH   1  18
TORSDOF 7
ENDMDL
MODEL 4
REMARK VINA RESULT:      -7.0      4.640      7.003
REMARK  7 active torsions:
REMARK  status: ('A' for Active; 'I' for Inactive)
REMARK    1  A    between atoms: C_10  and  C_11 
REMARK       I    between atoms: C_11  and  N_12 
REMARK    2  A    between atoms: N_12  and  C_13 
REMARK    3  A    between atoms: C_13  and  C_14 
REMARK    4  A    between atoms: C_14  and  O_15 
REMARK    5  A    between atoms: C_14  and  C_16 
REMARK    6  A    between atoms: C_16  and  O_17 
REMARK    7  A    between atoms: O_17  and  C_18 
ROOT
HETATM    1  C   UNL     1     -45.321  59.165 -50.526  1.00  0.00     0.257 C 
HETATM    2  N   UNL     1     -44.164  58.547 -50.941  1.00  0.00    -0.354 N 
HETATM    3  O   UNL     1     -46.424  58.632 -50.575  1.00  0.00    -0.267 OA
HETATM    4  H   UNL     1     -43.342  59.149 -50.956  1.00  0.00     0.162 HD
ENDROOT
BRANCH   2   5
HETATM    5  C   UNL     1     -44.114  57.340 -51.760  1.00  0.00     0.156 C 
BRANCH   5   6
HETATM    6  C   UNL     1     -43.620  56.060 -51.058  1.00  0.00     0.160 C 
BRANCH   6   7
HETATM    7  O   UNL     1     -44.734  55.388 -50.450  1.00  0.00    -0.392 OA
HETATM    8  H   UNL     1     -45.423  55.320 -51.148  1.00  0.00     0.210 HD
ENDBRANCH   6   7
BRANCH   6   9
HETATM    9  C   UNL     1     -42.997  55.089 -52.075  1.00  0.00     0.209 C 
BRANCH   9  10
HETATM   10  O   UNL     1     -41.648  54.810 -51.674  1.00  0.00    -0.349 OA
BRANCH  10  11
HETATM   11  C   UNL     1     -41.052  53.701 -52.203  1.00  0.00     0.069 A 
HETATM   12  C   UNL     1     -41.396  53.434 -53.532  1.00  0.00     0.038 A 
HETATM   13  C   UNL     1     -40.862  52.329 -54.199  1.00  0.00     0.026 A 
HETATM   14  C   UNL     1     -39.982  51.484 -53.529  1.00  0.00     0.034 A 
HETATM   15 CL   UNL     1     -39.319  50.119 -54.342  1.00  0.00    -0.084 Cl
HETATM   16  C   UNL     1     -39.636  51.737 -52.203  1.00  0.00     0.026 A 
HETATM   17  C   UNL     1     -40.173  52.845 -51.538  1.00  0.00     0.038 A 
ENDBRANCH  10  11
ENDBRANCH   9  10
ENDBRANCH   6   9
ENDBRANCH   5   6
ENDBRANCH   2   5
BRANCH   1  18
HETATM   18  C   UNL     1     -45.159  60.514 -50.023  1.00  0.00     0.098 A 
HETATM   19  C   UNL     1     -45.381  60.998 -48.746  1.00  0.00     0.167 A 
HETATM   20  N   UNL     1     -45.012  62.349 -48.773  1.00  0.00    -0.226 N 
HETATM   21  N   UNL     1     -45.825  60.389 -47.599  1.00  0.00    -0.240 NA
HETATM   22  C   UNL     1     -45.060  63.119 -47.616  1.00  0.00     0.128 A 
HETATM   23  N   UNL     1     -44.616  62.741 -50.005  1.00  0.00    -0.178 NA
HETATM   24  C   UNL     1     -45.460  62.581 -46.454  1.00  0.00    -0.027 A 
HETATM   25  C   UNL     1     -45.534  63.277 -45.141  1.00  0.00     0.051 C 
HETATM   26  C   UNL     1     -45.854  61.141 -46.536  1.00  0.00     0.127 A 
HETATM   27  C   UNL     1     -44.691  61.632 -50.743  1.00  0.00     0.160 A 
ENDBRANCH   1  18
TORSDOF 7
ENDMDL
MODEL 5
REMARK VINA RESULT:      -7.0      3.323      6.928
REMARK  7 active torsions:
REMARK  status: ('A' for Active; 'I' for Inactive)
REMARK    1  A    between atoms: C_10  and  C_11 
REMARK       I    between atoms: C_11  and  N_12 
REMARK    2  A    between atoms: N_12  and  C_13 
REMARK    3  A    between atoms: C_13  and  C_14 
REMARK    4  A    between atoms: C_14  and  O_15 
REMARK    5  A    between atoms: C_14  and  C_16 
REMARK    6  A    between atoms: C_16  and  O_17 
REMARK    7  A    between atoms: O_17  and  C_18 
ROOT
HETATM    1  C   UNL     1     -41.891  55.780 -52.118  1.00  0.00     0.257 C 
HETATM    2  N   UNL     1     -42.986  55.606 -52.933  1.00  0.00    -0.354 N 
HETATM    3  O   UNL     1     -41.554  56.869 -51.667  1.00  0.00    -0.267 OA
HETATM    4  H   UNL     1     -43.078  54.671 -53.330  1.00  0.00     0.162 HD
ENDROOT
BRANCH   2   5
HETATM    5  C   UNL     1     -43.697  56.684 -53.613  1.00  0.00     0.156 C 
BRANCH   5   6
HETATM    6  C   UNL     1     -43.053  57.217 -54.907  1.00  0.00     0.160 C 
BRANCH   6   7
HETATM    7  O   UNL     1     -41.810  57.862 -54.591  1.00  0.00    -0.392 OA
HETATM    8  H   UNL     1     -41.535  57.507 -53.717  1.00  0.00     0.210 HD
ENDBRANCH   6   7
BRANCH   6   9
HETATM    9  C   UNL     1     -42.741  56.063 -55.874  1.00  0.00     0.209 C 
BRANCH   9  10
HETATM   10  O   UNL     1     -42.538  56.607 -57.185  1.00  0.00    -0.349 OA
BRANCH  10  11
HETATM   11  C   UNL     1     -43.599  56.587 -58.045  1.00  0.00     0.069 A 
HETATM   12  C   UNL     1     -43.618  55.496 -58.919  1.00  0.00     0.038 A 
HETATM   13  C   UNL     1     -44.644  55.349 -59.855  1.00  0.00     0.026 A 
HETATM   14  C   UNL     1     -45.656  56.302 -59.918  1.00  0.00     0.034 A 
HETATM   15 CL   UNL     1     -46.925  56.131 -61.067  1.00  0.00    -0.084 Cl
HETATM   16  C   UNL     1     -45.646  57.396 -59.055  1.00  0.00     0.026 A 
HETATM   17  C   UNL     1     -44.615  57.541 -58.119  1.00  0.00     0.038 A 
ENDBRANCH  10  11
ENDBRANCH   9  10
ENDBRANCH   6   9
ENDBRANCH   5   6
ENDBRANCH   2   5
BRANCH   1  18
HETATM   18  C   UNL     1     -41.140  54.577 -51.823  1.00  0.00     0.098 A 
HETATM   19  C   UNL     1     -40.904  53.479 -52.632  1.00  0.00     0.167 A 
HETATM   20  N   UNL     1     -40.071  52.626 -51.898  1.00  0.00    -0.226 N 
HETATM   21  N   UNL     1     -41.304  53.180 -53.912  1.00  0.00    -0.240 NA
HETATM   22  C   UNL     1     -39.595  51.447 -52.457  1.00  0.00     0.128 A 
HETATM   23  N   UNL     1     -39.813  53.113 -50.662  1.00  0.00    -0.178 NA
HETATM   24  C   UNL     1     -39.925  51.103 -53.712  1.00  0.00    -0.027 A 
HETATM   25  C   UNL     1     -39.468  49.891 -54.443  1.00  0.00     0.051 C 
HETATM   26  C   UNL     1     -40.835  52.068 -54.402  1.00  0.00     0.127 A 
HETATM   27  C   UNL     1     -40.443  54.288 -50.632  1.00  0.00     0.160 A 
ENDBRANCH   1  18
TORSDOF 7
ENDMDL
MODEL 6
REMARK VINA RESULT:      -6.8      3.419      7.041
REMARK  7 active torsions:
REMARK  status: ('A' for Active; 'I' for Inactive)
REMARK    1  A    between atoms: C_10  and  C_11 
REMARK       I    between atoms: C_11  and  N_12 
REMARK    2  A    between atoms: N_12  and  C_13 
REMARK    3  A    between atoms: C_13  and  C_14 
REMARK    4  A    between atoms: C_14  and  O_15 
REMARK    5  A    between atoms: C_14  and  C_16 
REMARK    6  A    between atoms: C_16  and  O_17 
REMARK    7  A    between atoms: O_17  and  C_18 
ROOT
HETATM    1  C   UNL     1     -40.861  53.895 -54.702  1.00  0.00     0.257 C 
HETATM    2  N   UNL     1     -42.096  54.500 -54.685  1.00  0.00    -0.354 N 
HETATM    3  O   UNL     1     -40.114  53.916 -55.674  1.00  0.00    -0.267 OA
HETATM    4  H   UNL     1     -42.657  54.301 -53.857  1.00  0.00     0.162 HD
ENDROOT
BRANCH   2   5
HETATM    5  C   UNL     1     -42.810  54.967 -55.869  1.00  0.00     0.156 C 
BRANCH   5   6
HETATM    6  C   UNL     1     -42.374  56.332 -56.436  1.00  0.00     0.160 C 
BRANCH   6   7
HETATM    7  O   UNL     1     -42.679  56.387 -57.838  1.00  0.00    -0.392 OA
HETATM    8  H   UNL     1     -43.658  56.333 -57.904  1.00  0.00     0.210 HD
ENDBRANCH   6   7
BRANCH   6   9
HETATM    9  C   UNL     1     -43.142  57.475 -55.752  1.00  0.00     0.209 C 
BRANCH   9  10
HETATM   10  O   UNL     1     -43.277  57.166 -54.358  1.00  0.00    -0.349 OA
BRANCH  10  11
HETATM   11  C   UNL     1     -42.399  57.758 -53.496  1.00  0.00     0.069 A 
HETATM   12  C   UNL     1     -42.856  57.860 -52.179  1.00  0.00     0.038 A 
HETATM   13  C   UNL     1     -42.062  58.447 -51.191  1.00  0.00     0.026 A 
HETATM   14  C   UNL     1     -40.803  58.938 -51.525  1.00  0.00     0.034 A 
HETATM   15 CL   UNL     1     -39.817  59.663 -50.316  1.00  0.00    -0.084 Cl
HETATM   16  C   UNL     1     -40.339  58.847 -52.836  1.00  0.00     0.026 A 
HETATM   17  C   UNL     1     -41.137  58.259 -53.824  1.00  0.00     0.038 A 
ENDBRANCH  10  11
ENDBRANCH   9  10
ENDBRANCH   6   9
ENDBRANCH   5   6
ENDBRANCH   2   5
BRANCH   1  18
HETATM   18  C   UNL     1     -40.489  53.210 -53.481  1.00  0.00     0.098 A 
HETATM   19  C   UNL     1     -40.524  53.675 -52.178  1.00  0.00     0.167 A 
HETATM   20  N   UNL     1     -40.124  52.603 -51.371  1.00  0.00    -0.226 N 
HETATM   21  N   UNL     1     -40.889  54.888 -51.647  1.00  0.00    -0.240 NA
HETATM   22  C   UNL     1     -40.111  52.725 -49.987  1.00  0.00     0.128 A 
HETATM   23  N   UNL     1     -39.801  51.512 -52.103  1.00  0.00    -0.178 NA
HETATM   24  C   UNL     1     -40.479  53.874 -49.398  1.00  0.00    -0.027 A 
HETATM   25  C   UNL     1     -40.538  54.135 -47.935  1.00  0.00     0.051 C 
HETATM   26  C   UNL     1     -40.865  54.963 -50.347  1.00  0.00     0.127 A 
HETATM   27  C   UNL     1     -40.038  51.879 -53.363  1.00  0.00     0.160 A 
ENDBRANCH   1  18
TORSDOF 7
ENDMDL
MODEL 7
REMARK VINA RESULT:      -6.7      3.265      6.691
REMARK  7 active torsions:
REMARK  status: ('A' for Active; 'I' for Inactive)
REMARK    1  A    between atoms: C_10  and  C_11 
REMARK       I    between atoms: C_11  and  N_12 
REMARK    2  A    between atoms: N_12  and  C_13 
REMARK    3  A    between atoms: C_13  and  C_14 
REMARK    4  A    between atoms: C_14  and  O_15 
REMARK    5  A    between atoms: C_14  and  C_16 
REMARK    6  A    between atoms: C_16  and  O_17 
REMARK    7  A    between atoms: O_17  and  C_18 
ROOT
HETATM    1  C   UNL     1     -42.563  54.483 -54.859  1.00  0.00     0.257 C 
HETATM    2  N   UNL     1     -42.567  55.857 -54.789  1.00  0.00    -0.354 N 
HETATM    3  O   UNL     1     -43.266  53.846 -55.636  1.00  0.00    -0.267 OA
HETATM    4  H   UNL     1     -42.025  56.246 -54.018  1.00  0.00     0.162 HD
ENDROOT
BRANCH   2   5
HETATM    5  C   UNL     1     -43.590  56.717 -55.376  1.00  0.00     0.156 C 
BRANCH   5   6
HETATM    6  C   UNL     1     -44.470  57.505 -54.387  1.00  0.00     0.160 C 
BRANCH   6   7
HETATM    7  O   UNL     1     -44.573  56.776 -53.153  1.00  0.00    -0.392 OA
HETATM    8  H   UNL     1     -44.850  55.866 -53.399  1.00  0.00     0.210 HD
ENDBRANCH   6   7
BRANCH   6   9
HETATM    9  C   UNL     1     -43.838  58.869 -54.065  1.00  0.00     0.209 C 
BRANCH   9  10
HETATM   10  O   UNL     1     -43.793  59.027 -52.640  1.00  0.00    -0.349 OA
BRANCH  10  11
HETATM   11  C   UNL     1     -42.561  59.146 -52.061  1.00  0.00     0.069 A 
HETATM   12  C   UNL     1     -41.493  58.772 -52.882  1.00  0.00     0.038 A 
HETATM   13  C   UNL     1     -40.178  58.841 -52.419  1.00  0.00     0.026 A 
HETATM   14  C   UNL     1     -39.931  59.285 -51.122  1.00  0.00     0.034 A 
HETATM   15 CL   UNL     1     -38.314  59.373 -50.540  1.00  0.00    -0.084 Cl
HETATM   16  C   UNL     1     -40.987  59.655 -50.293  1.00  0.00     0.026 A 
HETATM   17  C   UNL     1     -42.304  59.584 -50.761  1.00  0.00     0.038 A 
ENDBRANCH  10  11
ENDBRANCH   9  10
ENDBRANCH   6   9
ENDBRANCH   5   6
ENDBRANCH   2   5
BRANCH   1  18
HETATM   18  C   UNL     1     -41.666  53.817 -53.937  1.00  0.00     0.098 A 
HETATM   19  C   UNL     1     -41.406  54.113 -52.611  1.00  0.00     0.167 A 
HETATM   20  N   UNL     1     -40.516  53.130 -52.160  1.00  0.00    -0.226 N 
HETATM   21  N   UNL     1     -41.878  55.101 -51.782  1.00  0.00    -0.240 NA
HETATM   22  C   UNL     1     -40.098  53.107 -50.834  1.00  0.00     0.128 A 
HETATM   23  N   UNL     1     -40.175  52.266 -53.144  1.00  0.00    -0.178 NA
HETATM   24  C   UNL     1     -40.540  54.027 -49.963  1.00  0.00    -0.027 A 
HETATM   25  C   UNL     1     -40.199  54.105 -48.517  1.00  0.00     0.051 C 
HETATM   26  C   UNL     1     -41.466  55.045 -50.547  1.00  0.00     0.127 A 
HETATM   27  C   UNL     1     -40.881  52.675 -54.200  1.00  0.00     0.160 A 
ENDBRANCH   1  18
TORSDOF 7
ENDMDL
MODEL 8
REMARK VINA RESULT:      -6.6      1.556      2.003
REMARK  7 active torsions:
REMARK  status: ('A' for Active; 'I' for Inactive)
REMARK    1  A    between atoms: C_10  and  C_11 
REMARK       I    between atoms: C_11  and  N_12 
REMARK    2  A    between atoms: N_12  and  C_13 
REMARK    3  A    between atoms: C_13  and  C_14 
REMARK    4  A    between atoms: C_14  and  O_15 
REMARK    5  A    between atoms: C_14  and  C_16 
REMARK    6  A    between atoms: C_16  and  O_17 
REMARK    7  A    between atoms: O_17  and  C_18 
ROOT
HETATM    1  C   UNL     1     -42.787  58.816 -54.780  1.00  0.00     0.257 C 
HETATM    2  N   UNL     1     -42.468  57.627 -54.166  1.00  0.00    -0.354 N 
HETATM    3  O   UNL     1     -42.500  59.913 -54.314  1.00  0.00    -0.267 OA
HETATM    4  H   UNL     1     -42.872  56.799 -54.603  1.00  0.00     0.162 HD
ENDROOT
BRANCH   2   5
HETATM    5  C   UNL     1     -42.042  57.497 -52.776  1.00  0.00     0.156 C 
BRANCH   5   6
HETATM    6  C   UNL     1     -42.941  56.642 -51.862  1.00  0.00     0.160 C 
BRANCH   6   7
HETATM    7  O   UNL     1     -44.305  56.749 -52.299  1.00  0.00    -0.392 OA
HETATM    8  H   UNL     1     -44.312  56.459 -53.237  1.00  0.00     0.210 HD
ENDBRANCH   6   7
BRANCH   6   9
HETATM    9  C   UNL     1     -42.546  55.158 -51.947  1.00  0.00     0.209 C 
BRANCH   9  10
HETATM   10  O   UNL     1     -41.267  55.061 -52.588  1.00  0.00    -0.349 OA
BRANCH  10  11
HETATM   11  C   UNL     1     -40.848  53.818 -52.968  1.00  0.00     0.069 A 
HETATM   12  C   UNL     1     -40.165  53.107 -51.977  1.00  0.00     0.038 A 
HETATM   13  C   UNL     1     -39.677  51.822 -52.228  1.00  0.00     0.026 A 
HETATM   14  C   UNL     1     -39.872  51.248 -53.482  1.00  0.00     0.034 A 
HETATM   15 CL   UNL     1     -39.275  49.666 -53.802  1.00  0.00    -0.084 Cl
HETATM   16  C   UNL     1     -40.546  51.950 -54.479  1.00  0.00     0.026 A 
HETATM   17  C   UNL     1     -41.033  53.237 -54.224  1.00  0.00     0.038 A 
ENDBRANCH  10  11
ENDBRANCH   9  10
ENDBRANCH   6   9
ENDBRANCH   5   6
ENDBRANCH   2   5
BRANCH   1  18
HETATM   18  C   UNL     1     -43.503  58.694 -56.034  1.00  0.00     0.098 A 
HETATM   19  C   UNL     1     -43.488  57.653 -56.945  1.00  0.00     0.167 A 
HETATM   20  N   UNL     1     -44.399  58.003 -57.950  1.00  0.00    -0.226 N 
HETATM   21  N   UNL     1     -42.807  56.461 -56.965  1.00  0.00    -0.240 NA
HETATM   22  C   UNL     1     -44.667  57.130 -58.998  1.00  0.00     0.128 A 
HETATM   23  N   UNL     1     -44.946  59.222 -57.735  1.00  0.00    -0.178 NA
HETATM   24  C   UNL     1     -44.056  55.937 -59.067  1.00  0.00    -0.027 A 
HETATM   25  C   UNL     1     -44.266  54.900 -60.112  1.00  0.00     0.051 C 
HETATM   26  C   UNL     1     -43.086  55.669 -57.962  1.00  0.00     0.127 A 
HETATM   27  C   UNL     1     -44.416  59.621 -56.578  1.00  0.00     0.160 A 
ENDBRANCH   1  18
TORSDOF 7
ENDMDL
MODEL 9
REMARK VINA RESULT:      -6.6     15.438     19.117
REMARK  7 active torsions:
REMARK  status: ('A' for Active; 'I' for Inactive)
REMARK    1  A    between atoms: C_10  and  C_11 
REMARK       I    between atoms: C_11  and  N_12 
REMARK    2  A    between atoms: N_12  and  C_13 
REMARK    3  A    between atoms: C_13  and  C_14 
REMARK    4  A    between atoms: C_14  and  O_15 
REMARK    5  A    between atoms: C_14  and  C_16 
REMARK    6  A    between atoms: C_16  and  O_17 
REMARK    7  A    between atoms: O_17  and  C_18 
ROOT
HETATM    1  C   UNL     1     -32.247  39.776 -49.562  1.00  0.00     0.257 C 
HETATM    2  N   UNL     1     -33.556  40.003 -49.920  1.00  0.00    -0.354 N 
HETATM    3  O   UNL     1     -31.294  40.058 -50.280  1.00  0.00    -0.267 OA
HETATM    4  H   UNL     1     -34.247  39.611 -49.281  1.00  0.00     0.162 HD
ENDROOT
BRANCH   2   5
HETATM    5  C   UNL     1     -34.008  40.307 -51.275  1.00  0.00     0.156 C 
BRANCH   5   6
HETATM    6  C   UNL     1     -35.035  41.447 -51.413  1.00  0.00     0.160 C 
BRANCH   6   7
HETATM    7  O   UNL     1     -34.344  42.690 -51.620  1.00  0.00    -0.392 OA
HETATM    8  H   UNL     1     -34.899  43.206 -52.246  1.00  0.00     0.210 HD
ENDBRANCH   6   7
BRANCH   6   9
HETATM    9  C   UNL     1     -35.943  41.216 -52.632  1.00  0.00     0.209 C 
BRANCH   9  10
HETATM   10  O   UNL     1     -35.963  42.414 -53.420  1.00  0.00    -0.349 OA
BRANCH  10  11
HETATM   11  C   UNL     1     -36.088  42.273 -54.773  1.00  0.00     0.069 A 
HETATM   12  C   UNL     1     -37.364  41.898 -55.204  1.00  0.00     0.038 A 
HETATM   13  C   UNL     1     -37.635  41.715 -56.562  1.00  0.00     0.026 A 
HETATM   14  C   UNL     1     -36.619  41.906 -57.494  1.00  0.00     0.034 A 
HETATM   15 CL   UNL     1     -36.940  41.683 -59.170  1.00  0.00    -0.084 Cl
HETATM   16  C   UNL     1     -35.342  42.274 -57.077  1.00  0.00     0.026 A 
HETATM   17  C   UNL     1     -35.074  42.456 -55.715  1.00  0.00     0.038 A 
ENDBRANCH  10  11
ENDBRANCH   9  10
ENDBRANCH   6   9
ENDBRANCH   5   6
ENDBRANCH   2   5
BRANCH   1  18
HETATM   18  C   UNL     1     -32.056  39.165 -48.263  1.00  0.00     0.098 A 
HETATM   19  C   UNL     1     -31.222  39.559 -47.232  1.00  0.00     0.167 A 
HETATM   20  N   UNL     1     -31.462  38.671 -46.176  1.00  0.00    -0.226 N 
HETATM   21  N   UNL     1     -30.331  40.598 -47.118  1.00  0.00    -0.240 NA
HETATM   22  C   UNL     1     -30.818  38.832 -44.955  1.00  0.00     0.128 A 
HETATM   23  N   UNL     1     -32.367  37.722 -46.509  1.00  0.00    -0.178 NA
HETATM   24  C   UNL     1     -29.953  39.841 -44.765  1.00  0.00    -0.027 A 
HETATM   25  C   UNL     1     -29.218  40.146 -43.510  1.00  0.00     0.051 C 
HETATM   26  C   UNL     1     -29.749  40.717 -45.959  1.00  0.00     0.127 A 
HETATM   27  C   UNL     1     -32.729  38.036 -47.754  1.00  0.00     0.160 A 
ENDBRANCH   1  18
TORSDOF 7
ENDMDL
MODEL 10
REMARK VINA RESULT:      -6.6      3.761      7.920
REMARK  7 active torsions:
REMARK  status: ('A' for Active; 'I' for Inactive)
REMARK    1  A    between atoms: C_10  and  C_11 
REMARK       I    between atoms: C_11  and  N_12 
REMARK    2  A    between atoms: N_12  and  C_13 
REMARK    3  A    between atoms: C_13  and  C_14 
REMARK    4  A    between atoms: C_14  and  O_15 
REMARK    5  A    between atoms: C_14  and  C_16 
REMARK    6  A    between atoms: C_16  and  O_17 
REMARK    7  A    between atoms: O_17  and  C_18 
ROOT
HETATM    1  C   UNL     1     -41.050  54.045 -54.678  1.00  0.00     0.257 C 
HETATM    2  N   UNL     1     -42.312  54.586 -54.587  1.00  0.00    -0.354 N 
HETATM    3  O   UNL     1     -40.348  54.138 -55.680  1.00  0.00    -0.267 OA
HETATM    4  H   UNL     1     -42.825  54.330 -53.744  1.00  0.00     0.162 HD
ENDROOT
BRANCH   2   5
HETATM    5  C   UNL     1     -43.099  55.056 -55.722  1.00  0.00     0.156 C 
BRANCH   5   6
HETATM    6  C   UNL     1     -43.267  56.583 -55.852  1.00  0.00     0.160 C 
BRANCH   6   7
HETATM    7  O   UNL     1     -42.514  57.235 -54.817  1.00  0.00    -0.392 OA
HETATM    8  H   UNL     1     -41.571  57.020 -54.992  1.00  0.00     0.210 HD
ENDBRANCH   6   7
BRANCH   6   9
HETATM    9  C   UNL     1     -42.719  57.077 -57.201  1.00  0.00     0.209 C 
BRANCH   9  10
HETATM   10  O   UNL     1     -42.830  56.013 -58.156  1.00  0.00    -0.349 OA
BRANCH  10  11
HETATM   11  C   UNL     1     -43.918  56.021 -58.982  1.00  0.00     0.069 A 
HETATM   12  C   UNL     1     -44.720  57.162 -58.876  1.00  0.00     0.038 A 
HETATM   13  C   UNL     1     -45.868  57.303 -59.659  1.00  0.00     0.026 A 
HETATM   14  C   UNL     1     -46.216  56.294 -60.552  1.00  0.00     0.034 A 
HETATM   15 CL   UNL     1     -47.628  56.457 -61.522  1.00  0.00    -0.084 Cl
HETATM   16  C   UNL     1     -45.427  55.150 -60.663  1.00  0.00     0.026 A 
HETATM   17  C   UNL     1     -44.278  55.012 -59.876  1.00  0.00     0.038 A 
ENDBRANCH  10  11
ENDBRANCH   9  10
ENDBRANCH   6   9
ENDBRANCH   5   6
ENDBRANCH   2   5
BRANCH   1  18
HETATM   18  C   UNL     1     -40.591  53.339 -53.500  1.00  0.00     0.098 A 
HETATM   19  C   UNL     1     -40.586  53.759 -52.181  1.00  0.00     0.167 A 
HETATM   20  N   UNL     1     -40.102  52.681 -51.431  1.00  0.00    -0.226 N 
HETATM   21  N   UNL     1     -40.979  54.936 -51.593  1.00  0.00    -0.240 NA
HETATM   22  C   UNL     1     -40.028  52.759 -50.045  1.00  0.00     0.128 A 
HETATM   23  N   UNL     1     -39.765  51.630 -52.214  1.00  0.00    -0.178 NA
HETATM   24  C   UNL     1     -40.420  53.869 -49.401  1.00  0.00    -0.027 A 
HETATM   25  C   UNL     1     -40.422  54.079 -47.929  1.00  0.00     0.051 C 
HETATM   26  C   UNL     1     -40.898  54.970 -50.293  1.00  0.00     0.127 A 
HETATM   27  C   UNL     1     -40.076  52.027 -53.449  1.00  0.00     0.160 A 
ENDBRANCH   1  18
TORSDOF 7
ENDMDL
