MODEL 1
REMARK VINA RESULT:      -8.7      0.000      0.000
REMARK  8 active torsions:
REMARK  status: ('A' for Active; 'I' for Inactive)
REMARK    1  A    between atoms: C_2  and  O_3 
REMARK    2  A    between atoms: O_3  and  C_4 
REMARK    3  A    between atoms: C_4  and  C_5 
REMARK    4  A    between atoms: C_6  and  C_7 
REMARK    5  A    between atoms: C_7  and  O_8 
REMARK    6  A    between atoms: O_8  and  C_9 
REMARK    7  A    between atoms: C_9  and  C_10 
REMARK       I    between atoms: C_10  and  N_11 
REMARK       I    between atoms: N_11  and  C_12 
REMARK       I    between atoms: C_12  and  N_13 
REMARK    8  A    between atoms: N_13  and  C_14 
ROOT
HETATM    1  C   UNL     1     -43.314  55.276 -53.313  1.00  0.00     0.282 C 
ENDROOT
BRANCH   1   2
HETATM    2  O   UNL     1     -42.080  55.666 -52.699  1.00  0.00    -0.307 OA
BRANCH   2   3
HETATM    3  C   UNL     1     -40.978  55.343 -53.443  1.00  0.00     0.318 C 
HETATM    4  O   UNL     1     -40.419  56.118 -54.213  1.00  0.00    -0.257 OA
BRANCH   3   5
HETATM    5  C   UNL     1     -40.567  53.987 -53.176  1.00  0.00     0.160 A 
HETATM    6  C   UNL     1     -40.117  53.340 -52.029  1.00  0.00     0.018 A 
HETATM    7  C   UNL     1     -39.916  51.973 -52.402  1.00  0.00     0.009 A 
HETATM    8  C   UNL     1     -40.253  51.886 -53.744  1.00  0.00     0.087 A 
HETATM    9  C   UNL     1     -39.507  50.796 -51.744  1.00  0.00     0.015 A 
HETATM   10  O   UNL     1     -40.651  53.095 -54.210  1.00  0.00    -0.303 OA
HETATM   11  C   UNL     1     -40.201  50.715 -54.496  1.00  0.00     0.038 A 
HETATM   12  C   UNL     1     -39.786  49.561 -53.826  1.00  0.00     0.003 A 
HETATM   13  C   UNL     1     -39.447  49.598 -52.472  1.00  0.00     0.001 A 
BRANCH   6  14
HETATM   14  C   UNL     1     -39.969  53.925 -50.671  1.00  0.00     0.210 C 
BRANCH  14  15
HETATM   15  O   UNL     1     -41.243  53.980 -50.027  1.00  0.00    -0.387 OA
BRANCH  15  16
HETATM   16  C   UNL     1     -41.209  54.751 -48.831  1.00  0.00     0.163 C 
HETATM   17  C   UNL     1     -40.311  54.044 -47.834  1.00  0.00     0.033 C 
ENDBRANCH  15  16
ENDBRANCH  14  15
ENDBRANCH   6  14
ENDBRANCH   3   5
ENDBRANCH   2   3
ENDBRANCH   1   2
BRANCH   1  18
HETATM   18  C   UNL     1     -43.892  56.349 -54.247  1.00  0.00     0.249 C 
HETATM   19  N   UNL     1     -43.728  56.242 -55.609  1.00  0.00    -0.277 N 
HETATM   20  C   UNL     1     -43.147  55.231 -56.325  1.00  0.00     0.327 C 
HETATM   21  H   UNL     1     -43.922  57.105 -56.088  1.00  0.00     0.173 HD
HETATM   22  N   UNL     1     -42.656  55.546 -57.561  1.00  0.00    -0.308 N 
HETATM   23  O   UNL     1     -43.001  54.085 -55.908  1.00  0.00    -0.247 OA
HETATM   24  H   UNL     1     -41.887  54.936 -57.811  1.00  0.00     0.170 HD
HETATM   25  O   UNL     1     -44.467  57.345 -53.795  1.00  0.00    -0.271 OA
BRANCH  22  26
HETATM   26  C   UNL     1     -42.868  56.667 -58.380  1.00  0.00     0.042 A 
HETATM   27  C   UNL     1     -43.681  56.672 -59.527  1.00  0.00    -0.035 A 
HETATM   28  C   UNL     1     -44.371  55.454 -60.080  1.00  0.00     0.050 C 
HETATM   29  C   UNL     1     -43.797  57.865 -60.268  1.00  0.00     0.015 A 
HETATM   30  C   UNL     1     -43.088  59.020 -59.917  1.00  0.00    -0.061 A 
HETATM   31  C   UNL     1     -43.170  60.259 -60.758  1.00  0.00     0.048 C 
HETATM   32  C   UNL     1     -42.233  58.976 -58.815  1.00  0.00     0.009 A 
HETATM   33  C   UNL     1     -42.119  57.808 -58.060  1.00  0.00     0.030 A 
ENDBRANCH  22  26
ENDBRANCH   1  18
TORSDOF 8
ENDMDL
MODEL 2
REMARK VINA RESULT:      -8.5      2.131      3.240
REMARK  8 active torsions:
REMARK  status: ('A' for Active; 'I' for Inactive)
REMARK    1  A    between atoms: C_2  and  O_3 
REMARK    2  A    between atoms: O_3  and  C_4 
REMARK    3  A    between atoms: C_4  and  C_5 
REMARK    4  A    between atoms: C_6  and  C_7 
REMARK    5  A    between atoms: C_7  and  O_8 
REMARK    6  A    between atoms: O_8  and  C_9 
REMARK    7  A    between atoms: C_9  and  C_10 
REMARK       I    between atoms: C_10  and  N_11 
REMARK       I    between atoms: N_11  and  C_12 
REMARK       I    between atoms: C_12  and  N_13 
REMARK    8  A    between atoms: N_13  and  C_14 
ROOT
HETATM    1  C   UNL     1     -43.438  59.299 -53.420  1.00  0.00     0.282 C 
ENDROOT
BRANCH   1   2
HETATM    2  O   UNL     1     -42.729  58.907 -52.239  1.00  0.00    -0.307 OA
BRANCH   2   3
HETATM    3  C   UNL     1     -41.415  58.603 -52.471  1.00  0.00     0.318 C 
HETATM    4  O   UNL     1     -40.508  59.429 -52.464  1.00  0.00    -0.257 OA
BRANCH   3   5
HETATM    5  C   UNL     1     -41.257  57.188 -52.700  1.00  0.00     0.160 A 
HETATM    6  C   UNL     1     -41.587  56.062 -51.952  1.00  0.00     0.018 A 
HETATM    7  C   UNL     1     -41.214  54.935 -52.751  1.00  0.00     0.009 A 
HETATM    8  C   UNL     1     -40.683  55.453 -53.923  1.00  0.00     0.087 A 
HETATM    9  C   UNL     1     -41.289  53.534 -52.619  1.00  0.00     0.015 A 
HETATM   10  O   UNL     1     -40.713  56.807 -53.897  1.00  0.00    -0.303 OA
HETATM   11  C   UNL     1     -40.201  54.682 -54.978  1.00  0.00     0.038 A 
HETATM   12  C   UNL     1     -40.278  53.295 -54.824  1.00  0.00     0.003 A 
HETATM   13  C   UNL     1     -40.816  52.728 -53.666  1.00  0.00     0.001 A 
BRANCH   6  14
HETATM   14  C   UNL     1     -42.275  56.033 -50.634  1.00  0.00     0.210 C 
BRANCH  14  15
HETATM   15  O   UNL     1     -41.306  56.020 -49.585  1.00  0.00    -0.387 OA
BRANCH  15  16
HETATM   16  C   UNL     1     -41.143  54.723 -49.020  1.00  0.00     0.163 C 
HETATM   17  C   UNL     1     -39.731  54.252 -49.312  1.00  0.00     0.033 C 
ENDBRANCH  15  16
ENDBRANCH  14  15
ENDBRANCH   6  14
ENDBRANCH   3   5
ENDBRANCH   2   3
ENDBRANCH   1   2
BRANCH   1  18
HETATM   18  C   UNL     1     -43.869  58.110 -54.291  1.00  0.00     0.249 C 
HETATM   19  N   UNL     1     -43.412  57.999 -55.584  1.00  0.00    -0.277 N 
HETATM   20  C   UNL     1     -42.522  58.797 -56.250  1.00  0.00     0.327 C 
HETATM   21  H   UNL     1     -43.945  57.338 -56.124  1.00  0.00     0.173 HD
HETATM   22  N   UNL     1     -42.595  58.806 -57.615  1.00  0.00    -0.308 N 
HETATM   23  O   UNL     1     -41.705  59.530 -55.698  1.00  0.00    -0.247 OA
HETATM   24  H   UNL     1     -42.271  59.691 -57.988  1.00  0.00     0.170 HD
HETATM   25  O   UNL     1     -44.667  57.266 -53.869  1.00  0.00    -0.271 OA
BRANCH  22  26
HETATM   26  C   UNL     1     -43.240  57.939 -58.511  1.00  0.00     0.042 A 
HETATM   27  C   UNL     1     -44.528  58.148 -59.033  1.00  0.00    -0.035 A 
HETATM   28  C   UNL     1     -45.426  59.291 -58.640  1.00  0.00     0.050 C 
HETATM   29  C   UNL     1     -45.064  57.188 -59.916  1.00  0.00     0.015 A 
HETATM   30  C   UNL     1     -44.366  56.019 -60.241  1.00  0.00    -0.061 A 
HETATM   31  C   UNL     1     -44.982  54.977 -61.128  1.00  0.00     0.048 C 
HETATM   32  C   UNL     1     -43.118  55.796 -59.660  1.00  0.00     0.009 A 
HETATM   33  C   UNL     1     -42.566  56.743 -58.797  1.00  0.00     0.030 A 
ENDBRANCH  22  26
ENDBRANCH   1  18
TORSDOF 8
ENDMDL
MODEL 3
REMARK VINA RESULT:      -8.4      2.163      4.081
REMARK  8 active torsions:
REMARK  status: ('A' for Active; 'I' for Inactive)
REMARK    1  A    between atoms: C_2  and  O_3 
REMARK    2  A    between atoms: O_3  and  C_4 
REMARK    3  A    between atoms: C_4  and  C_5 
REMARK    4  A    between atoms: C_6  and  C_7 
REMARK    5  A    between atoms: C_7  and  O_8 
REMARK    6  A    between atoms: O_8  and  C_9 
REMARK    7  A    between atoms: C_9  and  C_10 
REMARK       I    between atoms: C_10  and  N_11 
REMARK       I    between atoms: N_11  and  C_12 
REMARK       I    between atoms: C_12  and  N_13 
REMARK    8  A    between atoms: N_13  and  C_14 
ROOT
HETATM    1  C   UNL     1     -40.979  58.677 -51.422  1.00  0.00     0.282 C 
ENDROOT
BRANCH   1   2
HETATM    2  O   UNL     1     -40.653  57.353 -50.983  1.00  0.00    -0.307 OA
BRANCH   2   3
HETATM    3  C   UNL     1     -41.694  56.472 -51.095  1.00  0.00     0.318 C 
HETATM    4  O   UNL     1     -42.841  56.718 -50.734  1.00  0.00    -0.257 OA
BRANCH   3   5
HETATM    5  C   UNL     1     -41.254  55.244 -51.709  1.00  0.00     0.160 A 
HETATM    6  C   UNL     1     -41.178  54.817 -53.031  1.00  0.00     0.018 A 
HETATM    7  C   UNL     1     -40.606  53.505 -52.989  1.00  0.00     0.009 A 
HETATM    8  C   UNL     1     -40.379  53.228 -51.649  1.00  0.00     0.087 A 
HETATM    9  C   UNL     1     -40.236  52.534 -53.939  1.00  0.00     0.015 A 
HETATM   10  O   UNL     1     -40.761  54.274 -50.878  1.00  0.00    -0.303 OA
HETATM   11  C   UNL     1     -39.822  52.043 -51.173  1.00  0.00     0.038 A 
HETATM   12  C   UNL     1     -39.469  51.090 -52.133  1.00  0.00     0.003 A 
HETATM   13  C   UNL     1     -39.668  51.331 -53.494  1.00  0.00     0.001 A 
BRANCH   6  14
HETATM   14  C   UNL     1     -41.528  55.600 -54.246  1.00  0.00     0.210 C 
BRANCH  14  15
HETATM   15  O   UNL     1     -42.924  55.903 -54.238  1.00  0.00    -0.387 OA
BRANCH  15  16
HETATM   16  C   UNL     1     -43.726  54.748 -54.462  1.00  0.00     0.163 C 
HETATM   17  C   UNL     1     -43.247  54.076 -55.735  1.00  0.00     0.033 C 
ENDBRANCH  15  16
ENDBRANCH  14  15
ENDBRANCH   6  14
ENDBRANCH   3   5
ENDBRANCH   2   3
ENDBRANCH   1   2
BRANCH   1  18
HETATM   18  C   UNL     1     -40.470  58.989 -52.837  1.00  0.00     0.249 C 
HETATM   19  N   UNL     1     -41.363  59.202 -53.862  1.00  0.00    -0.277 N 
HETATM   20  C   UNL     1     -42.730  59.247 -53.812  1.00  0.00     0.327 C 
HETATM   21  H   UNL     1     -40.928  59.148 -54.767  1.00  0.00     0.173 HD
HETATM   22  N   UNL     1     -43.404  58.974 -54.969  1.00  0.00    -0.308 N 
HETATM   23  O   UNL     1     -43.376  59.468 -52.791  1.00  0.00    -0.247 OA
HETATM   24  H   UNL     1     -44.319  58.586 -54.771  1.00  0.00     0.170 HD
HETATM   25  O   UNL     1     -39.260  59.006 -53.091  1.00  0.00    -0.271 OA
BRANCH  22  26
HETATM   26  C   UNL     1     -42.964  58.915 -56.301  1.00  0.00     0.042 A 
HETATM   27  C   UNL     1     -42.612  60.035 -57.073  1.00  0.00    -0.035 A 
HETATM   28  C   UNL     1     -42.734  61.460 -56.602  1.00  0.00     0.050 C 
HETATM   29  C   UNL     1     -42.198  59.835 -58.406  1.00  0.00     0.015 A 
HETATM   30  C   UNL     1     -42.179  58.561 -58.986  1.00  0.00    -0.061 A 
HETATM   31  C   UNL     1     -41.803  58.376 -60.426  1.00  0.00     0.048 C 
HETATM   32  C   UNL     1     -42.599  57.469 -58.225  1.00  0.00     0.009 A 
HETATM   33  C   UNL     1     -42.995  57.647 -56.899  1.00  0.00     0.030 A 
ENDBRANCH  22  26
ENDBRANCH   1  18
TORSDOF 8
ENDMDL
MODEL 4
REMARK VINA RESULT:      -8.3      2.165      3.163
REMARK  8 active torsions:
REMARK  status: ('A' for Active; 'I' for Inactive)
REMARK    1  A    between atoms: C_2  and  O_3 
REMARK    2  A    between atoms: O_3  and  C_4 
REMARK    3  A    between atoms: C_4  and  C_5 
REMARK    4  A    between atoms: C_6  and  C_7 
REMARK    5  A    between atoms: C_7  and  O_8 
REMARK    6  A    between atoms: O_8  and  C_9 
REMARK    7  A    between atoms: C_9  and  C_10 
REMARK       I    between atoms: C_10  and  N_11 
REMARK       I    between atoms: N_11  and  C_12 
REMARK       I    between atoms: C_12  and  N_13 
REMARK    8  A    between atoms: N_13  and  C_14 
ROOT
HETATM    1  C   UNL     1     -43.093  59.172 -54.933  1.00  0.00     0.282 C 
ENDROOT
BRANCH   1   2
HETATM    2  O   UNL     1     -42.727  58.587 -53.677  1.00  0.00    -0.307 OA
BRANCH   2   3
HETATM    3  C   UNL     1     -41.386  58.338 -53.566  1.00  0.00     0.318 C 
HETATM    4  O   UNL     1     -40.523  59.211 -53.570  1.00  0.00    -0.257 OA
BRANCH   3   5
HETATM    5  C   UNL     1     -41.145  56.923 -53.424  1.00  0.00     0.160 A 
HETATM    6  C   UNL     1     -41.300  56.035 -52.365  1.00  0.00     0.018 A 
HETATM    7  C   UNL     1     -40.932  54.748 -52.873  1.00  0.00     0.009 A 
HETATM    8  C   UNL     1     -40.578  54.945 -54.199  1.00  0.00     0.087 A 
HETATM    9  C   UNL     1     -40.883  53.436 -52.361  1.00  0.00     0.015 A 
HETATM   10  O   UNL     1     -40.711  56.251 -54.535  1.00  0.00    -0.303 OA
HETATM   11  C   UNL     1     -40.160  53.935 -55.062  1.00  0.00     0.038 A 
HETATM   12  C   UNL     1     -40.111  52.642 -54.532  1.00  0.00     0.003 A 
HETATM   13  C   UNL     1     -40.469  52.394 -53.205  1.00  0.00     0.001 A 
BRANCH   6  14
HETATM   14  C   UNL     1     -41.831  56.341 -51.010  1.00  0.00     0.210 C 
BRANCH  14  15
HETATM   15  O   UNL     1     -40.843  56.037 -50.025  1.00  0.00    -0.387 OA
BRANCH  15  16
HETATM   16  C   UNL     1     -41.298  55.068 -49.087  1.00  0.00     0.163 C 
HETATM   17  C   UNL     1     -40.136  54.155 -48.744  1.00  0.00     0.033 C 
ENDBRANCH  15  16
ENDBRANCH  14  15
ENDBRANCH   6  14
ENDBRANCH   3   5
ENDBRANCH   2   3
ENDBRANCH   1   2
BRANCH   1  18
HETATM   18  C   UNL     1     -44.397  58.601 -55.510  1.00  0.00     0.249 C 
HETATM   19  N   UNL     1     -44.381  57.909 -56.699  1.00  0.00    -0.277 N 
HETATM   20  C   UNL     1     -43.309  57.566 -57.477  1.00  0.00     0.327 C 
HETATM   21  H   UNL     1     -45.300  57.805 -57.095  1.00  0.00     0.173 HD
HETATM   22  N   UNL     1     -43.550  57.339 -58.803  1.00  0.00    -0.308 N 
HETATM   23  O   UNL     1     -42.153  57.497 -57.068  1.00  0.00    -0.247 OA
HETATM   24  H   UNL     1     -42.728  57.545 -59.360  1.00  0.00     0.170 HD
HETATM   25  O   UNL     1     -45.481  58.793 -54.949  1.00  0.00    -0.271 OA
BRANCH  22  26
HETATM   26  C   UNL     1     -44.749  57.121 -59.500  1.00  0.00     0.042 A 
HETATM   27  C   UNL     1     -45.212  55.860 -59.912  1.00  0.00    -0.035 A 
HETATM   28  C   UNL     1     -44.444  54.577 -59.733  1.00  0.00     0.050 C 
HETATM   29  C   UNL     1     -46.430  55.784 -60.617  1.00  0.00     0.015 A 
HETATM   30  C   UNL     1     -47.156  56.931 -60.955  1.00  0.00    -0.061 A 
HETATM   31  C   UNL     1     -48.415  56.836 -61.766  1.00  0.00     0.048 C 
HETATM   32  C   UNL     1     -46.646  58.180 -60.597  1.00  0.00     0.009 A 
HETATM   33  C   UNL     1     -45.450  58.272 -59.884  1.00  0.00     0.030 A 
ENDBRANCH  22  26
ENDBRANCH   1  18
TORSDOF 8
ENDMDL
MODEL 5
REMARK VINA RESULT:      -8.2      2.514      4.531
REMARK  8 active torsions:
REMARK  status: ('A' for Active; 'I' for Inactive)
REMARK    1  A    between atoms: C_2  and  O_3 
REMARK    2  A    between atoms: O_3  and  C_4 
REMARK    3  A    between atoms: C_4  and  C_5 
REMARK    4  A    between atoms: C_6  and  C_7 
REMARK    5  A    between atoms: C_7  and  O_8 
REMARK    6  A    between atoms: O_8  and  C_9 
REMARK    7  A    between atoms: C_9  and  C_10 
REMARK       I    between atoms: C_10  and  N_11 
REMARK       I    between atoms: N_11  and  C_12 
REMARK       I    between atoms: C_12  and  N_13 
REMARK    8  A    between atoms: N_13  and  C_14 
ROOT
HETATM    1  C   UNL     1     -41.556  56.180 -49.844  1.00  0.00     0.282 C 
ENDROOT
BRANCH   1   2
HETATM    2  O   UNL     1     -40.480  55.265 -50.082  1.00  0.00    -0.307 OA
BRANCH   2   3
HETATM    3  C   UNL     1     -40.779  53.975 -49.734  1.00  0.00     0.318 C 
HETATM    4  O   UNL     1     -41.148  53.635 -48.615  1.00  0.00    -0.257 OA
BRANCH   3   5
HETATM    5  C   UNL     1     -40.618  53.097 -50.866  1.00  0.00     0.160 A 
HETATM    6  C   UNL     1     -40.939  53.216 -52.214  1.00  0.00     0.018 A 
HETATM    7  C   UNL     1     -40.479  52.013 -52.838  1.00  0.00     0.009 A 
HETATM    8  C   UNL     1     -39.916  51.248 -51.827  1.00  0.00     0.087 A 
HETATM    9  C   UNL     1     -40.458  51.498 -54.149  1.00  0.00     0.015 A 
HETATM   10  O   UNL     1     -39.992  51.900 -50.642  1.00  0.00    -0.303 OA
HETATM   11  C   UNL     1     -39.341  49.993 -52.016  1.00  0.00     0.038 A 
HETATM   12  C   UNL     1     -39.338  49.498 -53.323  1.00  0.00     0.003 A 
HETATM   13  C   UNL     1     -39.884  50.238 -54.374  1.00  0.00     0.001 A 
BRANCH   6  14
HETATM   14  C   UNL     1     -41.548  54.394 -52.888  1.00  0.00     0.210 C 
BRANCH  14  15
HETATM   15  O   UNL     1     -40.526  55.172 -53.515  1.00  0.00    -0.387 OA
BRANCH  15  16
HETATM   16  C   UNL     1     -40.989  55.814 -54.698  1.00  0.00     0.163 C 
HETATM   17  C   UNL     1     -41.602  54.761 -55.602  1.00  0.00     0.033 C 
ENDBRANCH  15  16
ENDBRANCH  14  15
ENDBRANCH   6  14
ENDBRANCH   3   5
ENDBRANCH   2   3
ENDBRANCH   1   2
BRANCH   1  18
HETATM   18  C   UNL     1     -41.595  57.343 -50.848  1.00  0.00     0.249 C 
HETATM   19  N   UNL     1     -42.740  57.599 -51.565  1.00  0.00    -0.277 N 
HETATM   20  C   UNL     1     -43.960  56.984 -51.480  1.00  0.00     0.327 C 
HETATM   21  H   UNL     1     -42.574  58.204 -52.351  1.00  0.00     0.173 HD
HETATM   22  N   UNL     1     -44.766  57.046 -52.582  1.00  0.00    -0.308 N 
HETATM   23  O   UNL     1     -44.346  56.349 -50.502  1.00  0.00    -0.247 OA
HETATM   24  H   UNL     1     -45.384  56.243 -52.623  1.00  0.00     0.170 HD
HETATM   25  O   UNL     1     -40.592  58.032 -51.065  1.00  0.00    -0.271 OA
BRANCH  22  26
HETATM   26  C   UNL     1     -44.707  57.860 -53.724  1.00  0.00     0.042 A 
HETATM   27  C   UNL     1     -45.073  59.217 -53.754  1.00  0.00    -0.035 A 
HETATM   28  C   UNL     1     -45.655  59.962 -52.582  1.00  0.00     0.050 C 
HETATM   29  C   UNL     1     -44.978  59.916 -54.974  1.00  0.00     0.015 A 
HETATM   30  C   UNL     1     -44.578  59.282 -56.155  1.00  0.00    -0.061 A 
HETATM   31  C   UNL     1     -44.549  60.026 -57.457  1.00  0.00     0.048 C 
HETATM   32  C   UNL     1     -44.284  57.918 -56.121  1.00  0.00     0.009 A 
HETATM   33  C   UNL     1     -44.357  57.214 -54.918  1.00  0.00     0.030 A 
ENDBRANCH  22  26
ENDBRANCH   1  18
TORSDOF 8
ENDMDL
MODEL 6
REMARK VINA RESULT:      -8.1      2.201      8.649
REMARK  8 active torsions:
REMARK  status: ('A' for Active; 'I' for Inactive)
REMARK    1  A    between atoms: C_2  and  O_3 
REMARK    2  A    between atoms: O_3  and  C_4 
REMARK    3  A    between atoms: C_4  and  C_5 
REMARK    4  A    between atoms: C_6  and  C_7 
REMARK    5  A    between atoms: C_7  and  O_8 
REMARK    6  A    between atoms: O_8  and  C_9 
REMARK    7  A    between atoms: C_9  and  C_10 
REMARK       I    between atoms: C_10  and  N_11 
REMARK       I    between atoms: N_11  and  C_12 
REMARK       I    between atoms: C_12  and  N_13 
REMARK    8  A    between atoms: N_13  and  C_14 
ROOT
HETATM    1  C   UNL     1     -43.653  58.632 -53.626  1.00  0.00     0.282 C 
ENDROOT
BRANCH   1   2
HETATM    2  O   UNL     1     -43.462  59.353 -54.849  1.00  0.00    -0.307 OA
BRANCH   2   3
HETATM    3  C   UNL     1     -42.149  59.452 -55.222  1.00  0.00     0.318 C 
HETATM    4  O   UNL     1     -41.208  59.414 -54.435  1.00  0.00    -0.257 OA
BRANCH   3   5
HETATM    5  C   UNL     1     -42.038  59.584 -56.653  1.00  0.00     0.160 A 
HETATM    6  C   UNL     1     -42.267  58.707 -57.708  1.00  0.00     0.018 A 
HETATM    7  C   UNL     1     -42.022  59.455 -58.904  1.00  0.00     0.009 A 
HETATM    8  C   UNL     1     -41.661  60.730 -58.492  1.00  0.00     0.087 A 
HETATM    9  C   UNL     1     -42.090  59.200 -60.288  1.00  0.00     0.015 A 
HETATM   10  O   UNL     1     -41.676  60.812 -57.140  1.00  0.00    -0.303 OA
HETATM   11  C   UNL     1     -41.344  61.776 -59.355  1.00  0.00     0.038 A 
HETATM   12  C   UNL     1     -41.410  61.499 -60.723  1.00  0.00     0.003 A 
HETATM   13  C   UNL     1     -41.780  60.233 -61.184  1.00  0.00     0.001 A 
BRANCH   6  14
HETATM   14  C   UNL     1     -42.758  57.306 -57.617  1.00  0.00     0.210 C 
BRANCH  14  15
HETATM   15  O   UNL     1     -44.173  57.279 -57.808  1.00  0.00    -0.387 OA
BRANCH  15  16
HETATM   16  C   UNL     1     -44.535  56.738 -59.074  1.00  0.00     0.163 C 
HETATM   17  C   UNL     1     -43.716  55.482 -59.306  1.00  0.00     0.033 C 
ENDBRANCH  15  16
ENDBRANCH  14  15
ENDBRANCH   6  14
ENDBRANCH   3   5
ENDBRANCH   2   3
ENDBRANCH   1   2
BRANCH   1  18
HETATM   18  C   UNL     1     -43.725  57.111 -53.825  1.00  0.00     0.249 C 
HETATM   19  N   UNL     1     -42.813  56.288 -53.206  1.00  0.00    -0.277 N 
HETATM   20  C   UNL     1     -41.818  56.620 -52.326  1.00  0.00     0.327 C 
HETATM   21  H   UNL     1     -42.802  55.362 -53.599  1.00  0.00     0.173 HD
HETATM   22  N   UNL     1     -40.758  55.763 -52.234  1.00  0.00    -0.308 N 
HETATM   23  O   UNL     1     -41.801  57.653 -51.661  1.00  0.00    -0.247 OA
HETATM   24  H   UNL     1     -39.917  56.257 -51.957  1.00  0.00     0.170 HD
HETATM   25  O   UNL     1     -44.565  56.605 -54.578  1.00  0.00    -0.271 OA
BRANCH  22  26
HETATM   26  C   UNL     1     -40.600  54.439 -52.673  1.00  0.00     0.042 A 
HETATM   27  C   UNL     1     -40.387  53.339 -51.824  1.00  0.00    -0.035 A 
HETATM   28  C   UNL     1     -40.217  53.442 -50.332  1.00  0.00     0.050 C 
HETATM   29  C   UNL     1     -40.232  52.062 -52.399  1.00  0.00     0.015 A 
HETATM   30  C   UNL     1     -40.236  51.875 -53.786  1.00  0.00    -0.061 A 
HETATM   31  C   UNL     1     -40.000  50.518 -54.381  1.00  0.00     0.048 C 
HETATM   32  C   UNL     1     -40.381  52.988 -54.615  1.00  0.00     0.009 A 
HETATM   33  C   UNL     1     -40.553  54.258 -54.062  1.00  0.00     0.030 A 
ENDBRANCH  22  26
ENDBRANCH   1  18
TORSDOF 8
ENDMDL
MODEL 7
REMARK VINA RESULT:      -8.1      2.279      8.189
REMARK  8 active torsions:
REMARK  status: ('A' for Active; 'I' for Inactive)
REMARK    1  A    between atoms: C_2  and  O_3 
REMARK    2  A    between atoms: O_3  and  C_4 
REMARK    3  A    between atoms: C_4  and  C_5 
REMARK    4  A    between atoms: C_6  and  C_7 
REMARK    5  A    between atoms: C_7  and  O_8 
REMARK    6  A    between atoms: O_8  and  C_9 
REMARK    7  A    between atoms: C_9  and  C_10 
REMARK       I    between atoms: C_10  and  N_11 
REMARK       I    between atoms: N_11  and  C_12 
REMARK       I    between atoms: C_12  and  N_13 
REMARK    8  A    between atoms: N_13  and  C_14 
ROOT
HETATM    1  C   UNL     1     -43.779  58.029 -52.861  1.00  0.00     0.282 C 
ENDROOT
BRANCH   1   2
HETATM    2  O   UNL     1     -43.626  58.896 -53.991  1.00  0.00    -0.307 OA
BRANCH   2   3
HETATM    3  C   UNL     1     -42.373  58.855 -54.541  1.00  0.00     0.318 C 
HETATM    4  O   UNL     1     -41.340  59.056 -53.909  1.00  0.00    -0.257 OA
BRANCH   3   5
HETATM    5  C   UNL     1     -42.447  58.525 -55.942  1.00  0.00     0.160 A 
HETATM    6  C   UNL     1     -42.319  59.280 -57.104  1.00  0.00     0.018 A 
HETATM    7  C   UNL     1     -42.449  58.358 -58.190  1.00  0.00     0.009 A 
HETATM    8  C   UNL     1     -42.649  57.112 -57.615  1.00  0.00     0.087 A 
HETATM    9  C   UNL     1     -42.396  58.438 -59.596  1.00  0.00     0.015 A 
HETATM   10  O   UNL     1     -42.642  57.209 -56.264  1.00  0.00    -0.303 OA
HETATM   11  C   UNL     1     -42.818  55.931 -58.333  1.00  0.00     0.038 A 
HETATM   12  C   UNL     1     -42.770  56.034 -59.726  1.00  0.00     0.003 A 
HETATM   13  C   UNL     1     -42.559  57.266 -60.349  1.00  0.00     0.001 A 
BRANCH   6  14
HETATM   14  C   UNL     1     -42.012  60.732 -57.198  1.00  0.00     0.210 C 
BRANCH  14  15
HETATM   15  O   UNL     1     -40.697  60.914 -57.725  1.00  0.00    -0.387 OA
BRANCH  15  16
HETATM   16  C   UNL     1     -40.584  62.111 -58.487  1.00  0.00     0.163 C 
HETATM   17  C   UNL     1     -41.528  62.013 -59.670  1.00  0.00     0.033 C 
ENDBRANCH  15  16
ENDBRANCH  14  15
ENDBRANCH   6  14
ENDBRANCH   3   5
ENDBRANCH   2   3
ENDBRANCH   1   2
BRANCH   1  18
HETATM   18  C   UNL     1     -43.787  56.539 -53.237  1.00  0.00     0.249 C 
HETATM   19  N   UNL     1     -42.838  55.690 -52.718  1.00  0.00    -0.277 N 
HETATM   20  C   UNL     1     -41.855  55.959 -51.805  1.00  0.00     0.327 C 
HETATM   21  H   UNL     1     -42.789  54.818 -53.217  1.00  0.00     0.173 HD
HETATM   22  N   UNL     1     -40.759  55.143 -51.812  1.00  0.00    -0.308 N 
HETATM   23  O   UNL     1     -41.879  56.907 -51.023  1.00  0.00    -0.247 OA
HETATM   24  H   UNL     1     -39.938  55.637 -51.479  1.00  0.00     0.170 HD
HETATM   25  O   UNL     1     -44.607  56.090 -54.045  1.00  0.00    -0.271 OA
BRANCH  22  26
HETATM   26  C   UNL     1     -40.546  53.888 -52.404  1.00  0.00     0.042 A 
HETATM   27  C   UNL     1     -40.349  52.694 -51.688  1.00  0.00    -0.035 A 
HETATM   28  C   UNL     1     -40.258  52.612 -50.188  1.00  0.00     0.050 C 
HETATM   29  C   UNL     1     -40.133  51.502 -52.409  1.00  0.00     0.015 A 
HETATM   30  C   UNL     1     -40.063  51.491 -53.806  1.00  0.00    -0.061 A 
HETATM   31  C   UNL     1     -39.763  50.224 -54.552  1.00  0.00     0.048 C 
HETATM   32  C   UNL     1     -40.193  52.696 -54.497  1.00  0.00     0.009 A 
HETATM   33  C   UNL     1     -40.423  53.883 -53.800  1.00  0.00     0.030 A 
ENDBRANCH  22  26
ENDBRANCH   1  18
TORSDOF 8
ENDMDL
MODEL 8
REMARK VINA RESULT:      -8.0      2.472      3.742
REMARK  8 active torsions:
REMARK  status: ('A' for Active; 'I' for Inactive)
REMARK    1  A    between atoms: C_2  and  O_3 
REMARK    2  A    between atoms: O_3  and  C_4 
REMARK    3  A    between atoms: C_4  and  C_5 
REMARK    4  A    between atoms: C_6  and  C_7 
REMARK    5  A    between atoms: C_7  and  O_8 
REMARK    6  A    between atoms: O_8  and  C_9 
REMARK    7  A    between atoms: C_9  and  C_10 
REMARK       I    between atoms: C_10  and  N_11 
REMARK       I    between atoms: N_11  and  C_12 
REMARK       I    between atoms: C_12  and  N_13 
REMARK    8  A    between atoms: N_13  and  C_14 
ROOT
HETATM    1  C   UNL     1     -42.972  59.920 -51.702  1.00  0.00     0.282 C 
ENDROOT
BRANCH   1   2
HETATM    2  O   UNL     1     -42.885  58.650 -51.044  1.00  0.00    -0.307 OA
BRANCH   2   3
HETATM    3  C   UNL     1     -41.610  58.157 -50.985  1.00  0.00     0.318 C 
HETATM    4  O   UNL     1     -40.694  58.697 -50.374  1.00  0.00    -0.257 OA
BRANCH   3   5
HETATM    5  C   UNL     1     -41.513  56.918 -51.716  1.00  0.00     0.160 A 
HETATM    6  C   UNL     1     -41.982  55.631 -51.472  1.00  0.00     0.018 A 
HETATM    7  C   UNL     1     -41.597  54.849 -52.607  1.00  0.00     0.009 A 
HETATM    8  C   UNL     1     -40.922  55.712 -53.457  1.00  0.00     0.087 A 
HETATM    9  C   UNL     1     -41.766  53.512 -53.017  1.00  0.00     0.015 A 
HETATM   10  O   UNL     1     -40.876  56.958 -52.927  1.00  0.00    -0.303 OA
HETATM   11  C   UNL     1     -40.383  55.344 -54.688  1.00  0.00     0.038 A 
HETATM   12  C   UNL     1     -40.556  54.012 -55.072  1.00  0.00     0.003 A 
HETATM   13  C   UNL     1     -41.239  53.109 -54.253  1.00  0.00     0.001 A 
BRANCH   6  14
HETATM   14  C   UNL     1     -42.799  55.181 -50.313  1.00  0.00     0.210 C 
BRANCH  14  15
HETATM   15  O   UNL     1     -42.072  54.209 -49.561  1.00  0.00    -0.387 OA
BRANCH  15  16
HETATM   16  C   UNL     1     -41.048  54.798 -48.766  1.00  0.00     0.163 C 
HETATM   17  C   UNL     1     -39.712  54.248 -49.228  1.00  0.00     0.033 C 
ENDBRANCH  15  16
ENDBRANCH  14  15
ENDBRANCH   6  14
ENDBRANCH   3   5
ENDBRANCH   2   3
ENDBRANCH   1   2
BRANCH   1  18
HETATM   18  C   UNL     1     -42.534  59.872 -53.173  1.00  0.00     0.249 C 
HETATM   19  N   UNL     1     -43.334  59.265 -54.113  1.00  0.00    -0.277 N 
HETATM   20  C   UNL     1     -44.576  58.713 -53.954  1.00  0.00     0.327 C 
HETATM   21  H   UNL     1     -42.844  59.076 -54.971  1.00  0.00     0.173 HD
HETATM   22  N   UNL     1     -44.954  57.759 -54.856  1.00  0.00    -0.308 N 
HETATM   23  O   UNL     1     -45.341  58.987 -53.032  1.00  0.00    -0.247 OA
HETATM   24  H   UNL     1     -45.613  57.110 -54.443  1.00  0.00     0.170 HD
HETATM   25  O   UNL     1     -41.442  60.328 -53.529  1.00  0.00    -0.271 OA
BRANCH  22  26
HETATM   26  C   UNL     1     -44.419  57.408 -56.107  1.00  0.00     0.042 A 
HETATM   27  C   UNL     1     -44.830  57.962 -57.331  1.00  0.00    -0.035 A 
HETATM   28  C   UNL     1     -45.956  58.951 -57.478  1.00  0.00     0.050 C 
HETATM   29  C   UNL     1     -44.217  57.510 -58.517  1.00  0.00     0.015 A 
HETATM   30  C   UNL     1     -43.254  56.495 -58.506  1.00  0.00    -0.061 A 
HETATM   31  C   UNL     1     -42.664  55.978 -59.785  1.00  0.00     0.048 C 
HETATM   32  C   UNL     1     -42.909  55.908 -57.287  1.00  0.00     0.009 A 
HETATM   33  C   UNL     1     -43.493  56.356 -56.102  1.00  0.00     0.030 A 
ENDBRANCH  22  26
ENDBRANCH   1  18
TORSDOF 8
ENDMDL
MODEL 9
REMARK VINA RESULT:      -7.9      3.425      5.491
REMARK  8 active torsions:
REMARK  status: ('A' for Active; 'I' for Inactive)
REMARK    1  A    between atoms: C_2  and  O_3 
REMARK    2  A    between atoms: O_3  and  C_4 
REMARK    3  A    between atoms: C_4  and  C_5 
REMARK    4  A    between atoms: C_6  and  C_7 
REMARK    5  A    between atoms: C_7  and  O_8 
REMARK    6  A    between atoms: O_8  and  C_9 
REMARK    7  A    between atoms: C_9  and  C_10 
REMARK       I    between atoms: C_10  and  N_11 
REMARK       I    between atoms: N_11  and  C_12 
REMARK       I    between atoms: C_12  and  N_13 
REMARK    8  A    between atoms: N_13  and  C_14 
ROOT
HETATM    1  C   UNL     1     -41.654  55.899 -49.739  1.00  0.00     0.282 C 
ENDROOT
BRANCH   1   2
HETATM    2  O   UNL     1     -41.593  54.468 -49.762  1.00  0.00    -0.307 OA
BRANCH   2   3
HETATM    3  C   UNL     1     -40.321  53.981 -49.890  1.00  0.00     0.318 C 
HETATM    4  O   UNL     1     -39.399  54.263 -49.130  1.00  0.00    -0.257 OA
BRANCH   3   5
HETATM    5  C   UNL     1     -40.232  53.089 -51.019  1.00  0.00     0.160 A 
HETATM    6  C   UNL     1     -40.388  53.272 -52.389  1.00  0.00     0.018 A 
HETATM    7  C   UNL     1     -40.125  51.999 -52.989  1.00  0.00     0.009 A 
HETATM    8  C   UNL     1     -39.832  51.135 -51.945  1.00  0.00     0.087 A 
HETATM    9  C   UNL     1     -40.081  51.491 -54.303  1.00  0.00     0.015 A 
HETATM   10  O   UNL     1     -39.889  51.789 -50.760  1.00  0.00    -0.303 OA
HETATM   11  C   UNL     1     -39.511  49.789 -52.103  1.00  0.00     0.038 A 
HETATM   12  C   UNL     1     -39.480  49.304 -53.413  1.00  0.00     0.003 A 
HETATM   13  C   UNL     1     -39.757  50.140 -54.497  1.00  0.00     0.001 A 
BRANCH   6  14
HETATM   14  C   UNL     1     -40.674  54.549 -53.095  1.00  0.00     0.210 C 
BRANCH  14  15
HETATM   15  O   UNL     1     -41.993  54.511 -53.643  1.00  0.00    -0.387 OA
BRANCH  15  16
HETATM   16  C   UNL     1     -41.994  54.697 -55.055  1.00  0.00     0.163 C 
HETATM   17  C   UNL     1     -43.253  54.064 -55.617  1.00  0.00     0.033 C 
ENDBRANCH  15  16
ENDBRANCH  14  15
ENDBRANCH   6  14
ENDBRANCH   3   5
ENDBRANCH   2   3
ENDBRANCH   1   2
BRANCH   1  18
HETATM   18  C   UNL     1     -42.636  56.480 -50.768  1.00  0.00     0.249 C 
HETATM   19  N   UNL     1     -42.374  57.690 -51.367  1.00  0.00    -0.277 N 
HETATM   20  C   UNL     1     -41.271  58.490 -51.236  1.00  0.00     0.327 C 
HETATM   21  H   UNL     1     -43.185  58.079 -51.818  1.00  0.00     0.173 HD
HETATM   22  N   UNL     1     -41.431  59.820 -51.507  1.00  0.00    -0.308 N 
HETATM   23  O   UNL     1     -40.174  58.095 -50.849  1.00  0.00    -0.247 OA
HETATM   24  H   UNL     1     -40.772  60.379 -50.979  1.00  0.00     0.170 HD
HETATM   25  O   UNL     1     -43.695  55.902 -51.036  1.00  0.00    -0.271 OA
BRANCH  22  26
HETATM   26  C   UNL     1     -42.461  60.510 -52.167  1.00  0.00     0.042 A 
HETATM   27  C   UNL     1     -43.565  61.095 -51.525  1.00  0.00    -0.035 A 
HETATM   28  C   UNL     1     -43.837  60.993 -50.048  1.00  0.00     0.050 C 
HETATM   29  C   UNL     1     -44.536  61.750 -52.310  1.00  0.00     0.015 A 
HETATM   30  C   UNL     1     -44.449  61.785 -53.707  1.00  0.00    -0.061 A 
HETATM   31  C   UNL     1     -45.527  62.425 -54.530  1.00  0.00     0.048 C 
HETATM   32  C   UNL     1     -43.381  61.139 -54.331  1.00  0.00     0.009 A 
HETATM   33  C   UNL     1     -42.403  60.501 -53.568  1.00  0.00     0.030 A 
ENDBRANCH  22  26
ENDBRANCH   1  18
TORSDOF 8
ENDMDL
MODEL 10
REMARK VINA RESULT:      -7.9      5.860      8.506
REMARK  8 active torsions:
REMARK  status: ('A' for Active; 'I' for Inactive)
REMARK    1  A    between atoms: C_2  and  O_3 
REMARK    2  A    between atoms: O_3  and  C_4 
REMARK    3  A    between atoms: C_4  and  C_5 
REMARK    4  A    between atoms: C_6  and  C_7 
REMARK    5  A    between atoms: C_7  and  O_8 
REMARK    6  A    between atoms: O_8  and  C_9 
REMARK    7  A    between atoms: C_9  and  C_10 
REMARK       I    between atoms: C_10  and  N_11 
REMARK       I    between atoms: N_11  and  C_12 
REMARK       I    between atoms: C_12  and  N_13 
REMARK    8  A    between atoms: N_13  and  C_14 
ROOT
HETATM    1  C   UNL     1     -43.184  59.861 -51.829  1.00  0.00     0.282 C 
ENDROOT
BRANCH   1   2
HETATM    2  O   UNL     1     -42.514  58.672 -52.264  1.00  0.00    -0.307 OA
BRANCH   2   3
HETATM    3  C   UNL     1     -43.245  57.533 -52.061  1.00  0.00     0.318 C 
HETATM    4  O   UNL     1     -44.396  57.523 -51.636  1.00  0.00    -0.257 OA
BRANCH   3   5
HETATM    5  C   UNL     1     -42.481  56.369 -52.436  1.00  0.00     0.160 A 
HETATM    6  C   UNL     1     -42.126  55.207 -51.759  1.00  0.00     0.018 A 
HETATM    7  C   UNL     1     -41.396  54.410 -52.698  1.00  0.00     0.009 A 
HETATM    8  C   UNL     1     -41.357  55.143 -53.875  1.00  0.00     0.087 A 
HETATM    9  C   UNL     1     -40.786  53.141 -52.686  1.00  0.00     0.015 A 
HETATM   10  O   UNL     1     -42.013  56.318 -53.722  1.00  0.00    -0.303 OA
HETATM   11  C   UNL     1     -40.740  54.717 -55.048  1.00  0.00     0.038 A 
HETATM   12  C   UNL     1     -40.134  53.458 -55.013  1.00  0.00     0.003 A 
HETATM   13  C   UNL     1     -40.159  52.679 -53.853  1.00  0.00     0.001 A 
BRANCH   6  14
HETATM   14  C   UNL     1     -42.508  54.827 -50.373  1.00  0.00     0.210 C 
BRANCH  14  15
HETATM   15  O   UNL     1     -41.639  55.470 -49.440  1.00  0.00    -0.387 OA
BRANCH  15  16
HETATM   16  C   UNL     1     -40.902  54.536 -48.659  1.00  0.00     0.163 C 
HETATM   17  C   UNL     1     -39.603  54.232 -49.382  1.00  0.00     0.033 C 
ENDBRANCH  15  16
ENDBRANCH  14  15
ENDBRANCH   6  14
ENDBRANCH   3   5
ENDBRANCH   2   3
ENDBRANCH   1   2
BRANCH   1  18
HETATM   18  C   UNL     1     -42.813  60.277 -50.398  1.00  0.00     0.249 C 
HETATM   19  N   UNL     1     -43.792  60.682 -49.520  1.00  0.00    -0.277 N 
HETATM   20  C   UNL     1     -45.148  60.718 -49.705  1.00  0.00     0.327 C 
HETATM   21  H   UNL     1     -43.415  61.158 -48.718  1.00  0.00     0.173 HD
HETATM   22  N   UNL     1     -45.858  61.590 -48.929  1.00  0.00    -0.308 N 
HETATM   23  O   UNL     1     -45.747  60.055 -50.548  1.00  0.00    -0.247 OA
HETATM   24  H   UNL     1     -46.703  61.889 -49.403  1.00  0.00     0.170 HD
HETATM   25  O   UNL     1     -41.635  60.304 -50.026  1.00  0.00    -0.271 OA
BRANCH  22  26
HETATM   26  C   UNL     1     -45.505  62.288 -47.763  1.00  0.00     0.042 A 
HETATM   27  C   UNL     1     -45.523  61.736 -46.470  1.00  0.00    -0.035 A 
HETATM   28  C   UNL     1     -46.000  60.344 -46.150  1.00  0.00     0.050 C 
HETATM   29  C   UNL     1     -45.156  62.553 -45.382  1.00  0.00     0.015 A 
HETATM   30  C   UNL     1     -44.825  63.902 -45.554  1.00  0.00    -0.061 A 
HETATM   31  C   UNL     1     -44.505  64.773 -44.376  1.00  0.00     0.048 C 
HETATM   32  C   UNL     1     -44.880  64.450 -46.836  1.00  0.00     0.009 A 
HETATM   33  C   UNL     1     -45.225  63.651 -47.927  1.00  0.00     0.030 A 
ENDBRANCH  22  26
ENDBRANCH   1  18
TORSDOF 8
ENDMDL
