MODEL 1
REMARK VINA RESULT:      -8.5      0.000      0.000
REMARK  7 active torsions:
REMARK  status: ('A' for Active; 'I' for Inactive)
REMARK    1  A    between atoms: C_2  and  N_3 
REMARK    2  A    between atoms: C_2  and  C_19 
REMARK       I    between atoms: N_3  and  C_4 
REMARK       I    between atoms: C_4  and  N_5 
REMARK    3  A    between atoms: N_5  and  C_6 
REMARK    4  A    between atoms: N_8  and  C_9 
REMARK    5  A    between atoms: C_9  and  C_10 
REMARK    6  A    between atoms: C_19  and  C_20 
REMARK    7  A    between atoms: C_23  and  O_24 
ROOT
HETATM    1  N   UNL     1     -42.077  54.581 -51.464  1.00  0.00    -0.338 N 
HETATM    2  C   UNL     1     -43.358  54.311 -51.826  1.00  0.00     0.322 C 
HETATM    3  N   UNL     1     -43.886  55.061 -52.834  1.00  0.00    -0.292 N 
HETATM    4  O   UNL     1     -44.056  53.455 -51.286  1.00  0.00    -0.247 OA
HETATM    5  H   UNL     1     -41.609  55.270 -52.052  1.00  0.00     0.164 HD
HETATM    6  H   UNL     1     -44.856  54.861 -53.026  1.00  0.00     0.172 HD
ENDROOT
BRANCH   1   7
HETATM    7  C   UNL     1     -41.295  53.864 -50.466  1.00  0.00     0.086 C 
HETATM    8  C   UNL     1     -41.209  54.667 -49.168  1.00  0.00     0.032 C 
BRANCH   7   9
HETATM    9  C   UNL     1     -39.887  53.444 -50.940  1.00  0.00     0.063 C 
BRANCH   9  10
HETATM   10  C   UNL     1     -39.895  52.349 -51.982  1.00  0.00    -0.056 A 
HETATM   11  C   UNL     1     -39.573  51.031 -51.624  1.00  0.00     0.010 A 
HETATM   12  C   UNL     1     -39.579  50.013 -52.579  1.00  0.00     0.037 A 
HETATM   13  C   UNL     1     -39.910  50.315 -53.896  1.00  0.00     0.065 A 
HETATM   14  C   UNL     1     -40.230  51.614 -54.271  1.00  0.00     0.037 A 
HETATM   15  C   UNL     1     -40.221  52.631 -53.316  1.00  0.00     0.010 A 
BRANCH  13  16
HETATM   16  O   UNL     1     -39.933  49.349 -54.860  1.00  0.00    -0.361 OA
HETATM   17  H   UNL     1     -39.560  48.536 -54.484  1.00  0.00     0.217 HD
ENDBRANCH  13  16
ENDBRANCH   9  10
ENDBRANCH   7   9
ENDBRANCH   1   7
BRANCH   3  18
HETATM   18  C   UNL     1     -43.266  56.003 -53.624  1.00  0.00     0.153 A 
HETATM   19  N   UNL     1     -42.794  57.176 -53.185  1.00  0.00    -0.154 NA
HETATM   20  N   UNL     1     -42.260  57.754 -54.281  1.00  0.00    -0.275 N 
HETATM   21  C   UNL     1     -42.371  56.983 -55.402  1.00  0.00     0.116 A 
HETATM   22  C   UNL     1     -43.025  55.839 -55.008  1.00  0.00     0.071 A 
BRANCH  20  23
HETATM   23  C   UNL     1     -41.568  59.032 -54.170  1.00  0.00     0.189 C 
BRANCH  23  24
HETATM   24  C   UNL     1     -41.136  59.319 -52.755  1.00  0.00    -0.038 A 
HETATM   25  C   UNL     1     -41.987  60.005 -51.876  1.00  0.00     0.009 A 
HETATM   26  C   UNL     1     -41.594  60.258 -50.561  1.00  0.00     0.001 A 
HETATM   27  C   UNL     1     -40.348  59.828 -50.111  1.00  0.00     0.000 A 
HETATM   28  C   UNL     1     -39.493  59.146 -50.974  1.00  0.00     0.001 A 
HETATM   29  C   UNL     1     -39.884  58.893 -52.290  1.00  0.00     0.009 A 
ENDBRANCH  23  24
ENDBRANCH  20  23
ENDBRANCH   3  18
TORSDOF 7
ENDMDL
MODEL 2
REMARK VINA RESULT:      -8.4      2.488      4.305
REMARK  7 active torsions:
REMARK  status: ('A' for Active; 'I' for Inactive)
REMARK    1  A    between atoms: C_2  and  N_3 
REMARK    2  A    between atoms: C_2  and  C_19 
REMARK       I    between atoms: N_3  and  C_4 
REMARK       I    between atoms: C_4  and  N_5 
REMARK    3  A    between atoms: N_5  and  C_6 
REMARK    4  A    between atoms: N_8  and  C_9 
REMARK    5  A    between atoms: C_9  and  C_10 
REMARK    6  A    between atoms: C_19  and  C_20 
REMARK    7  A    between atoms: C_23  and  O_24 
ROOT
HETATM    1  N   UNL     1     -42.025  54.324 -51.710  1.00  0.00    -0.338 N 
HETATM    2  C   UNL     1     -43.374  54.192 -51.788  1.00  0.00     0.322 C 
HETATM    3  N   UNL     1     -43.969  54.595 -52.946  1.00  0.00    -0.292 N 
HETATM    4  O   UNL     1     -44.073  53.754 -50.875  1.00  0.00    -0.247 OA
HETATM    5  H   UNL     1     -41.581  54.636 -52.573  1.00  0.00     0.164 HD
HETATM    6  H   UNL     1     -44.975  54.530 -52.932  1.00  0.00     0.172 HD
ENDROOT
BRANCH   1   7
HETATM    7  C   UNL     1     -41.180  53.897 -50.603  1.00  0.00     0.086 C 
HETATM    8  C   UNL     1     -41.066  55.004 -49.553  1.00  0.00     0.032 C 
BRANCH   7   9
HETATM    9  C   UNL     1     -39.781  53.399 -51.022  1.00  0.00     0.063 C 
BRANCH   9  10
HETATM   10  C   UNL     1     -39.811  52.287 -52.045  1.00  0.00    -0.056 A 
HETATM   11  C   UNL     1     -39.585  50.959 -51.653  1.00  0.00     0.010 A 
HETATM   12  C   UNL     1     -39.612  49.925 -52.590  1.00  0.00     0.037 A 
HETATM   13  C   UNL     1     -39.868  50.221 -53.925  1.00  0.00     0.065 A 
HETATM   14  C   UNL     1     -40.091  51.530 -54.335  1.00  0.00     0.037 A 
HETATM   15  C   UNL     1     -40.062  52.563 -53.397  1.00  0.00     0.010 A 
BRANCH  13  16
HETATM   16  O   UNL     1     -39.908  49.241 -54.873  1.00  0.00    -0.361 OA
HETATM   17  H   UNL     1     -39.024  49.162 -55.266  1.00  0.00     0.217 HD
ENDBRANCH  13  16
ENDBRANCH   9  10
ENDBRANCH   7   9
ENDBRANCH   1   7
BRANCH   3  18
HETATM   18  C   UNL     1     -43.379  55.031 -54.111  1.00  0.00     0.153 A 
HETATM   19  N   UNL     1     -43.294  56.311 -54.490  1.00  0.00    -0.154 NA
HETATM   20  N   UNL     1     -42.631  56.269 -55.665  1.00  0.00    -0.275 N 
HETATM   21  C   UNL     1     -42.285  55.003 -56.041  1.00  0.00     0.116 A 
HETATM   22  C   UNL     1     -42.762  54.175 -55.053  1.00  0.00     0.071 A 
BRANCH  20  23
HETATM   23  C   UNL     1     -42.276  57.507 -56.348  1.00  0.00     0.189 C 
BRANCH  23  24
HETATM   24  C   UNL     1     -42.826  57.556 -57.750  1.00  0.00    -0.038 A 
HETATM   25  C   UNL     1     -41.973  57.773 -58.843  1.00  0.00     0.009 A 
HETATM   26  C   UNL     1     -42.479  57.804 -60.143  1.00  0.00     0.001 A 
HETATM   27  C   UNL     1     -43.842  57.619 -60.365  1.00  0.00     0.000 A 
HETATM   28  C   UNL     1     -44.701  57.404 -59.289  1.00  0.00     0.001 A 
HETATM   29  C   UNL     1     -44.196  57.374 -57.987  1.00  0.00     0.009 A 
ENDBRANCH  23  24
ENDBRANCH  20  23
ENDBRANCH   3  18
TORSDOF 7
ENDMDL
MODEL 3
REMARK VINA RESULT:      -8.2      1.754      2.509
REMARK  7 active torsions:
REMARK  status: ('A' for Active; 'I' for Inactive)
REMARK    1  A    between atoms: C_2  and  N_3 
REMARK    2  A    between atoms: C_2  and  C_19 
REMARK       I    between atoms: N_3  and  C_4 
REMARK       I    between atoms: C_4  and  N_5 
REMARK    3  A    between atoms: N_5  and  C_6 
REMARK    4  A    between atoms: N_8  and  C_9 
REMARK    5  A    between atoms: C_9  and  C_10 
REMARK    6  A    between atoms: C_19  and  C_20 
REMARK    7  A    between atoms: C_23  and  O_24 
ROOT
HETATM    1  N   UNL     1     -42.543  55.256 -54.408  1.00  0.00    -0.338 N 
HETATM    2  C   UNL     1     -43.161  54.910 -55.567  1.00  0.00     0.322 C 
HETATM    3  N   UNL     1     -43.421  55.913 -56.452  1.00  0.00    -0.292 N 
HETATM    4  O   UNL     1     -43.509  53.763 -55.841  1.00  0.00    -0.247 OA
HETATM    5  H   UNL     1     -42.255  56.233 -54.359  1.00  0.00     0.164 HD
HETATM    6  H   UNL     1     -43.931  55.615 -57.269  1.00  0.00     0.172 HD
ENDROOT
BRANCH   1   7
HETATM    7  C   UNL     1     -42.110  54.344 -53.358  1.00  0.00     0.086 C 
HETATM    8  C   UNL     1     -42.586  54.833 -51.989  1.00  0.00     0.032 C 
BRANCH   7   9
HETATM    9  C   UNL     1     -40.592  54.066 -53.339  1.00  0.00     0.063 C 
BRANCH   9  10
HETATM   10  C   UNL     1     -40.241  52.611 -53.130  1.00  0.00    -0.056 A 
HETATM   11  C   UNL     1     -40.350  51.699 -54.191  1.00  0.00     0.010 A 
HETATM   12  C   UNL     1     -40.027  50.353 -54.009  1.00  0.00     0.037 A 
HETATM   13  C   UNL     1     -39.591  49.919 -52.762  1.00  0.00     0.065 A 
HETATM   14  C   UNL     1     -39.479  50.805 -51.697  1.00  0.00     0.037 A 
HETATM   15  C   UNL     1     -39.805  52.150 -51.880  1.00  0.00     0.010 A 
BRANCH  13  16
HETATM   16  O   UNL     1     -39.260  48.614 -52.541  1.00  0.00    -0.361 OA
HETATM   17  H   UNL     1     -39.583  48.088 -53.291  1.00  0.00     0.217 HD
ENDBRANCH  13  16
ENDBRANCH   9  10
ENDBRANCH   7   9
ENDBRANCH   1   7
BRANCH   3  18
HETATM   18  C   UNL     1     -43.049  57.237 -56.387  1.00  0.00     0.153 A 
HETATM   19  N   UNL     1     -43.251  58.036 -55.332  1.00  0.00    -0.154 NA
HETATM   20  N   UNL     1     -42.716  59.219 -55.701  1.00  0.00    -0.275 N 
HETATM   21  C   UNL     1     -42.174  59.196 -56.953  1.00  0.00     0.116 A 
HETATM   22  C   UNL     1     -42.378  57.922 -57.428  1.00  0.00     0.071 A 
BRANCH  20  23
HETATM   23  C   UNL     1     -42.678  60.329 -54.756  1.00  0.00     0.189 C 
BRANCH  23  24
HETATM   24  C   UNL     1     -42.021  59.942 -53.457  1.00  0.00    -0.038 A 
HETATM   25  C   UNL     1     -42.570  60.351 -52.232  1.00  0.00     0.009 A 
HETATM   26  C   UNL     1     -41.970  59.981 -51.027  1.00  0.00     0.001 A 
HETATM   27  C   UNL     1     -40.818  59.198 -51.034  1.00  0.00     0.000 A 
HETATM   28  C   UNL     1     -40.262  58.786 -52.242  1.00  0.00     0.001 A 
HETATM   29  C   UNL     1     -40.860  59.156 -53.449  1.00  0.00     0.009 A 
ENDBRANCH  23  24
ENDBRANCH  20  23
ENDBRANCH   3  18
TORSDOF 7
ENDMDL
MODEL 4
REMARK VINA RESULT:      -8.2      2.632      7.430
REMARK  7 active torsions:
REMARK  status: ('A' for Active; 'I' for Inactive)
REMARK    1  A    between atoms: C_2  and  N_3 
REMARK    2  A    between atoms: C_2  and  C_19 
REMARK       I    between atoms: N_3  and  C_4 
REMARK       I    between atoms: C_4  and  N_5 
REMARK    3  A    between atoms: N_5  and  C_6 
REMARK    4  A    between atoms: N_8  and  C_9 
REMARK    5  A    between atoms: C_9  and  C_10 
REMARK    6  A    between atoms: C_19  and  C_20 
REMARK    7  A    between atoms: C_23  and  O_24 
ROOT
HETATM    1  N   UNL     1     -43.294  57.687 -54.801  1.00  0.00    -0.338 N 
HETATM    2  C   UNL     1     -44.500  57.066 -54.741  1.00  0.00     0.322 C 
HETATM    3  N   UNL     1     -44.515  55.788 -54.268  1.00  0.00    -0.292 N 
HETATM    4  O   UNL     1     -45.555  57.583 -55.106  1.00  0.00    -0.247 OA
HETATM    5  H   UNL     1     -42.525  57.153 -54.398  1.00  0.00     0.164 HD
HETATM    6  H   UNL     1     -45.424  55.352 -54.298  1.00  0.00     0.172 HD
ENDROOT
BRANCH   1   7
HETATM    7  C   UNL     1     -43.054  59.065 -55.206  1.00  0.00     0.086 C 
HETATM    8  C   UNL     1     -43.158  59.208 -56.725  1.00  0.00     0.032 C 
BRANCH   7   9
HETATM    9  C   UNL     1     -41.726  59.659 -54.693  1.00  0.00     0.063 C 
BRANCH   9  10
HETATM   10  C   UNL     1     -41.544  59.546 -53.196  1.00  0.00    -0.056 A 
HETATM   11  C   UNL     1     -42.464  60.148 -52.326  1.00  0.00     0.010 A 
HETATM   12  C   UNL     1     -42.306  60.048 -50.942  1.00  0.00     0.037 A 
HETATM   13  C   UNL     1     -41.222  59.342 -50.429  1.00  0.00     0.065 A 
HETATM   14  C   UNL     1     -40.298  58.741 -51.275  1.00  0.00     0.037 A 
HETATM   15  C   UNL     1     -40.457  58.844 -52.658  1.00  0.00     0.010 A 
BRANCH  13  16
HETATM   16  O   UNL     1     -41.032  59.215 -49.084  1.00  0.00    -0.361 OA
HETATM   17  H   UNL     1     -41.468  59.963 -48.644  1.00  0.00     0.217 HD
ENDBRANCH  13  16
ENDBRANCH   9  10
ENDBRANCH   7   9
ENDBRANCH   1   7
BRANCH   3  18
HETATM   18  C   UNL     1     -43.479  55.055 -53.735  1.00  0.00     0.153 A 
HETATM   19  N   UNL     1     -42.348  54.747 -54.383  1.00  0.00    -0.154 NA
HETATM   20  N   UNL     1     -41.625  54.049 -53.482  1.00  0.00    -0.275 N 
HETATM   21  C   UNL     1     -42.257  53.908 -52.280  1.00  0.00     0.116 A 
HETATM   22  C   UNL     1     -43.466  54.548 -52.414  1.00  0.00     0.071 A 
BRANCH  20  23
HETATM   23  C   UNL     1     -40.275  53.610 -53.813  1.00  0.00     0.189 C 
BRANCH  23  24
HETATM   24  C   UNL     1     -40.040  52.171 -53.431  1.00  0.00    -0.038 A 
HETATM   25  C   UNL     1     -39.638  51.837 -52.129  1.00  0.00     0.009 A 
HETATM   26  C   UNL     1     -39.434  50.503 -51.770  1.00  0.00     0.001 A 
HETATM   27  C   UNL     1     -39.630  49.491 -52.708  1.00  0.00     0.000 A 
HETATM   28  C   UNL     1     -40.027  49.810 -54.004  1.00  0.00     0.001 A 
HETATM   29  C   UNL     1     -40.231  51.143 -54.366  1.00  0.00     0.009 A 
ENDBRANCH  23  24
ENDBRANCH  20  23
ENDBRANCH   3  18
TORSDOF 7
ENDMDL
MODEL 5
REMARK VINA RESULT:      -8.2      1.665      2.513
REMARK  7 active torsions:
REMARK  status: ('A' for Active; 'I' for Inactive)
REMARK    1  A    between atoms: C_2  and  N_3 
REMARK    2  A    between atoms: C_2  and  C_19 
REMARK       I    between atoms: N_3  and  C_4 
REMARK       I    between atoms: C_4  and  N_5 
REMARK    3  A    between atoms: N_5  and  C_6 
REMARK    4  A    between atoms: N_8  and  C_9 
REMARK    5  A    between atoms: C_9  and  C_10 
REMARK    6  A    between atoms: C_19  and  C_20 
REMARK    7  A    between atoms: C_23  and  O_24 
ROOT
HETATM    1  N   UNL     1     -42.972  55.177 -53.940  1.00  0.00    -0.338 N 
HETATM    2  C   UNL     1     -43.374  54.954 -55.218  1.00  0.00     0.322 C 
HETATM    3  N   UNL     1     -43.794  56.037 -55.931  1.00  0.00    -0.292 N 
HETATM    4  O   UNL     1     -43.398  53.843 -55.744  1.00  0.00    -0.247 OA
HETATM    5  H   UNL     1     -42.944  56.160 -53.672  1.00  0.00     0.164 HD
HETATM    6  H   UNL     1     -44.135  55.811 -56.853  1.00  0.00     0.172 HD
ENDROOT
BRANCH   1   7
HETATM    7  C   UNL     1     -42.425  54.185 -53.024  1.00  0.00     0.086 C 
HETATM    8  C   UNL     1     -42.867  54.475 -51.588  1.00  0.00     0.032 C 
BRANCH   7   9
HETATM    9  C   UNL     1     -40.892  54.024 -53.099  1.00  0.00     0.063 C 
BRANCH   9  10
HETATM   10  C   UNL     1     -40.424  52.590 -52.995  1.00  0.00    -0.056 A 
HETATM   11  C   UNL     1     -40.456  51.752 -54.120  1.00  0.00     0.010 A 
HETATM   12  C   UNL     1     -40.025  50.427 -54.034  1.00  0.00     0.037 A 
HETATM   13  C   UNL     1     -39.559  49.940 -52.817  1.00  0.00     0.065 A 
HETATM   14  C   UNL     1     -39.522  50.752 -51.690  1.00  0.00     0.037 A 
HETATM   15  C   UNL     1     -39.955  52.076 -51.778  1.00  0.00     0.010 A 
BRANCH  13  16
HETATM   16  O   UNL     1     -39.123  48.653 -52.690  1.00  0.00    -0.361 OA
HETATM   17  H   UNL     1     -39.273  48.371 -51.773  1.00  0.00     0.217 HD
ENDBRANCH  13  16
ENDBRANCH   9  10
ENDBRANCH   7   9
ENDBRANCH   1   7
BRANCH   3  18
HETATM   18  C   UNL     1     -43.772  57.366 -55.573  1.00  0.00     0.153 A 
HETATM   19  N   UNL     1     -42.733  57.985 -54.999  1.00  0.00    -0.154 NA
HETATM   20  N   UNL     1     -43.144  59.261 -54.848  1.00  0.00    -0.275 N 
HETATM   21  C   UNL     1     -44.409  59.476 -55.314  1.00  0.00     0.116 A 
HETATM   22  C   UNL     1     -44.846  58.261 -55.787  1.00  0.00     0.071 A 
BRANCH  20  23
HETATM   23  C   UNL     1     -42.229  60.266 -54.321  1.00  0.00     0.189 C 
BRANCH  23  24
HETATM   24  C   UNL     1     -41.805  59.958 -52.908  1.00  0.00    -0.038 A 
HETATM   25  C   UNL     1     -40.686  59.148 -52.661  1.00  0.00     0.009 A 
HETATM   26  C   UNL     1     -40.284  58.874 -51.353  1.00  0.00     0.001 A 
HETATM   27  C   UNL     1     -40.995  59.406 -50.279  1.00  0.00     0.000 A 
HETATM   28  C   UNL     1     -42.108  60.210 -50.510  1.00  0.00     0.001 A 
HETATM   29  C   UNL     1     -42.513  60.485 -51.818  1.00  0.00     0.009 A 
ENDBRANCH  23  24
ENDBRANCH  20  23
ENDBRANCH   3  18
TORSDOF 7
ENDMDL
MODEL 6
REMARK VINA RESULT:      -8.1      3.092      5.460
REMARK  7 active torsions:
REMARK  status: ('A' for Active; 'I' for Inactive)
REMARK    1  A    between atoms: C_2  and  N_3 
REMARK    2  A    between atoms: C_2  and  C_19 
REMARK       I    between atoms: N_3  and  C_4 
REMARK       I    between atoms: C_4  and  N_5 
REMARK    3  A    between atoms: N_5  and  C_6 
REMARK    4  A    between atoms: N_8  and  C_9 
REMARK    5  A    between atoms: C_9  and  C_10 
REMARK    6  A    between atoms: C_19  and  C_20 
REMARK    7  A    between atoms: C_23  and  O_24 
ROOT
HETATM    1  N   UNL     1     -42.704  55.747 -53.826  1.00  0.00    -0.338 N 
HETATM    2  C   UNL     1     -42.605  56.901 -53.117  1.00  0.00     0.322 C 
HETATM    3  N   UNL     1     -43.099  58.029 -53.701  1.00  0.00    -0.292 N 
HETATM    4  O   UNL     1     -42.083  56.979 -52.006  1.00  0.00    -0.247 OA
HETATM    5  H   UNL     1     -43.224  55.832 -54.699  1.00  0.00     0.164 HD
HETATM    6  H   UNL     1     -42.950  58.867 -53.159  1.00  0.00     0.172 HD
ENDROOT
BRANCH   1   7
HETATM    7  C   UNL     1     -42.308  54.421 -53.372  1.00  0.00     0.086 C 
HETATM    8  C   UNL     1     -43.006  54.069 -52.058  1.00  0.00     0.032 C 
BRANCH   7   9
HETATM    9  C   UNL     1     -40.783  54.217 -53.249  1.00  0.00     0.063 C 
BRANCH   9  10
HETATM   10  C   UNL     1     -40.371  52.770 -53.101  1.00  0.00    -0.056 A 
HETATM   11  C   UNL     1     -39.909  52.290 -51.866  1.00  0.00     0.010 A 
HETATM   12  C   UNL     1     -39.527  50.955 -51.719  1.00  0.00     0.037 A 
HETATM   13  C   UNL     1     -39.610  50.098 -52.811  1.00  0.00     0.065 A 
HETATM   14  C   UNL     1     -40.062  50.554 -54.043  1.00  0.00     0.037 A 
HETATM   15  C   UNL     1     -40.441  51.889 -54.189  1.00  0.00     0.010 A 
BRANCH  13  16
HETATM   16  O   UNL     1     -39.252  48.785 -52.710  1.00  0.00    -0.361 OA
HETATM   17  H   UNL     1     -38.678  48.685 -51.934  1.00  0.00     0.217 HD
ENDBRANCH  13  16
ENDBRANCH   9  10
ENDBRANCH   7   9
ENDBRANCH   1   7
BRANCH   3  18
HETATM   18  C   UNL     1     -43.790  58.155 -54.884  1.00  0.00     0.153 A 
HETATM   19  N   UNL     1     -43.222  58.234 -56.094  1.00  0.00    -0.154 NA
HETATM   20  N   UNL     1     -44.264  58.326 -56.947  1.00  0.00    -0.275 N 
HETATM   21  C   UNL     1     -45.476  58.299 -56.320  1.00  0.00     0.116 A 
HETATM   22  C   UNL     1     -45.201  58.193 -54.977  1.00  0.00     0.071 A 
BRANCH  20  23
HETATM   23  C   UNL     1     -44.030  58.348 -58.386  1.00  0.00     0.189 C 
BRANCH  23  24
HETATM   24  C   UNL     1     -44.466  57.068 -59.049  1.00  0.00    -0.038 A 
HETATM   25  C   UNL     1     -45.643  57.027 -59.812  1.00  0.00     0.009 A 
HETATM   26  C   UNL     1     -46.041  55.845 -60.440  1.00  0.00     0.001 A 
HETATM   27  C   UNL     1     -45.268  54.693 -60.311  1.00  0.00     0.000 A 
HETATM   28  C   UNL     1     -44.098  54.720 -59.556  1.00  0.00     0.001 A 
HETATM   29  C   UNL     1     -43.698  55.901 -58.927  1.00  0.00     0.009 A 
ENDBRANCH  23  24
ENDBRANCH  20  23
ENDBRANCH   3  18
TORSDOF 7
ENDMDL
MODEL 7
REMARK VINA RESULT:      -7.9      2.847      7.313
REMARK  7 active torsions:
REMARK  status: ('A' for Active; 'I' for Inactive)
REMARK    1  A    between atoms: C_2  and  N_3 
REMARK    2  A    between atoms: C_2  and  C_19 
REMARK       I    between atoms: N_3  and  C_4 
REMARK       I    between atoms: C_4  and  N_5 
REMARK    3  A    between atoms: N_5  and  C_6 
REMARK    4  A    between atoms: N_8  and  C_9 
REMARK    5  A    between atoms: C_9  and  C_10 
REMARK    6  A    between atoms: C_19  and  C_20 
REMARK    7  A    between atoms: C_23  and  O_24 
ROOT
HETATM    1  N   UNL     1     -42.824  57.509 -56.480  1.00  0.00    -0.338 N 
HETATM    2  C   UNL     1     -43.332  56.517 -57.257  1.00  0.00     0.322 C 
HETATM    3  N   UNL     1     -43.252  55.248 -56.768  1.00  0.00    -0.292 N 
HETATM    4  O   UNL     1     -43.832  56.704 -58.365  1.00  0.00    -0.247 OA
HETATM    5  H   UNL     1     -42.508  57.204 -55.560  1.00  0.00     0.164 HD
HETATM    6  H   UNL     1     -43.590  54.544 -57.406  1.00  0.00     0.172 HD
ENDROOT
BRANCH   1   7
HETATM    7  C   UNL     1     -42.864  58.936 -56.770  1.00  0.00     0.086 C 
HETATM    8  C   UNL     1     -41.730  59.326 -57.719  1.00  0.00     0.032 C 
BRANCH   7   9
HETATM    9  C   UNL     1     -42.862  59.842 -55.521  1.00  0.00     0.063 C 
BRANCH   9  10
HETATM   10  C   UNL     1     -42.762  59.083 -54.217  1.00  0.00    -0.056 A 
HETATM   11  C   UNL     1     -41.549  58.489 -53.836  1.00  0.00     0.010 A 
HETATM   12  C   UNL     1     -41.447  57.788 -52.633  1.00  0.00     0.037 A 
HETATM   13  C   UNL     1     -42.562  57.681 -51.809  1.00  0.00     0.065 A 
HETATM   14  C   UNL     1     -43.774  58.258 -52.170  1.00  0.00     0.037 A 
HETATM   15  C   UNL     1     -43.875  58.958 -53.373  1.00  0.00     0.010 A 
BRANCH  13  16
HETATM   16  O   UNL     1     -42.505  57.009 -50.623  1.00  0.00    -0.361 OA
HETATM   17  H   UNL     1     -41.589  57.033 -50.304  1.00  0.00     0.217 HD
ENDBRANCH  13  16
ENDBRANCH   9  10
ENDBRANCH   7   9
ENDBRANCH   1   7
BRANCH   3  18
HETATM   18  C   UNL     1     -42.815  54.826 -55.533  1.00  0.00     0.153 A 
HETATM   19  N   UNL     1     -41.546  54.519 -55.236  1.00  0.00    -0.154 NA
HETATM   20  N   UNL     1     -41.580  54.181 -53.930  1.00  0.00    -0.275 N 
HETATM   21  C   UNL     1     -42.828  54.271 -53.385  1.00  0.00     0.116 A 
HETATM   22  C   UNL     1     -43.654  54.683 -54.403  1.00  0.00     0.071 A 
BRANCH  20  23
HETATM   23  C   UNL     1     -40.344  53.860 -53.227  1.00  0.00     0.189 C 
BRANCH  23  24
HETATM   24  C   UNL     1     -40.122  52.374 -53.124  1.00  0.00    -0.038 A 
HETATM   25  C   UNL     1     -40.274  51.551 -54.250  1.00  0.00     0.009 A 
HETATM   26  C   UNL     1     -40.054  50.176 -54.159  1.00  0.00     0.001 A 
HETATM   27  C   UNL     1     -39.682  49.608 -52.943  1.00  0.00     0.000 A 
HETATM   28  C   UNL     1     -39.529  50.413 -51.816  1.00  0.00     0.001 A 
HETATM   29  C   UNL     1     -39.749  51.790 -51.904  1.00  0.00     0.009 A 
ENDBRANCH  23  24
ENDBRANCH  20  23
ENDBRANCH   3  18
TORSDOF 7
ENDMDL
MODEL 8
REMARK VINA RESULT:      -7.8      3.370      6.392
REMARK  7 active torsions:
REMARK  status: ('A' for Active; 'I' for Inactive)
REMARK    1  A    between atoms: C_2  and  N_3 
REMARK    2  A    between atoms: C_2  and  C_19 
REMARK       I    between atoms: N_3  and  C_4 
REMARK       I    between atoms: C_4  and  N_5 
REMARK    3  A    between atoms: N_5  and  C_6 
REMARK    4  A    between atoms: N_8  and  C_9 
REMARK    5  A    between atoms: C_9  and  C_10 
REMARK    6  A    between atoms: C_19  and  C_20 
REMARK    7  A    between atoms: C_23  and  O_24 
ROOT
HETATM    1  N   UNL     1     -41.328  56.075 -54.432  1.00  0.00    -0.338 N 
HETATM    2  C   UNL     1     -41.409  57.206 -53.685  1.00  0.00     0.322 C 
HETATM    3  N   UNL     1     -42.152  58.230 -54.193  1.00  0.00    -0.292 N 
HETATM    4  O   UNL     1     -40.840  57.356 -52.605  1.00  0.00    -0.247 OA
HETATM    5  H   UNL     1     -41.911  56.078 -55.268  1.00  0.00     0.164 HD
HETATM    6  H   UNL     1     -42.134  59.065 -53.630  1.00  0.00     0.172 HD
ENDROOT
BRANCH   1   7
HETATM    7  C   UNL     1     -40.651  54.841 -54.055  1.00  0.00     0.086 C 
HETATM    8  C   UNL     1     -40.121  54.116 -55.294  1.00  0.00     0.032 C 
BRANCH   7   9
HETATM    9  C   UNL     1     -41.499  53.887 -53.188  1.00  0.00     0.063 C 
BRANCH   9  10
HETATM   10  C   UNL     1     -41.293  54.069 -51.701  1.00  0.00    -0.056 A 
HETATM   11  C   UNL     1     -40.099  53.649 -51.096  1.00  0.00     0.010 A 
HETATM   12  C   UNL     1     -39.899  53.814 -49.724  1.00  0.00     0.037 A 
HETATM   13  C   UNL     1     -40.899  54.403 -48.956  1.00  0.00     0.065 A 
HETATM   14  C   UNL     1     -42.090  54.822 -49.535  1.00  0.00     0.037 A 
HETATM   15  C   UNL     1     -42.289  54.655 -50.906  1.00  0.00     0.010 A 
BRANCH  13  16
HETATM   16  O   UNL     1     -40.743  54.587 -47.613  1.00  0.00    -0.361 OA
HETATM   17  H   UNL     1     -41.522  54.222 -47.164  1.00  0.00     0.217 HD
ENDBRANCH  13  16
ENDBRANCH   9  10
ENDBRANCH   7   9
ENDBRANCH   1   7
BRANCH   3  18
HETATM   18  C   UNL     1     -42.931  58.248 -55.328  1.00  0.00     0.153 A 
HETATM   19  N   UNL     1     -42.457  58.256 -56.580  1.00  0.00    -0.154 NA
HETATM   20  N   UNL     1     -43.561  58.254 -57.356  1.00  0.00    -0.275 N 
HETATM   21  C   UNL     1     -44.722  58.237 -56.639  1.00  0.00     0.116 A 
HETATM   22  C   UNL     1     -44.346  58.237 -55.316  1.00  0.00     0.071 A 
BRANCH  20  23
HETATM   23  C   UNL     1     -43.433  58.178 -58.806  1.00  0.00     0.189 C 
BRANCH  23  24
HETATM   24  C   UNL     1     -44.093  56.946 -59.368  1.00  0.00    -0.038 A 
HETATM   25  C   UNL     1     -43.570  55.672 -59.097  1.00  0.00     0.009 A 
HETATM   26  C   UNL     1     -44.189  54.529 -59.605  1.00  0.00     0.001 A 
HETATM   27  C   UNL     1     -45.336  54.646 -60.387  1.00  0.00     0.000 A 
HETATM   28  C   UNL     1     -45.865  55.904 -60.664  1.00  0.00     0.001 A 
HETATM   29  C   UNL     1     -45.247  57.050 -60.158  1.00  0.00     0.009 A 
ENDBRANCH  23  24
ENDBRANCH  20  23
ENDBRANCH   3  18
TORSDOF 7
ENDMDL
MODEL 9
REMARK VINA RESULT:      -7.5      2.987      6.949
REMARK  7 active torsions:
REMARK  status: ('A' for Active; 'I' for Inactive)
REMARK    1  A    between atoms: C_2  and  N_3 
REMARK    2  A    between atoms: C_2  and  C_19 
REMARK       I    between atoms: N_3  and  C_4 
REMARK       I    between atoms: C_4  and  N_5 
REMARK    3  A    between atoms: N_5  and  C_6 
REMARK    4  A    between atoms: N_8  and  C_9 
REMARK    5  A    between atoms: C_9  and  C_10 
REMARK    6  A    between atoms: C_19  and  C_20 
REMARK    7  A    between atoms: C_23  and  O_24 
ROOT
HETATM    1  N   UNL     1     -43.313  58.867 -53.269  1.00  0.00    -0.338 N 
HETATM    2  C   UNL     1     -42.070  59.405 -53.169  1.00  0.00     0.322 C 
HETATM    3  N   UNL     1     -41.183  58.766 -52.356  1.00  0.00    -0.292 N 
HETATM    4  O   UNL     1     -41.722  60.433 -53.749  1.00  0.00    -0.247 OA
HETATM    5  H   UNL     1     -43.427  57.977 -52.784  1.00  0.00     0.164 HD
HETATM    6  H   UNL     1     -40.295  59.236 -52.272  1.00  0.00     0.172 HD
ENDROOT
BRANCH   1   7
HETATM    7  C   UNL     1     -44.391  59.341 -54.126  1.00  0.00     0.086 C 
HETATM    8  C   UNL     1     -45.366  60.213 -53.333  1.00  0.00     0.032 C 
BRANCH   7   9
HETATM    9  C   UNL     1     -45.147  58.225 -54.877  1.00  0.00     0.063 C 
BRANCH   9  10
HETATM   10  C   UNL     1     -44.367  57.626 -56.026  1.00  0.00    -0.056 A 
HETATM   11  C   UNL     1     -44.475  58.172 -57.313  1.00  0.00     0.010 A 
HETATM   12  C   UNL     1     -43.757  57.627 -58.380  1.00  0.00     0.037 A 
HETATM   13  C   UNL     1     -42.929  56.532 -58.156  1.00  0.00     0.065 A 
HETATM   14  C   UNL     1     -42.811  55.975 -56.889  1.00  0.00     0.037 A 
HETATM   15  C   UNL     1     -43.530  56.520 -55.824  1.00  0.00     0.010 A 
BRANCH  13  16
HETATM   16  O   UNL     1     -42.206  55.972 -59.168  1.00  0.00    -0.361 OA
HETATM   17  H   UNL     1     -41.937  55.081 -58.892  1.00  0.00     0.217 HD
ENDBRANCH  13  16
ENDBRANCH   9  10
ENDBRANCH   7   9
ENDBRANCH   1   7
BRANCH   3  18
HETATM   18  C   UNL     1     -41.332  57.572 -51.688  1.00  0.00     0.153 A 
HETATM   19  N   UNL     1     -41.963  56.497 -52.177  1.00  0.00    -0.154 NA
HETATM   20  N   UNL     1     -41.848  55.570 -51.204  1.00  0.00    -0.275 N 
HETATM   21  C   UNL     1     -41.159  56.018 -50.114  1.00  0.00     0.116 A 
HETATM   22  C   UNL     1     -40.814  57.318 -50.397  1.00  0.00     0.071 A 
BRANCH  20  23
HETATM   23  C   UNL     1     -42.355  54.220 -51.418  1.00  0.00     0.189 C 
BRANCH  23  24
HETATM   24  C   UNL     1     -41.382  53.367 -52.190  1.00  0.00    -0.038 A 
HETATM   25  C   UNL     1     -40.373  52.657 -51.523  1.00  0.00     0.009 A 
HETATM   26  C   UNL     1     -39.480  51.855 -52.236  1.00  0.00     0.001 A 
HETATM   27  C   UNL     1     -39.587  51.755 -53.622  1.00  0.00     0.000 A 
HETATM   28  C   UNL     1     -40.583  52.456 -54.297  1.00  0.00     0.001 A 
HETATM   29  C   UNL     1     -41.477  53.259 -53.585  1.00  0.00     0.009 A 
ENDBRANCH  23  24
ENDBRANCH  20  23
ENDBRANCH   3  18
TORSDOF 7
ENDMDL
MODEL 10
REMARK VINA RESULT:      -7.5      2.155      3.294
REMARK  7 active torsions:
REMARK  status: ('A' for Active; 'I' for Inactive)
REMARK    1  A    between atoms: C_2  and  N_3 
REMARK    2  A    between atoms: C_2  and  C_19 
REMARK       I    between atoms: N_3  and  C_4 
REMARK       I    between atoms: C_4  and  N_5 
REMARK    3  A    between atoms: N_5  and  C_6 
REMARK    4  A    between atoms: N_8  and  C_9 
REMARK    5  A    between atoms: C_9  and  C_10 
REMARK    6  A    between atoms: C_19  and  C_20 
REMARK    7  A    between atoms: C_23  and  O_24 
ROOT
HETATM    1  N   UNL     1     -42.363  55.674 -54.281  1.00  0.00    -0.338 N 
HETATM    2  C   UNL     1     -42.573  56.007 -55.581  1.00  0.00     0.322 C 
HETATM    3  N   UNL     1     -42.779  57.326 -55.855  1.00  0.00    -0.292 N 
HETATM    4  O   UNL     1     -42.608  55.190 -56.500  1.00  0.00    -0.247 OA
HETATM    5  H   UNL     1     -42.293  56.470 -53.648  1.00  0.00     0.164 HD
HETATM    6  H   UNL     1     -42.987  57.513 -56.824  1.00  0.00     0.172 HD
ENDROOT
BRANCH   1   7
HETATM    7  C   UNL     1     -42.056  54.344 -53.771  1.00  0.00     0.086 C 
HETATM    8  C   UNL     1     -42.871  54.048 -52.512  1.00  0.00     0.032 C 
BRANCH   7   9
HETATM    9  C   UNL     1     -40.555  54.087 -53.521  1.00  0.00     0.063 C 
BRANCH   9  10
HETATM   10  C   UNL     1     -40.222  52.638 -53.247  1.00  0.00    -0.056 A 
HETATM   11  C   UNL     1     -39.813  52.237 -51.966  1.00  0.00     0.010 A 
HETATM   12  C   UNL     1     -39.505  50.901 -51.703  1.00  0.00     0.037 A 
HETATM   13  C   UNL     1     -39.606  49.964 -52.726  1.00  0.00     0.065 A 
HETATM   14  C   UNL     1     -40.006  50.341 -54.002  1.00  0.00     0.037 A 
HETATM   15  C   UNL     1     -40.312  51.677 -54.264  1.00  0.00     0.010 A 
BRANCH  13  16
HETATM   16  O   UNL     1     -39.319  48.647 -52.512  1.00  0.00    -0.361 OA
HETATM   17  H   UNL     1     -38.996  48.551 -51.602  1.00  0.00     0.217 HD
ENDBRANCH  13  16
ENDBRANCH   9  10
ENDBRANCH   7   9
ENDBRANCH   1   7
BRANCH   3  18
HETATM   18  C   UNL     1     -42.700  58.405 -55.005  1.00  0.00     0.153 A 
HETATM   19  N   UNL     1     -42.344  58.337 -53.716  1.00  0.00    -0.154 NA
HETATM   20  N   UNL     1     -42.386  59.617 -53.289  1.00  0.00    -0.275 N 
HETATM   21  C   UNL     1     -42.750  60.497 -54.267  1.00  0.00     0.116 A 
HETATM   22  C   UNL     1     -42.965  59.740 -55.393  1.00  0.00     0.071 A 
BRANCH  20  23
HETATM   23  C   UNL     1     -41.974  59.947 -51.930  1.00  0.00     0.189 C 
BRANCH  23  24
HETATM   24  C   UNL     1     -43.142  60.349 -51.068  1.00  0.00    -0.038 A 
HETATM   25  C   UNL     1     -44.306  59.565 -51.034  1.00  0.00     0.009 A 
HETATM   26  C   UNL     1     -45.383  59.929 -50.225  1.00  0.00     0.001 A 
HETATM   27  C   UNL     1     -45.308  61.078 -49.440  1.00  0.00     0.000 A 
HETATM   28  C   UNL     1     -44.160  61.865 -49.465  1.00  0.00     0.001 A 
HETATM   29  C   UNL     1     -43.081  61.504 -50.275  1.00  0.00     0.009 A 
ENDBRANCH  23  24
ENDBRANCH  20  23
ENDBRANCH   3  18
TORSDOF 7
ENDMDL
