MODEL 1
REMARK VINA RESULT:      -8.3      0.000      0.000
REMARK  7 active torsions:
REMARK  status: ('A' for Active; 'I' for Inactive)
REMARK    1  A    between atoms: C_6  and  O_7 
REMARK    2  A    between atoms: O_7  and  C_8 
REMARK    3  A    between atoms: C_11  and  C_12 
REMARK       I    between atoms: C_12  and  N_13 
REMARK    4  A    between atoms: N_13  and  C_14 
REMARK    5  A    between atoms: N_22  and  C_23 
REMARK    6  A    between atoms: C_23  and  C_24 
REMARK    7  A    between atoms: C_24  and  O_25 
ROOT
HETATM    1  C           1     -43.330  59.222 -51.421  0.00  0.00     0.113 A 
HETATM    2  C           1     -43.893  60.239 -50.725  0.00  0.00     0.102 A 
HETATM    3  C           1     -44.028  58.087 -51.637  0.00  0.00     0.002 A 
HETATM    4  C           1     -43.418  56.967 -52.443  0.00  0.00     0.138 C 
HETATM    5  C           1     -41.889  57.095 -52.464  0.00  0.00     0.161 C 
HETATM    6  C           1     -41.627  58.539 -52.944  0.00  0.00     0.155 C 
HETATM    7  C           1     -40.113  58.778 -53.067  0.00  0.00     0.072 C 
HETATM    8  N           1     -42.342  58.834 -54.206  0.00  0.00    -0.323 N 
HETATM    9  C           1     -43.362  58.016 -54.676  0.00  0.00     0.172 C 
HETATM   10  S           1     -44.027  58.147 -56.104  0.00  0.00    -0.041 SA
HETATM   11  N           1     -43.913  57.106 -53.808  0.00  0.00    -0.357 N 
HETATM   12  O           1     -42.066  59.406 -51.926  0.00  0.00    -0.316 OA
HETATM   13  C           1     -45.270  57.945 -51.151  0.00  0.00     0.012 A 
HETATM   14  C           1     -45.830  58.936 -50.449  0.00  0.00     0.003 A 
HETATM   15  C           1     -45.142  60.069 -50.247  0.00  0.00     0.040 A 
HETATM   16  H           1     -44.725  56.564 -54.100  0.00  0.00     0.162 HD
ENDROOT
BRANCH   5  17
HETATM   17  C           1     -41.219  55.958 -53.248  0.00  0.00     0.233 C 
HETATM   18  N           1     -41.315  54.736 -52.649  0.00  0.00    -0.326 N 
HETATM   19  H           1     -41.845  54.695 -51.792  0.00  0.00     0.169 HD
HETATM   20  O           1     -40.699  56.146 -54.319  0.00  0.00    -0.273 OA
BRANCH  18  21
HETATM   21  C           1     -40.856  53.505 -52.960  0.00  0.00     0.040 A 
HETATM   22  C           1     -40.128  52.872 -52.015  0.00  0.00    -0.035 A 
HETATM   23  C           1     -39.846  53.506 -50.667  0.00  0.00     0.050 C 
HETATM   24  C           1     -39.640  51.643 -52.267  0.00  0.00     0.015 A 
HETATM   25  C           1     -39.847  51.013 -53.434  0.00  0.00    -0.061 A 
HETATM   26  C           1     -39.283  49.633 -53.675  0.00  0.00     0.048 C 
HETATM   27  C           1     -40.571  51.651 -54.367  0.00  0.00     0.009 A 
HETATM   28  C           1     -41.064  52.875 -54.131  0.00  0.00     0.030 A 
ENDBRANCH  18  21
ENDBRANCH   5  17
BRANCH   8  29
HETATM   29  C           1     -42.034  60.122 -54.840  0.00  0.00     0.154 C 
BRANCH  29  30
HETATM   30  C           1     -43.143  61.163 -54.655  0.00  0.00     0.187 C 
BRANCH  30  31
HETATM   31  O           1     -42.738  62.081 -53.668  0.00  0.00    -0.394 OA
HETATM   32  C           1     -43.253  63.375 -53.898  0.00  0.00     0.201 C 
ENDBRANCH  30  31
ENDBRANCH  29  30
ENDBRANCH   8  29
BRANCH   2  33
HETATM   33  O           1     -43.145  61.383 -50.554  0.00  0.00    -0.349 OA
BRANCH  33  34
HETATM   34  C           1     -43.777  62.565 -50.139  0.00  0.00     0.171 C 
HETATM   35  C           1     -42.746  63.692 -50.146  0.00  0.00     0.034 C 
ENDBRANCH  33  34
ENDBRANCH   2  33
TORSDOF 7
ENDMDL
MODEL 2
REMARK VINA RESULT:      -7.7      4.581      6.920
REMARK  7 active torsions:
REMARK  status: ('A' for Active; 'I' for Inactive)
REMARK    1  A    between atoms: C_6  and  O_7 
REMARK    2  A    between atoms: O_7  and  C_8 
REMARK    3  A    between atoms: C_11  and  C_12 
REMARK       I    between atoms: C_12  and  N_13 
REMARK    4  A    between atoms: N_13  and  C_14 
REMARK    5  A    between atoms: N_22  and  C_23 
REMARK    6  A    between atoms: C_23  and  C_24 
REMARK    7  A    between atoms: C_24  and  O_25 
ROOT
HETATM    1  C           1     -42.115  59.627 -59.273  0.00  0.00     0.113 A 
HETATM    2  C           1     -41.905  60.622 -60.169  0.00  0.00     0.102 A 
HETATM    3  C           1     -42.194  59.914 -57.957  0.00  0.00     0.002 A 
HETATM    4  C           1     -42.465  58.815 -56.960  0.00  0.00     0.138 C 
HETATM    5  C           1     -42.101  57.449 -57.558  0.00  0.00     0.161 C 
HETATM    6  C           1     -42.868  57.396 -58.897  0.00  0.00     0.155 C 
HETATM    7  C           1     -42.633  56.037 -59.576  0.00  0.00     0.072 C 
HETATM    8  N           1     -44.308  57.687 -58.715  0.00  0.00    -0.323 N 
HETATM    9  C           1     -44.795  58.256 -57.546  0.00  0.00     0.172 C 
HETATM   10  S           1     -46.330  58.405 -57.196  0.00  0.00    -0.041 SA
HETATM   11  N           1     -43.897  58.833 -56.683  0.00  0.00    -0.357 N 
HETATM   12  O           1     -42.286  58.352 -59.752  0.00  0.00    -0.316 OA
HETATM   13  C           1     -42.047  61.174 -57.521  0.00  0.00     0.012 A 
HETATM   14  C           1     -41.824  62.161 -58.395  0.00  0.00     0.003 A 
HETATM   15  C           1     -41.759  61.878 -59.704  0.00  0.00     0.040 A 
HETATM   16  H           1     -44.240  59.340 -55.868  0.00  0.00     0.162 HD
ENDROOT
BRANCH   5  17
HETATM   17  C           1     -42.331  56.299 -56.568  0.00  0.00     0.233 C 
HETATM   18  N           1     -41.258  56.029 -55.769  0.00  0.00    -0.326 N 
HETATM   19  H           1     -40.454  56.629 -55.876  0.00  0.00     0.169 HD
HETATM   20  O           1     -43.389  55.728 -56.491  0.00  0.00    -0.273 OA
BRANCH  18  21
HETATM   21  C           1     -41.014  55.109 -54.811  0.00  0.00     0.040 A 
HETATM   22  C           1     -41.148  55.517 -53.530  0.00  0.00    -0.035 A 
HETATM   23  C           1     -41.561  56.933 -53.182  0.00  0.00     0.050 C 
HETATM   24  C           1     -40.916  54.647 -52.530  0.00  0.00     0.015 A 
HETATM   25  C           1     -40.549  53.375 -52.755  0.00  0.00    -0.061 A 
HETATM   26  C           1     -40.300  52.431 -51.603  0.00  0.00     0.048 C 
HETATM   27  C           1     -40.417  52.980 -54.031  0.00  0.00     0.009 A 
HETATM   28  C           1     -40.645  53.836 -55.038  0.00  0.00     0.030 A 
ENDBRANCH  18  21
ENDBRANCH   5  17
BRANCH   8  29
HETATM   29  C           1     -45.161  57.502 -59.896  0.00  0.00     0.154 C 
BRANCH  29  30
HETATM   30  C           1     -45.852  56.136 -59.929  0.00  0.00     0.187 C 
BRANCH  30  31
HETATM   31  O           1     -47.239  56.336 -60.062  0.00  0.00    -0.394 OA
HETATM   32  C           1     -47.619  56.565 -61.402  0.00  0.00     0.201 C 
ENDBRANCH  30  31
ENDBRANCH  29  30
ENDBRANCH   8  29
BRANCH   2  33
HETATM   33  O           1     -41.857  60.277 -61.502  0.00  0.00    -0.349 OA
BRANCH  33  34
HETATM   34  C           1     -42.600  61.017 -62.434  0.00  0.00     0.171 C 
HETATM   35  C           1     -44.080  60.698 -62.236  0.00  0.00     0.034 C 
ENDBRANCH  33  34
ENDBRANCH   2  33
TORSDOF 7
ENDMDL
MODEL 3
REMARK VINA RESULT:      -7.4      1.719      2.430
REMARK  7 active torsions:
REMARK  status: ('A' for Active; 'I' for Inactive)
REMARK    1  A    between atoms: C_6  and  O_7 
REMARK    2  A    between atoms: O_7  and  C_8 
REMARK    3  A    between atoms: C_11  and  C_12 
REMARK       I    between atoms: C_12  and  N_13 
REMARK    4  A    between atoms: N_13  and  C_14 
REMARK    5  A    between atoms: N_22  and  C_23 
REMARK    6  A    between atoms: C_23  and  C_24 
REMARK    7  A    between atoms: C_24  and  O_25 
ROOT
HETATM    1  C           1     -43.972  60.075 -51.585  0.00  0.00     0.113 A 
HETATM    2  C           1     -44.168  61.414 -51.643  0.00  0.00     0.102 A 
HETATM    3  C           1     -45.032  59.240 -51.602  0.00  0.00     0.002 A 
HETATM    4  C           1     -44.817  57.746 -51.574  0.00  0.00     0.138 C 
HETATM    5  C           1     -43.426  57.417 -51.016  0.00  0.00     0.161 C 
HETATM    6  C           1     -42.455  58.258 -51.872  0.00  0.00     0.155 C 
HETATM    7  C           1     -41.006  57.970 -51.447  0.00  0.00     0.072 C 
HETATM    8  N           1     -42.667  58.033 -53.319  0.00  0.00    -0.323 N 
HETATM    9  C           1     -43.810  57.409 -53.802  0.00  0.00     0.172 C 
HETATM   10  S           1     -44.014  56.951 -55.301  0.00  0.00    -0.041 SA
HETATM   11  N           1     -44.883  57.281 -52.955  0.00  0.00    -0.357 N 
HETATM   12  O           1     -42.681  59.611 -51.555  0.00  0.00    -0.316 OA
HETATM   13  C           1     -46.283  59.721 -51.655  0.00  0.00     0.012 A 
HETATM   14  C           1     -46.488  61.042 -51.697  0.00  0.00     0.003 A 
HETATM   15  C           1     -45.435  61.871 -51.695  0.00  0.00     0.040 A 
HETATM   16  H           1     -45.764  56.914 -53.315  0.00  0.00     0.162 HD
ENDROOT
BRANCH   5  17
HETATM   17  C           1     -43.171  55.906 -50.939  0.00  0.00     0.233 C 
HETATM   18  N           1     -41.878  55.546 -51.184  0.00  0.00    -0.326 N 
HETATM   19  H           1     -41.223  56.296 -51.343  0.00  0.00     0.169 HD
HETATM   20  O           1     -44.043  55.128 -50.643  0.00  0.00    -0.273 OA
BRANCH  18  21
HETATM   21  C           1     -41.235  54.360 -51.252  0.00  0.00     0.040 A 
HETATM   22  C           1     -40.850  53.948 -52.479  0.00  0.00    -0.035 A 
HETATM   23  C           1     -41.114  54.778 -53.720  0.00  0.00     0.050 C 
HETATM   24  C           1     -40.207  52.773 -52.613  0.00  0.00     0.015 A 
HETATM   25  C           1     -39.933  51.981 -51.564  0.00  0.00    -0.061 A 
HETATM   26  C           1     -39.208  50.670 -51.758  0.00  0.00     0.048 C 
HETATM   27  C           1     -40.322  52.399 -50.349  0.00  0.00     0.009 A 
HETATM   28  C           1     -40.963  53.567 -50.200  0.00  0.00     0.030 A 
ENDBRANCH  18  21
ENDBRANCH   5  17
BRANCH   8  29
HETATM   29  C           1     -41.690  58.655 -54.222  0.00  0.00     0.154 C 
BRANCH  29  30
HETATM   30  C           1     -42.199  59.955 -54.853  0.00  0.00     0.187 C 
BRANCH  30  31
HETATM   31  O           1     -41.523  60.159 -56.071  0.00  0.00    -0.394 OA
HETATM   32  C           1     -42.362  59.955 -57.188  0.00  0.00     0.201 C 
ENDBRANCH  30  31
ENDBRANCH  29  30
ENDBRANCH   8  29
BRANCH   2  33
HETATM   33  O           1     -43.051  62.220 -51.647  0.00  0.00    -0.349 OA
BRANCH  33  34
HETATM   34  C           1     -42.967  63.280 -52.563  0.00  0.00     0.171 C 
HETATM   35  C           1     -43.059  64.595 -51.791  0.00  0.00     0.034 C 
ENDBRANCH  33  34
ENDBRANCH   2  33
TORSDOF 7
ENDMDL
MODEL 4
REMARK VINA RESULT:      -7.2      2.529      4.871
REMARK  7 active torsions:
REMARK  status: ('A' for Active; 'I' for Inactive)
REMARK    1  A    between atoms: C_6  and  O_7 
REMARK    2  A    between atoms: O_7  and  C_8 
REMARK    3  A    between atoms: C_11  and  C_12 
REMARK       I    between atoms: C_12  and  N_13 
REMARK    4  A    between atoms: N_13  and  C_14 
REMARK    5  A    between atoms: N_22  and  C_23 
REMARK    6  A    between atoms: C_23  and  C_24 
REMARK    7  A    between atoms: C_24  and  O_25 
ROOT
HETATM    1  C           1     -44.105  59.578 -55.975  0.00  0.00     0.113 A 
HETATM    2  C           1     -44.952  60.291 -56.756  0.00  0.00     0.102 A 
HETATM    3  C           1     -42.800  59.914 -55.917  0.00  0.00     0.002 A 
HETATM    4  C           1     -41.861  59.145 -55.020  0.00  0.00     0.138 C 
HETATM    5  C           1     -42.445  57.764 -54.695  0.00  0.00     0.161 C 
HETATM    6  C           1     -43.860  58.058 -54.154  0.00  0.00     0.155 C 
HETATM    7  C           1     -44.538  56.744 -53.730  0.00  0.00     0.072 C 
HETATM    8  N           1     -43.831  59.050 -53.055  0.00  0.00    -0.323 N 
HETATM    9  C           1     -42.710  59.831 -52.807  0.00  0.00     0.172 C 
HETATM   10  S           1     -42.527  60.756 -51.538  0.00  0.00    -0.041 SA
HETATM   11  N           1     -41.742  59.901 -53.778  0.00  0.00    -0.357 N 
HETATM   12  O           1     -44.626  58.550 -55.228  0.00  0.00    -0.316 OA
HETATM   13  C           1     -42.323  60.938 -56.641  0.00  0.00     0.012 A 
HETATM   14  C           1     -43.147  61.640 -57.427  0.00  0.00     0.003 A 
HETATM   15  C           1     -44.447  61.314 -57.474  0.00  0.00     0.040 A 
HETATM   16  H           1     -40.959  60.543 -53.660  0.00  0.00     0.162 HD
ENDROOT
BRANCH   5  17
HETATM   17  C           1     -41.510  56.930 -53.808  0.00  0.00     0.233 C 
HETATM   18  N           1     -41.801  55.596 -53.791  0.00  0.00    -0.326 N 
HETATM   19  H           1     -42.557  55.292 -54.385  0.00  0.00     0.169 HD
HETATM   20  O           1     -40.580  57.425 -53.222  0.00  0.00    -0.273 OA
BRANCH  18  21
HETATM   21  C           1     -41.277  54.534 -53.142  0.00  0.00     0.040 A 
HETATM   22  C           1     -40.573  53.655 -53.887  0.00  0.00    -0.035 A 
HETATM   23  C           1     -40.369  53.854 -55.376  0.00  0.00     0.050 C 
HETATM   24  C           1     -40.028  52.574 -53.298  0.00  0.00     0.015 A 
HETATM   25  C           1     -40.161  52.328 -51.986  0.00  0.00    -0.061 A 
HETATM   26  C           1     -39.532  51.103 -51.365  0.00  0.00     0.048 C 
HETATM   27  C           1     -40.864  53.207 -51.254  0.00  0.00     0.009 A 
HETATM   28  C           1     -41.412  54.288 -51.826  0.00  0.00     0.030 A 
ENDBRANCH  18  21
ENDBRANCH   5  17
BRANCH   8  29
HETATM   29  C           1     -45.102  59.281 -52.356  0.00  0.00     0.154 C 
BRANCH  29  30
HETATM   30  C           1     -45.238  58.460 -51.070  0.00  0.00     0.187 C 
BRANCH  30  31
HETATM   31  O           1     -46.136  59.118 -50.209  0.00  0.00    -0.394 OA
HETATM   32  C           1     -45.729  60.438 -49.919  0.00  0.00     0.201 C 
ENDBRANCH  30  31
ENDBRANCH  29  30
ENDBRANCH   8  29
BRANCH   2  33
HETATM   33  O           1     -46.278  59.920 -56.761  0.00  0.00    -0.349 OA
BRANCH  33  34
HETATM   34  C           1     -46.885  59.539 -57.967  0.00  0.00     0.171 C 
HETATM   35  C           1     -47.043  58.020 -57.971  0.00  0.00     0.034 C 
ENDBRANCH  33  34
ENDBRANCH   2  33
TORSDOF 7
ENDMDL
MODEL 5
REMARK VINA RESULT:      -7.2      2.484      4.623
REMARK  7 active torsions:
REMARK  status: ('A' for Active; 'I' for Inactive)
REMARK    1  A    between atoms: C_6  and  O_7 
REMARK    2  A    between atoms: O_7  and  C_8 
REMARK    3  A    between atoms: C_11  and  C_12 
REMARK       I    between atoms: C_12  and  N_13 
REMARK    4  A    between atoms: N_13  and  C_14 
REMARK    5  A    between atoms: N_22  and  C_23 
REMARK    6  A    between atoms: C_23  and  C_24 
REMARK    7  A    between atoms: C_24  and  O_25 
ROOT
HETATM    1  C           1     -43.753  57.993 -55.818  0.00  0.00     0.113 A 
HETATM    2  C           1     -44.715  58.827 -56.281  0.00  0.00     0.102 A 
HETATM    3  C           1     -42.459  58.376 -55.849  0.00  0.00     0.002 A 
HETATM    4  C           1     -41.388  57.465 -55.301  0.00  0.00     0.138 C 
HETATM    5  C           1     -41.892  56.016 -55.254  0.00  0.00     0.161 C 
HETATM    6  C           1     -43.224  56.093 -54.477  0.00  0.00     0.155 C 
HETATM    7  C           1     -43.808  54.681 -54.307  0.00  0.00     0.072 C 
HETATM    8  N           1     -43.061  56.789 -53.181  0.00  0.00    -0.323 N 
HETATM    9  C           1     -41.933  57.547 -52.896  0.00  0.00     0.172 C 
HETATM   10  S           1     -41.594  58.145 -51.473  0.00  0.00    -0.041 SA
HETATM   11  N           1     -41.113  57.903 -53.938  0.00  0.00    -0.357 N 
HETATM   12  O           1     -44.142  56.788 -55.287  0.00  0.00    -0.316 OA
HETATM   13  C           1     -42.110  59.569 -56.353  0.00  0.00     0.012 A 
HETATM   14  C           1     -43.050  60.394 -56.827  0.00  0.00     0.003 A 
HETATM   15  C           1     -44.337  60.019 -56.783  0.00  0.00     0.040 A 
HETATM   16  H           1     -40.334  58.539 -53.767  0.00  0.00     0.162 HD
ENDROOT
BRANCH   5  17
HETATM   17  C           1     -40.825  55.044 -54.731  0.00  0.00     0.233 C 
HETATM   18  N           1     -41.329  53.992 -54.024  0.00  0.00    -0.326 N 
HETATM   19  H           1     -42.334  53.935 -53.954  0.00  0.00     0.169 HD
HETATM   20  O           1     -39.655  55.194 -54.976  0.00  0.00    -0.273 OA
BRANCH  18  21
HETATM   21  C           1     -40.769  52.950 -53.374  0.00  0.00     0.040 A 
HETATM   22  C           1     -40.679  53.049 -52.030  0.00  0.00    -0.035 A 
HETATM   23  C           1     -41.191  54.266 -51.283  0.00  0.00     0.050 C 
HETATM   24  C           1     -40.128  52.043 -51.326  0.00  0.00     0.015 A 
HETATM   25  C           1     -39.653  50.933 -51.911  0.00  0.00    -0.061 A 
HETATM   26  C           1     -39.043  49.827 -51.084  0.00  0.00     0.048 C 
HETATM   27  C           1     -39.746  50.844 -53.247  0.00  0.00     0.009 A 
HETATM   28  C           1     -40.293  51.837 -53.962  0.00  0.00     0.030 A 
ENDBRANCH  18  21
ENDBRANCH   5  17
BRANCH   8  29
HETATM   29  C           1     -44.226  56.775 -52.287  0.00  0.00     0.154 C 
BRANCH  29  30
HETATM   30  C           1     -44.911  58.140 -52.172  0.00  0.00     0.187 C 
BRANCH  30  31
HETATM   31  O           1     -45.521  58.232 -50.907  0.00  0.00    -0.394 OA
HETATM   32  C           1     -45.813  59.566 -50.550  0.00  0.00     0.201 C 
ENDBRANCH  30  31
ENDBRANCH  29  30
ENDBRANCH   8  29
BRANCH   2  33
HETATM   33  O           1     -46.021  58.396 -56.204  0.00  0.00    -0.349 OA
BRANCH  33  34
HETATM   34  C           1     -46.696  58.024 -57.376  0.00  0.00     0.171 C 
HETATM   35  C           1     -47.570  59.193 -57.823  0.00  0.00     0.034 C 
ENDBRANCH  33  34
ENDBRANCH   2  33
TORSDOF 7
ENDMDL
MODEL 6
REMARK VINA RESULT:      -7.1      1.729      2.120
REMARK  7 active torsions:
REMARK  status: ('A' for Active; 'I' for Inactive)
REMARK    1  A    between atoms: C_6  and  O_7 
REMARK    2  A    between atoms: O_7  and  C_8 
REMARK    3  A    between atoms: C_11  and  C_12 
REMARK       I    between atoms: C_12  and  N_13 
REMARK    4  A    between atoms: N_13  and  C_14 
REMARK    5  A    between atoms: N_22  and  C_23 
REMARK    6  A    between atoms: C_23  and  C_24 
REMARK    7  A    between atoms: C_24  and  O_25 
ROOT
HETATM    1  C           1     -43.833  60.527 -51.860  0.00  0.00     0.113 A 
HETATM    2  C           1     -44.029  61.708 -51.226  0.00  0.00     0.102 A 
HETATM    3  C           1     -44.837  59.627 -51.930  0.00  0.00     0.002 A 
HETATM    4  C           1     -44.634  58.326 -52.666  0.00  0.00     0.138 C 
HETATM    5  C           1     -43.137  58.009 -52.789  0.00  0.00     0.161 C 
HETATM    6  C           1     -42.521  59.280 -53.412  0.00  0.00     0.155 C 
HETATM    7  C           1     -41.016  59.067 -53.645  0.00  0.00     0.072 C 
HETATM    8  N           1     -43.227  59.678 -54.651  0.00  0.00    -0.323 N 
HETATM    9  C           1     -44.469  59.156 -54.984  0.00  0.00     0.172 C 
HETATM   10  S           1     -45.187  59.371 -56.376  0.00  0.00    -0.041 SA
HETATM   11  N           1     -45.180  58.504 -54.007  0.00  0.00    -0.357 N 
HETATM   12  O           1     -42.615  60.306 -52.453  0.00  0.00    -0.316 OA
HETATM   13  C           1     -46.025  59.881 -51.361  0.00  0.00     0.012 A 
HETATM   14  C           1     -46.225  61.038 -50.720  0.00  0.00     0.003 A 
HETATM   15  C           1     -45.232  61.937 -50.662  0.00  0.00     0.040 A 
HETATM   16  H           1     -46.134  58.198 -54.200  0.00  0.00     0.162 HD
ENDROOT
BRANCH   5  17
HETATM   17  C           1     -42.880  56.676 -53.505  0.00  0.00     0.233 C 
HETATM   18  N           1     -41.846  55.954 -52.983  0.00  0.00    -0.326 N 
HETATM   19  H           1     -41.393  56.339 -52.168  0.00  0.00     0.169 HD
HETATM   20  O           1     -43.572  56.301 -54.418  0.00  0.00    -0.273 OA
BRANCH  18  21
HETATM   21  C           1     -41.269  54.778 -53.311  0.00  0.00     0.040 A 
HETATM   22  C           1     -41.211  53.839 -52.342  0.00  0.00    -0.035 A 
HETATM   23  C           1     -41.774  54.086 -50.956  0.00  0.00     0.050 C 
HETATM   24  C           1     -40.645  52.647 -52.607  0.00  0.00     0.015 A 
HETATM   25  C           1     -40.125  52.350 -53.808  0.00  0.00    -0.061 A 
HETATM   26  C           1     -39.500  50.999 -54.064  0.00  0.00     0.048 C 
HETATM   27  C           1     -40.187  53.290 -54.764  0.00  0.00     0.009 A 
HETATM   28  C           1     -40.748  54.482 -54.516  0.00  0.00     0.030 A 
ENDBRANCH  18  21
ENDBRANCH   5  17
BRANCH   8  29
HETATM   29  C           1     -42.623  60.777 -55.416  0.00  0.00     0.154 C 
BRANCH  29  30
HETATM   30  C           1     -42.032  60.322 -56.755  0.00  0.00     0.187 C 
BRANCH  30  31
HETATM   31  O           1     -41.818  61.456 -57.561  0.00  0.00    -0.394 OA
HETATM   32  C           1     -41.362  61.116 -58.853  0.00  0.00     0.201 C 
ENDBRANCH  30  31
ENDBRANCH  29  30
ENDBRANCH   8  29
BRANCH   2  33
HETATM   33  O           1     -42.980  62.600 -51.204  0.00  0.00    -0.349 OA
BRANCH  33  34
HETATM   34  C           1     -43.167  63.900 -51.697  0.00  0.00     0.171 C 
HETATM   35  C           1     -43.130  63.850 -53.223  0.00  0.00     0.034 C 
ENDBRANCH  33  34
ENDBRANCH   2  33
TORSDOF 7
ENDMDL
MODEL 7
REMARK VINA RESULT:      -7.0      4.328      6.656
REMARK  7 active torsions:
REMARK  status: ('A' for Active; 'I' for Inactive)
REMARK    1  A    between atoms: C_6  and  O_7 
REMARK    2  A    between atoms: O_7  and  C_8 
REMARK    3  A    between atoms: C_11  and  C_12 
REMARK       I    between atoms: C_12  and  N_13 
REMARK    4  A    between atoms: N_13  and  C_14 
REMARK    5  A    between atoms: N_22  and  C_23 
REMARK    6  A    between atoms: C_23  and  C_24 
REMARK    7  A    between atoms: C_24  and  O_25 
ROOT
HETATM    1  C           1     -44.984  56.927 -58.602  0.00  0.00     0.113 A 
HETATM    2  C           1     -45.806  56.804 -59.671  0.00  0.00     0.102 A 
HETATM    3  C           1     -43.746  56.391 -58.640  0.00  0.00     0.002 A 
HETATM    4  C           1     -42.815  56.558 -57.465  0.00  0.00     0.138 C 
HETATM    5  C           1     -43.610  56.883 -56.194  0.00  0.00     0.161 C 
HETATM    6  C           1     -44.485  58.094 -56.583  0.00  0.00     0.155 C 
HETATM    7  C           1     -45.297  58.561 -55.363  0.00  0.00     0.072 C 
HETATM    8  N           1     -43.677  59.188 -57.166  0.00  0.00    -0.323 N 
HETATM    9  C           1     -42.373  58.982 -57.598  0.00  0.00     0.172 C 
HETATM   10  S           1     -41.383  60.134 -58.036  0.00  0.00    -0.041 SA
HETATM   11  N           1     -41.945  57.688 -57.768  0.00  0.00    -0.357 N 
HETATM   12  O           1     -45.434  57.642 -57.520  0.00  0.00    -0.316 OA
HETATM   13  C           1     -43.325  55.717 -59.720  0.00  0.00     0.012 A 
HETATM   14  C           1     -44.134  55.576 -60.777  0.00  0.00     0.003 A 
HETATM   15  C           1     -45.358  56.120 -60.744  0.00  0.00     0.040 A 
HETATM   16  H           1     -41.026  57.514 -58.176  0.00  0.00     0.162 HD
ENDROOT
BRANCH   5  17
HETATM   17  C           1     -42.707  57.032 -54.962  0.00  0.00     0.233 C 
HETATM   18  N           1     -42.680  55.932 -54.155  0.00  0.00    -0.326 N 
HETATM   19  H           1     -43.210  55.132 -54.465  0.00  0.00     0.169 HD
HETATM   20  O           1     -42.054  58.026 -54.770  0.00  0.00    -0.273 OA
BRANCH  18  21
HETATM   21  C           1     -42.067  55.646 -52.986  0.00  0.00     0.040 A 
HETATM   22  C           1     -41.381  54.484 -52.928  0.00  0.00    -0.035 A 
HETATM   23  C           1     -41.293  53.550 -54.119  0.00  0.00     0.050 C 
HETATM   24  C           1     -40.750  54.142 -51.790  0.00  0.00     0.015 A 
HETATM   25  C           1     -40.779  54.915 -50.693  0.00  0.00    -0.061 A 
HETATM   26  C           1     -40.057  54.494 -49.435  0.00  0.00     0.048 C 
HETATM   27  C           1     -41.465  56.067 -50.759  0.00  0.00     0.009 A 
HETATM   28  C           1     -42.097  56.422 -51.887  0.00  0.00     0.030 A 
ENDBRANCH  18  21
ENDBRANCH   5  17
BRANCH   8  29
HETATM   29  C           1     -44.382  60.451 -57.420  0.00  0.00     0.154 C 
BRANCH  29  30
HETATM   30  C           1     -45.174  60.443 -58.731  0.00  0.00     0.187 C 
BRANCH  30  31
HETATM   31  O           1     -44.332  60.887 -59.768  0.00  0.00    -0.394 OA
HETATM   32  C           1     -44.159  59.910 -60.771  0.00  0.00     0.201 C 
ENDBRANCH  30  31
ENDBRANCH  29  30
ENDBRANCH   8  29
BRANCH   2  33
HETATM   33  O           1     -47.050  57.390 -59.589  0.00  0.00    -0.349 OA
BRANCH  33  34
HETATM   34  C           1     -47.738  57.720 -60.766  0.00  0.00     0.171 C 
HETATM   35  C           1     -47.877  59.239 -60.836  0.00  0.00     0.034 C 
ENDBRANCH  33  34
ENDBRANCH   2  33
TORSDOF 7
ENDMDL
MODEL 8
REMARK VINA RESULT:      -7.0      3.770      5.521
REMARK  7 active torsions:
REMARK  status: ('A' for Active; 'I' for Inactive)
REMARK    1  A    between atoms: C_6  and  O_7 
REMARK    2  A    between atoms: O_7  and  C_8 
REMARK    3  A    between atoms: C_11  and  C_12 
REMARK       I    between atoms: C_12  and  N_13 
REMARK    4  A    between atoms: N_13  and  C_14 
REMARK    5  A    between atoms: N_22  and  C_23 
REMARK    6  A    between atoms: C_23  and  C_24 
REMARK    7  A    between atoms: C_24  and  O_25 
ROOT
HETATM    1  C           1     -45.837  58.029 -57.795  0.00  0.00     0.113 A 
HETATM    2  C           1     -46.939  58.447 -58.462  0.00  0.00     0.102 A 
HETATM    3  C           1     -44.869  57.354 -58.450  0.00  0.00     0.002 A 
HETATM    4  C           1     -43.624  56.919 -57.718  0.00  0.00     0.138 C 
HETATM    5  C           1     -43.882  56.870 -56.206  0.00  0.00     0.161 C 
HETATM    6  C           1     -44.454  58.262 -55.865  0.00  0.00     0.155 C 
HETATM    7  C           1     -44.703  58.366 -54.351  0.00  0.00     0.072 C 
HETATM    8  N           1     -43.581  59.350 -56.362  0.00  0.00    -0.323 N 
HETATM    9  C           1     -42.578  59.113 -57.292  0.00  0.00     0.172 C 
HETATM   10  S           1     -41.480  60.169 -57.713  0.00  0.00    -0.041 SA
HETATM   11  N           1     -42.601  57.925 -57.981  0.00  0.00    -0.357 N 
HETATM   12  O           1     -45.725  58.352 -56.465  0.00  0.00    -0.316 OA
HETATM   13  C           1     -44.995  57.073 -59.756  0.00  0.00     0.012 A 
HETATM   14  C           1     -46.086  57.468 -60.422  0.00  0.00     0.003 A 
HETATM   15  C           1     -47.040  58.150 -59.773  0.00  0.00     0.040 A 
HETATM   16  H           1     -41.933  57.770 -58.735  0.00  0.00     0.162 HD
ENDROOT
BRANCH   5  17
HETATM   17  C           1     -42.650  56.402 -55.419  0.00  0.00     0.233 C 
HETATM   18  N           1     -42.723  55.109 -54.988  0.00  0.00    -0.326 N 
HETATM   19  H           1     -43.541  54.588 -55.262  0.00  0.00     0.169 HD
HETATM   20  O           1     -41.695  57.118 -55.248  0.00  0.00    -0.273 OA
BRANCH  18  21
HETATM   21  C           1     -41.907  54.322 -54.255  0.00  0.00     0.040 A 
HETATM   22  C           1     -42.124  54.296 -52.922  0.00  0.00    -0.035 A 
HETATM   23  C           1     -43.235  55.102 -52.279  0.00  0.00     0.050 C 
HETATM   24  C           1     -41.341  53.532 -52.137  0.00  0.00     0.015 A 
HETATM   25  C           1     -40.339  52.788 -52.630  0.00  0.00    -0.061 A 
HETATM   26  C           1     -39.485  51.944 -51.714  0.00  0.00     0.048 C 
HETATM   27  C           1     -40.130  52.822 -53.956  0.00  0.00     0.009 A 
HETATM   28  C           1     -40.902  53.577 -54.750  0.00  0.00     0.030 A 
ENDBRANCH  18  21
ENDBRANCH   5  17
BRANCH   8  29
HETATM   29  C           1     -43.944  60.712 -55.951  0.00  0.00     0.154 C 
BRANCH  29  30
HETATM   30  C           1     -44.749  61.466 -57.014  0.00  0.00     0.187 C 
BRANCH  30  31
HETATM   31  O           1     -45.652  62.329 -56.367  0.00  0.00    -0.394 OA
HETATM   32  C           1     -46.281  61.715 -55.262  0.00  0.00     0.201 C 
ENDBRANCH  30  31
ENDBRANCH  29  30
ENDBRANCH   8  29
BRANCH   2  33
HETATM   33  O           1     -47.884  59.152 -57.751  0.00  0.00    -0.349 OA
BRANCH  33  34
HETATM   34  C           1     -48.355  60.376 -58.251  0.00  0.00     0.171 C 
HETATM   35  C           1     -49.722  60.658 -57.631  0.00  0.00     0.034 C 
ENDBRANCH  33  34
ENDBRANCH   2  33
TORSDOF 7
ENDMDL
MODEL 9
REMARK VINA RESULT:      -7.0      4.194      6.488
REMARK  7 active torsions:
REMARK  status: ('A' for Active; 'I' for Inactive)
REMARK    1  A    between atoms: C_6  and  O_7 
REMARK    2  A    between atoms: O_7  and  C_8 
REMARK    3  A    between atoms: C_11  and  C_12 
REMARK       I    between atoms: C_12  and  N_13 
REMARK    4  A    between atoms: N_13  and  C_14 
REMARK    5  A    between atoms: N_22  and  C_23 
REMARK    6  A    between atoms: C_23  and  C_24 
REMARK    7  A    between atoms: C_24  and  O_25 
ROOT
HETATM    1  C           1     -42.103  59.399 -58.661  0.00  0.00     0.113 A 
HETATM    2  C           1     -41.831  60.259 -59.672  0.00  0.00     0.102 A 
HETATM    3  C           1     -42.173  59.853 -57.392  0.00  0.00     0.002 A 
HETATM    4  C           1     -42.511  58.904 -56.269  0.00  0.00     0.138 C 
HETATM    5  C           1     -42.223  57.456 -56.687  0.00  0.00     0.161 C 
HETATM    6  C           1     -42.983  57.278 -58.018  0.00  0.00     0.155 C 
HETATM    7  C           1     -42.822  55.833 -58.519  0.00  0.00     0.072 C 
HETATM    8  N           1     -44.405  57.669 -57.893  0.00  0.00    -0.323 N 
HETATM    9  C           1     -44.867  58.407 -56.811  0.00  0.00     0.172 C 
HETATM   10  S           1     -46.392  58.684 -56.502  0.00  0.00    -0.041 SA
HETATM   11  N           1     -43.941  59.036 -56.015  0.00  0.00    -0.357 N 
HETATM   12  O           1     -42.343  58.085 -58.978  0.00  0.00    -0.316 OA
HETATM   13  C           1     -41.957  61.147 -57.115  0.00  0.00     0.012 A 
HETATM   14  C           1     -41.673  62.003 -58.103  0.00  0.00     0.003 A 
HETATM   15  C           1     -41.617  61.555 -59.365  0.00  0.00     0.040 A 
HETATM   16  H           1     -44.260  59.661 -55.274  0.00  0.00     0.162 HD
ENDROOT
BRANCH   5  17
HETATM   17  C           1     -42.522  56.454 -55.563  0.00  0.00     0.233 C 
HETATM   18  N           1     -41.463  56.208 -54.740  0.00  0.00    -0.326 N 
HETATM   19  H           1     -40.620  56.731 -54.919  0.00  0.00     0.169 HD
HETATM   20  O           1     -43.618  55.974 -55.416  0.00  0.00    -0.273 OA
BRANCH  18  21
HETATM   21  C           1     -41.276  55.396 -53.677  0.00  0.00     0.040 A 
HETATM   22  C           1     -40.637  54.229 -53.909  0.00  0.00    -0.035 A 
HETATM   23  C           1     -40.144  53.851 -55.292  0.00  0.00     0.050 C 
HETATM   24  C           1     -40.422  53.376 -52.891  0.00  0.00     0.015 A 
HETATM   25  C           1     -40.826  53.638 -51.638  0.00  0.00    -0.061 A 
HETATM   26  C           1     -40.564  52.653 -50.523  0.00  0.00     0.048 C 
HETATM   27  C           1     -41.461  54.799 -51.417  0.00  0.00     0.009 A 
HETATM   28  C           1     -41.681  55.660 -52.422  0.00  0.00     0.030 A 
ENDBRANCH  18  21
ENDBRANCH   5  17
BRANCH   8  29
HETATM   29  C           1     -45.260  57.385 -59.052  0.00  0.00     0.154 C 
BRANCH  29  30
HETATM   30  C           1     -45.485  58.608 -59.946  0.00  0.00     0.187 C 
BRANCH  30  31
HETATM   31  O           1     -46.868  58.759 -60.163  0.00  0.00    -0.394 OA
HETATM   32  C           1     -47.148  59.548 -61.300  0.00  0.00     0.201 C 
ENDBRANCH  30  31
ENDBRANCH  29  30
ENDBRANCH   8  29
BRANCH   2  33
HETATM   33  O           1     -41.795  59.748 -60.950  0.00  0.00    -0.349 OA
BRANCH  33  34
HETATM   34  C           1     -42.087  60.585 -62.038  0.00  0.00     0.171 C 
HETATM   35  C           1     -43.605  60.711 -62.157  0.00  0.00     0.034 C 
ENDBRANCH  33  34
ENDBRANCH   2  33
TORSDOF 7
ENDMDL
MODEL 10
REMARK VINA RESULT:      -6.8      3.575      6.243
REMARK  7 active torsions:
REMARK  status: ('A' for Active; 'I' for Inactive)
REMARK    1  A    between atoms: C_6  and  O_7 
REMARK    2  A    between atoms: O_7  and  C_8 
REMARK    3  A    between atoms: C_11  and  C_12 
REMARK       I    between atoms: C_12  and  N_13 
REMARK    4  A    between atoms: N_13  and  C_14 
REMARK    5  A    between atoms: N_22  and  C_23 
REMARK    6  A    between atoms: C_23  and  C_24 
REMARK    7  A    between atoms: C_24  and  O_25 
ROOT
HETATM    1  C           1     -43.767  57.585 -58.061  0.00  0.00     0.113 A 
HETATM    2  C           1     -44.350  57.527 -59.282  0.00  0.00     0.102 A 
HETATM    3  C           1     -42.478  57.967 -57.949  0.00  0.00     0.002 A 
HETATM    4  C           1     -41.836  58.068 -56.587  0.00  0.00     0.138 C 
HETATM    5  C           1     -42.611  57.224 -55.567  0.00  0.00     0.161 C 
HETATM    6  C           1     -44.073  57.701 -55.699  0.00  0.00     0.155 C 
HETATM    7  C           1     -44.954  56.966 -54.675  0.00  0.00     0.072 C 
HETATM    8  N           1     -44.181  59.173 -55.573  0.00  0.00    -0.323 N 
HETATM    9  C           1     -43.068  59.997 -55.665  0.00  0.00     0.172 C 
HETATM   10  S           1     -43.070  61.544 -55.338  0.00  0.00    -0.041 SA
HETATM   11  N           1     -41.912  59.467 -56.182  0.00  0.00    -0.357 N 
HETATM   12  O           1     -44.537  57.290 -56.963  0.00  0.00    -0.316 OA
HETATM   13  C           1     -41.757  58.273 -59.038  0.00  0.00     0.012 A 
HETATM   14  C           1     -42.318  58.205 -60.251  0.00  0.00     0.003 A 
HETATM   15  C           1     -43.603  57.838 -60.360  0.00  0.00     0.040 A 
HETATM   16  H           1     -41.112  60.078 -56.350  0.00  0.00     0.162 HD
ENDROOT
BRANCH   5  17
HETATM   17  C           1     -41.977  57.270 -54.170  0.00  0.00     0.233 C 
HETATM   18  N           1     -42.030  56.085 -53.495  0.00  0.00    -0.326 N 
HETATM   19  H           1     -42.432  55.302 -53.988  0.00  0.00     0.169 HD
HETATM   20  O           1     -41.445  58.265 -53.746  0.00  0.00    -0.273 OA
BRANCH  18  21
HETATM   21  C           1     -41.637  55.693 -52.264  0.00  0.00     0.040 A 
HETATM   22  C           1     -40.975  54.519 -52.183  0.00  0.00    -0.035 A 
HETATM   23  C           1     -40.676  53.685 -53.413  0.00  0.00     0.050 C 
HETATM   24  C           1     -40.560  54.073 -50.983  0.00  0.00     0.015 A 
HETATM   25  C           1     -40.784  54.752 -49.848  0.00  0.00    -0.061 A 
HETATM   26  C           1     -40.300  54.217 -48.521  0.00  0.00     0.048 C 
HETATM   27  C           1     -41.444  55.918 -49.938  0.00  0.00     0.009 A 
HETATM   28  C           1     -41.863  56.375 -51.127  0.00  0.00     0.030 A 
ENDBRANCH  18  21
ENDBRANCH   5  17
BRANCH   8  29
HETATM   29  C           1     -45.543  59.720 -55.517  0.00  0.00     0.154 C 
BRANCH  29  30
HETATM   30  C           1     -46.066  60.167 -56.886  0.00  0.00     0.187 C 
BRANCH  30  31
HETATM   31  O           1     -46.541  61.487 -56.777  0.00  0.00    -0.394 OA
HETATM   32  C           1     -46.693  61.891 -55.433  0.00  0.00     0.201 C 
ENDBRANCH  30  31
ENDBRANCH  29  30
ENDBRANCH   8  29
BRANCH   2  33
HETATM   33  O           1     -45.675  57.154 -59.338  0.00  0.00    -0.349 OA
BRANCH  33  34
HETATM   34  C           1     -46.081  56.183 -60.265  0.00  0.00     0.171 C 
HETATM   35  C           1     -45.274  54.911 -60.018  0.00  0.00     0.034 C 
ENDBRANCH  33  34
ENDBRANCH   2  33
TORSDOF 7
ENDMDL
