MODEL 1
REMARK VINA RESULT:      -8.7      0.000      0.000
REMARK  9 active torsions:
REMARK  status: ('A' for Active; 'I' for Inactive)
REMARK    1  A    between atoms: C_7  and  C_8 
REMARK    2  A    between atoms: C_9  and  O_10 
REMARK    3  A    between atoms: C_13  and  N_14 
REMARK    4  A    between atoms: N_14  and  C_15 
REMARK    5  A    between atoms: C_15  and  N_16 
REMARK       I    between atoms: N_16  and  C_17 
REMARK    6  A    between atoms: C_17  and  C_18 
REMARK    7  A    between atoms: C_21  and  O_22 
REMARK    8  A    between atoms: O_22  and  C_23 
REMARK    9  A    between atoms: C_23  and  C_24 
ROOT
HETATM    1  C   UNL     1     -42.775  56.287 -53.991  1.00  0.00     0.052 A 
HETATM    2  C   UNL     1     -44.146  56.225 -54.277  1.00  0.00     0.080 A 
HETATM    3  C   UNL     1     -44.912  57.385 -54.358  1.00  0.00     0.040 A 
HETATM    4  C   UNL     1     -44.324  58.631 -54.124  1.00  0.00     0.032 A 
HETATM    5  C   UNL     1     -42.959  58.724 -53.839  1.00  0.00     0.035 A 
HETATM    6  C   UNL     1     -42.196  57.551 -53.775  1.00  0.00     0.048 A 
ENDROOT
BRANCH   5   7
HETATM    7  N   UNL     1     -42.435  59.996 -53.512  1.00  0.00    -0.337 N 
HETATM    8  H   UNL     1     -41.714  60.009 -52.799  1.00  0.00     0.168 HD
BRANCH   7   9
HETATM    9  C   UNL     1     -42.821  61.220 -54.002  1.00  0.00     0.157 C 
HETATM   10  S   UNL     1     -43.752  62.358 -53.199  1.00  0.00    -0.047 SA
BRANCH   9  11
HETATM   11  N   UNL     1     -42.385  61.541 -55.269  1.00  0.00    -0.201 NA
HETATM   12  C   UNL     1     -43.232  61.507 -56.355  1.00  0.00     0.237 C 
HETATM   13  O   UNL     1     -43.821  62.501 -56.759  1.00  0.00    -0.274 OA
HETATM   14  H   UNL     1     -41.955  62.457 -55.191  1.00  0.00     0.139 HD
BRANCH  12  15
HETATM   15  C   UNL     1     -43.317  60.228 -57.099  1.00  0.00     0.026 A 
HETATM   16  C   UNL     1     -42.167  59.443 -57.235  1.00  0.00     0.019 A 
HETATM   17  C   UNL     1     -42.246  58.180 -57.831  1.00  0.00     0.038 A 
HETATM   18  C   UNL     1     -43.479  57.684 -58.261  1.00  0.00     0.068 A 
HETATM   19  C   UNL     1     -44.619  58.484 -58.148  1.00  0.00     0.038 A 
HETATM   20  C   UNL     1     -44.546  59.756 -57.571  1.00  0.00     0.019 A 
BRANCH  18  21
HETATM   21  O   UNL     1     -43.699  56.445 -58.796  1.00  0.00    -0.351 OA
BRANCH  21  22
HETATM   22  C   UNL     1     -43.740  56.358 -60.223  1.00  0.00     0.179 C 
BRANCH  22  23
HETATM   23  C   UNL     1     -44.816  55.340 -60.634  1.00  0.00     0.002 C 
HETATM   24  C   UNL     1     -44.743  54.101 -59.744  1.00  0.00     0.011 C 
HETATM   25  C   UNL     1     -46.216  55.956 -60.568  1.00  0.00     0.011 C 
ENDBRANCH  22  23
ENDBRANCH  21  22
ENDBRANCH  18  21
ENDBRANCH  12  15
ENDBRANCH   9  11
ENDBRANCH   7   9
ENDBRANCH   5   7
BRANCH   1  26
HETATM   26  C   UNL     1     -41.982  55.069 -53.856  1.00  0.00     0.183 A 
HETATM   27  O   UNL     1     -41.393  54.836 -52.643  1.00  0.00    -0.288 OA
HETATM   28  C   UNL     1     -40.775  53.628 -52.798  1.00  0.00     0.112 A 
HETATM   29  C   UNL     1     -41.021  53.196 -54.091  1.00  0.00     0.094 A 
HETATM   30  C   UNL     1     -40.039  52.929 -51.842  1.00  0.00    -0.025 A 
HETATM   31  C   UNL     1     -40.534  51.946 -54.494  1.00  0.00     0.041 A 
HETATM   32  N   UNL     1     -41.757  54.138 -54.771  1.00  0.00    -0.221 NA
HETATM   33  C   UNL     1     -39.808  51.176 -53.567  1.00  0.00    -0.059 A 
HETATM   34  C   UNL     1     -39.326  49.802 -53.937  1.00  0.00     0.048 C 
HETATM   35  C   UNL     1     -39.573  51.670 -52.269  1.00  0.00     0.016 A 
HETATM   36  C   UNL     1     -39.776  53.423 -50.457  1.00  0.00     0.051 C 
ENDBRANCH   1  26
BRANCH   2  37
HETATM   37  O   UNL     1     -44.813  55.043 -54.474  1.00  0.00    -0.360 OA
HETATM   38  H   UNL     1     -45.435  54.909 -53.728  1.00  0.00     0.217 HD
ENDBRANCH   2  37
TORSDOF 9
ENDMDL
MODEL 2
REMARK VINA RESULT:      -8.6      2.180      3.327
REMARK  9 active torsions:
REMARK  status: ('A' for Active; 'I' for Inactive)
REMARK    1  A    between atoms: C_7  and  C_8 
REMARK    2  A    between atoms: C_9  and  O_10 
REMARK    3  A    between atoms: C_13  and  N_14 
REMARK    4  A    between atoms: N_14  and  C_15 
REMARK    5  A    between atoms: C_15  and  N_16 
REMARK       I    between atoms: N_16  and  C_17 
REMARK    6  A    between atoms: C_17  and  C_18 
REMARK    7  A    between atoms: C_21  and  O_22 
REMARK    8  A    between atoms: O_22  and  C_23 
REMARK    9  A    between atoms: C_23  and  C_24 
ROOT
HETATM    1  C   UNL     1     -43.375  56.170 -53.366  1.00  0.00     0.052 A 
HETATM    2  C   UNL     1     -44.002  56.655 -54.522  1.00  0.00     0.080 A 
HETATM    3  C   UNL     1     -44.887  57.729 -54.458  1.00  0.00     0.040 A 
HETATM    4  C   UNL     1     -45.183  58.321 -53.227  1.00  0.00     0.032 A 
HETATM    5  C   UNL     1     -44.570  57.860 -52.059  1.00  0.00     0.035 A 
HETATM    6  C   UNL     1     -43.672  56.789 -52.138  1.00  0.00     0.048 A 
ENDROOT
BRANCH   5   7
HETATM    7  N   UNL     1     -44.979  58.427 -50.829  1.00  0.00    -0.337 N 
HETATM    8  H   UNL     1     -45.619  57.868 -50.275  1.00  0.00     0.168 HD
BRANCH   7   9
HETATM    9  C   UNL     1     -44.661  59.662 -50.320  1.00  0.00     0.157 C 
HETATM   10  S   UNL     1     -45.727  60.750 -49.622  1.00  0.00    -0.047 SA
BRANCH   9  11
HETATM   11  N   UNL     1     -43.333  60.028 -50.380  1.00  0.00    -0.201 NA
HETATM   12  C   UNL     1     -42.908  61.080 -51.160  1.00  0.00     0.237 C 
HETATM   13  O   UNL     1     -42.768  62.212 -50.716  1.00  0.00    -0.274 OA
HETATM   14  H   UNL     1     -43.040  60.167 -49.418  1.00  0.00     0.139 HD
BRANCH  12  15
HETATM   15  C   UNL     1     -42.510  60.764 -52.552  1.00  0.00     0.026 A 
HETATM   16  C   UNL     1     -41.621  59.708 -52.782  1.00  0.00     0.019 A 
HETATM   17  C   UNL     1     -41.320  59.316 -54.090  1.00  0.00     0.038 A 
HETATM   18  C   UNL     1     -41.932  59.954 -55.171  1.00  0.00     0.068 A 
HETATM   19  C   UNL     1     -42.797  61.027 -54.937  1.00  0.00     0.038 A 
HETATM   20  C   UNL     1     -43.088  61.437 -53.632  1.00  0.00     0.019 A 
BRANCH  18  21
HETATM   21  O   UNL     1     -41.774  59.622 -56.489  1.00  0.00    -0.351 OA
BRANCH  21  22
HETATM   22  C   UNL     1     -42.685  60.219 -57.416  1.00  0.00     0.179 C 
BRANCH  22  23
HETATM   23  C   UNL     1     -43.191  59.142 -58.388  1.00  0.00     0.002 C 
HETATM   24  C   UNL     1     -42.256  57.933 -58.377  1.00  0.00     0.011 C 
HETATM   25  C   UNL     1     -44.618  58.708 -58.040  1.00  0.00     0.011 C 
ENDBRANCH  22  23
ENDBRANCH  21  22
ENDBRANCH  18  21
ENDBRANCH  12  15
ENDBRANCH   9  11
ENDBRANCH   7   9
ENDBRANCH   5   7
BRANCH   1  26
HETATM   26  C   UNL     1     -42.487  55.012 -53.425  1.00  0.00     0.183 A 
HETATM   27  O   UNL     1     -41.724  54.751 -52.319  1.00  0.00    -0.288 OA
HETATM   28  C   UNL     1     -41.049  53.609 -52.640  1.00  0.00     0.112 A 
HETATM   29  C   UNL     1     -41.438  53.240 -53.918  1.00  0.00     0.094 A 
HETATM   30  C   UNL     1     -40.143  52.912 -51.842  1.00  0.00    -0.025 A 
HETATM   31  C   UNL     1     -40.924  52.061 -54.471  1.00  0.00     0.041 A 
HETATM   32  N   UNL     1     -42.324  54.162 -54.426  1.00  0.00    -0.221 NA
HETATM   33  C   UNL     1     -40.027  51.294 -53.705  1.00  0.00    -0.059 A 
HETATM   34  C   UNL     1     -39.504  49.988 -54.234  1.00  0.00     0.048 C 
HETATM   35  C   UNL     1     -39.652  51.722 -52.417  1.00  0.00     0.016 A 
HETATM   36  C   UNL     1     -39.730  53.338 -50.471  1.00  0.00     0.051 C 
ENDBRANCH   1  26
BRANCH   2  37
HETATM   37  O   UNL     1     -43.806  56.104 -55.762  1.00  0.00    -0.360 OA
HETATM   38  H   UNL     1     -44.173  56.716 -56.436  1.00  0.00     0.217 HD
ENDBRANCH   2  37
TORSDOF 9
ENDMDL
MODEL 3
REMARK VINA RESULT:      -8.5      2.547      5.027
REMARK  9 active torsions:
REMARK  status: ('A' for Active; 'I' for Inactive)
REMARK    1  A    between atoms: C_7  and  C_8 
REMARK    2  A    between atoms: C_9  and  O_10 
REMARK    3  A    between atoms: C_13  and  N_14 
REMARK    4  A    between atoms: N_14  and  C_15 
REMARK    5  A    between atoms: C_15  and  N_16 
REMARK       I    between atoms: N_16  and  C_17 
REMARK    6  A    between atoms: C_17  and  C_18 
REMARK    7  A    between atoms: C_21  and  O_22 
REMARK    8  A    between atoms: O_22  and  C_23 
REMARK    9  A    between atoms: C_23  and  C_24 
ROOT
HETATM    1  C   UNL     1     -43.421  55.907 -54.677  1.00  0.00     0.052 A 
HETATM    2  C   UNL     1     -44.190  56.540 -53.690  1.00  0.00     0.080 A 
HETATM    3  C   UNL     1     -45.016  57.616 -54.008  1.00  0.00     0.040 A 
HETATM    4  C   UNL     1     -45.064  58.099 -55.318  1.00  0.00     0.032 A 
HETATM    5  C   UNL     1     -44.310  57.487 -56.323  1.00  0.00     0.035 A 
HETATM    6  C   UNL     1     -43.495  56.397 -55.994  1.00  0.00     0.048 A 
ENDROOT
BRANCH   5   7
HETATM    7  N   UNL     1     -44.318  58.076 -57.609  1.00  0.00    -0.337 N 
HETATM    8  H   UNL     1     -45.113  57.848 -58.196  1.00  0.00     0.168 HD
BRANCH   7   9
HETATM    9  C   UNL     1     -43.356  58.872 -58.180  1.00  0.00     0.157 C 
HETATM   10  S   UNL     1     -42.341  58.447 -59.443  1.00  0.00    -0.047 SA
BRANCH   9  11
HETATM   11  N   UNL     1     -43.229  60.146 -57.668  1.00  0.00    -0.201 NA
HETATM   12  C   UNL     1     -42.113  60.532 -56.959  1.00  0.00     0.237 C 
HETATM   13  O   UNL     1     -41.165  61.099 -57.485  1.00  0.00    -0.274 OA
HETATM   14  H   UNL     1     -43.379  60.775 -58.451  1.00  0.00     0.139 HD
BRANCH  12  15
HETATM   15  C   UNL     1     -42.152  60.335 -55.490  1.00  0.00     0.026 A 
HETATM   16  C   UNL     1     -42.971  61.163 -54.715  1.00  0.00     0.019 A 
HETATM   17  C   UNL     1     -43.114  60.924 -53.344  1.00  0.00     0.038 A 
HETATM   18  C   UNL     1     -42.466  59.838 -52.752  1.00  0.00     0.068 A 
HETATM   19  C   UNL     1     -41.627  59.031 -53.525  1.00  0.00     0.038 A 
HETATM   20  C   UNL     1     -41.463  59.275 -54.892  1.00  0.00     0.019 A 
BRANCH  18  21
HETATM   21  O   UNL     1     -42.577  59.460 -51.441  1.00  0.00    -0.351 OA
BRANCH  21  22
HETATM   22  C   UNL     1     -41.792  60.189 -50.494  1.00  0.00     0.179 C 
BRANCH  22  23
HETATM   23  C   UNL     1     -40.690  59.271 -49.941  1.00  0.00     0.002 C 
HETATM   24  C   UNL     1     -41.040  57.805 -50.197  1.00  0.00     0.011 C 
HETATM   25  C   UNL     1     -39.330  59.604 -50.559  1.00  0.00     0.011 C 
ENDBRANCH  22  23
ENDBRANCH  21  22
ENDBRANCH  18  21
ENDBRANCH  12  15
ENDBRANCH   9  11
ENDBRANCH   7   9
ENDBRANCH   5   7
BRANCH   1  26
HETATM   26  C   UNL     1     -42.518  54.813 -54.335  1.00  0.00     0.183 A 
HETATM   27  O   UNL     1     -41.924  54.853 -53.103  1.00  0.00    -0.288 OA
HETATM   28  C   UNL     1     -41.192  53.702 -53.047  1.00  0.00     0.112 A 
HETATM   29  C   UNL     1     -41.381  53.029 -54.243  1.00  0.00     0.094 A 
HETATM   30  C   UNL     1     -40.404  53.253 -51.987  1.00  0.00    -0.025 A 
HETATM   31  C   UNL     1     -40.773  51.780 -54.424  1.00  0.00     0.041 A 
HETATM   32  N   UNL     1     -42.195  53.763 -55.074  1.00  0.00    -0.221 NA
HETATM   33  C   UNL     1     -39.988  51.257 -53.381  1.00  0.00    -0.059 A 
HETATM   34  C   UNL     1     -39.373  49.892 -53.507  1.00  0.00     0.048 C 
HETATM   35  C   UNL     1     -39.816  51.989 -52.190  1.00  0.00     0.016 A 
HETATM   36  C   UNL     1     -40.205  54.005 -50.712  1.00  0.00     0.051 C 
ENDBRANCH   1  26
BRANCH   2  37
HETATM   37  O   UNL     1     -44.168  56.162 -52.372  1.00  0.00    -0.360 OA
HETATM   38  H   UNL     1     -45.021  56.418 -51.961  1.00  0.00     0.217 HD
ENDBRANCH   2  37
TORSDOF 9
ENDMDL
MODEL 4
REMARK VINA RESULT:      -8.4      1.541      1.868
REMARK  9 active torsions:
REMARK  status: ('A' for Active; 'I' for Inactive)
REMARK    1  A    between atoms: C_7  and  C_8 
REMARK    2  A    between atoms: C_9  and  O_10 
REMARK    3  A    between atoms: C_13  and  N_14 
REMARK    4  A    between atoms: N_14  and  C_15 
REMARK    5  A    between atoms: C_15  and  N_16 
REMARK       I    between atoms: N_16  and  C_17 
REMARK    6  A    between atoms: C_17  and  C_18 
REMARK    7  A    between atoms: C_21  and  O_22 
REMARK    8  A    between atoms: O_22  and  C_23 
REMARK    9  A    between atoms: C_23  and  C_24 
ROOT
HETATM    1  C   UNL     1     -43.346  56.664 -53.222  1.00  0.00     0.052 A 
HETATM    2  C   UNL     1     -44.132  56.941 -52.094  1.00  0.00     0.080 A 
HETATM    3  C   UNL     1     -44.910  58.094 -52.030  1.00  0.00     0.040 A 
HETATM    4  C   UNL     1     -44.893  59.010 -53.085  1.00  0.00     0.032 A 
HETATM    5  C   UNL     1     -44.122  58.760 -54.223  1.00  0.00     0.035 A 
HETATM    6  C   UNL     1     -43.355  57.590 -54.281  1.00  0.00     0.048 A 
ENDROOT
BRANCH   5   7
HETATM    7  N   UNL     1     -44.062  59.764 -55.217  1.00  0.00    -0.337 N 
HETATM    8  H   UNL     1     -44.836  59.787 -55.871  1.00  0.00     0.168 HD
BRANCH   7   9
HETATM    9  C   UNL     1     -43.058  60.676 -55.438  1.00  0.00     0.157 C 
HETATM   10  S   UNL     1     -43.108  62.311 -55.076  1.00  0.00    -0.047 SA
BRANCH   9  11
HETATM   11  N   UNL     1     -41.897  60.188 -55.999  1.00  0.00    -0.201 NA
HETATM   12  C   UNL     1     -41.614  60.357 -57.335  1.00  0.00     0.237 C 
HETATM   13  O   UNL     1     -40.930  61.284 -57.749  1.00  0.00    -0.274 OA
HETATM   14  H   UNL     1     -41.140  60.557 -55.432  1.00  0.00     0.139 HD
BRANCH  12  15
HETATM   15  C   UNL     1     -42.079  59.295 -58.259  1.00  0.00     0.026 A 
HETATM   16  C   UNL     1     -42.265  57.999 -57.765  1.00  0.00     0.019 A 
HETATM   17  C   UNL     1     -42.812  57.007 -58.586  1.00  0.00     0.038 A 
HETATM   18  C   UNL     1     -43.206  57.316 -59.889  1.00  0.00     0.068 A 
HETATM   19  C   UNL     1     -42.992  58.605 -60.386  1.00  0.00     0.038 A 
HETATM   20  C   UNL     1     -42.428  59.596 -59.579  1.00  0.00     0.019 A 
BRANCH  18  21
HETATM   21  O   UNL     1     -43.812  56.457 -60.765  1.00  0.00    -0.351 OA
BRANCH  21  22
HETATM   22  C   UNL     1     -45.038  55.858 -60.336  1.00  0.00     0.179 C 
BRANCH  22  23
HETATM   23  C   UNL     1     -46.153  56.915 -60.373  1.00  0.00     0.002 C 
HETATM   24  C   UNL     1     -47.353  56.394 -61.164  1.00  0.00     0.011 C 
HETATM   25  C   UNL     1     -46.586  57.314 -58.960  1.00  0.00     0.011 C 
ENDBRANCH  22  23
ENDBRANCH  21  22
ENDBRANCH  18  21
ENDBRANCH  12  15
ENDBRANCH   9  11
ENDBRANCH   7   9
ENDBRANCH   5   7
BRANCH   1  26
HETATM   26  C   UNL     1     -42.492  55.482 -53.268  1.00  0.00     0.183 A 
HETATM   27  O   UNL     1     -41.760  55.194 -52.148  1.00  0.00    -0.288 OA
HETATM   28  C   UNL     1     -41.112  54.034 -52.461  1.00  0.00     0.112 A 
HETATM   29  C   UNL     1     -41.484  53.682 -53.748  1.00  0.00     0.094 A 
HETATM   30  C   UNL     1     -40.243  53.307 -51.647  1.00  0.00    -0.025 A 
HETATM   31  C   UNL     1     -40.993  52.491 -54.296  1.00  0.00     0.041 A 
HETATM   32  N   UNL     1     -42.332  54.631 -54.269  1.00  0.00    -0.221 NA
HETATM   33  C   UNL     1     -40.135  51.695 -53.516  1.00  0.00    -0.059 A 
HETATM   34  C   UNL     1     -39.639  50.377 -54.040  1.00  0.00     0.048 C 
HETATM   35  C   UNL     1     -39.775  52.107 -52.218  1.00  0.00     0.016 A 
HETATM   36  C   UNL     1     -39.846  53.715 -50.266  1.00  0.00     0.051 C 
ENDBRANCH   1  26
BRANCH   2  37
HETATM   37  O   UNL     1     -44.172  56.121 -50.995  1.00  0.00    -0.360 OA
HETATM   38  H   UNL     1     -43.394  55.525 -51.024  1.00  0.00     0.217 HD
ENDBRANCH   2  37
TORSDOF 9
ENDMDL
MODEL 5
REMARK VINA RESULT:      -8.3     16.656     20.154
REMARK  9 active torsions:
REMARK  status: ('A' for Active; 'I' for Inactive)
REMARK    1  A    between atoms: C_7  and  C_8 
REMARK    2  A    between atoms: C_9  and  O_10 
REMARK    3  A    between atoms: C_13  and  N_14 
REMARK    4  A    between atoms: N_14  and  C_15 
REMARK    5  A    between atoms: C_15  and  N_16 
REMARK       I    between atoms: N_16  and  C_17 
REMARK    6  A    between atoms: C_17  and  C_18 
REMARK    7  A    between atoms: C_21  and  O_22 
REMARK    8  A    between atoms: O_22  and  C_23 
REMARK    9  A    between atoms: C_23  and  C_24 
ROOT
HETATM    1  C   UNL     1     -35.755  40.572 -53.067  1.00  0.00     0.052 A 
HETATM    2  C   UNL     1     -35.410  41.689 -52.294  1.00  0.00     0.080 A 
HETATM    3  C   UNL     1     -35.177  41.569 -50.927  1.00  0.00     0.040 A 
HETATM    4  C   UNL     1     -35.314  40.328 -50.300  1.00  0.00     0.032 A 
HETATM    5  C   UNL     1     -35.654  39.196 -51.044  1.00  0.00     0.035 A 
HETATM    6  C   UNL     1     -35.871  39.327 -52.422  1.00  0.00     0.048 A 
ENDROOT
BRANCH   5   7
HETATM    7  N   UNL     1     -35.877  37.986 -50.347  1.00  0.00    -0.337 N 
HETATM    8  H   UNL     1     -36.723  37.483 -50.591  1.00  0.00     0.168 HD
BRANCH   7   9
HETATM    9  C   UNL     1     -35.119  37.438 -49.341  1.00  0.00     0.157 C 
HETATM   10  S   UNL     1     -35.511  37.402 -47.713  1.00  0.00    -0.047 SA
BRANCH   9  11
HETATM   11  N   UNL     1     -33.930  36.851 -49.718  1.00  0.00    -0.201 NA
HETATM   12  C   UNL     1     -32.738  37.540 -49.676  1.00  0.00     0.237 C 
HETATM   13  O   UNL     1     -31.980  37.482 -48.717  1.00  0.00    -0.274 OA
HETATM   14  H   UNL     1     -33.858  35.997 -49.174  1.00  0.00     0.139 HD
BRANCH  12  15
HETATM   15  C   UNL     1     -32.346  38.276 -50.902  1.00  0.00     0.026 A 
HETATM   16  C   UNL     1     -32.408  37.621 -52.136  1.00  0.00     0.019 A 
HETATM   17  C   UNL     1     -32.155  38.326 -53.318  1.00  0.00     0.038 A 
HETATM   18  C   UNL     1     -31.874  39.692 -53.272  1.00  0.00     0.068 A 
HETATM   19  C   UNL     1     -31.785  40.335 -52.033  1.00  0.00     0.038 A 
HETATM   20  C   UNL     1     -32.017  39.633 -50.847  1.00  0.00     0.019 A 
BRANCH  18  21
HETATM   21  O   UNL     1     -31.674  40.504 -54.354  1.00  0.00    -0.351 OA
BRANCH  21  22
HETATM   22  C   UNL     1     -32.761  40.625 -55.276  1.00  0.00     0.179 C 
BRANCH  22  23
HETATM   23  C   UNL     1     -32.316  40.101 -56.650  1.00  0.00     0.002 C 
HETATM   24  C   UNL     1     -30.844  39.692 -56.613  1.00  0.00     0.011 C 
HETATM   25  C   UNL     1     -33.180  38.920 -57.099  1.00  0.00     0.011 C 
ENDBRANCH  22  23
ENDBRANCH  21  22
ENDBRANCH  18  21
ENDBRANCH  12  15
ENDBRANCH   9  11
ENDBRANCH   7   9
ENDBRANCH   5   7
BRANCH   1  26
HETATM   26  C   UNL     1     -36.049  40.707 -54.491  1.00  0.00     0.183 A 
HETATM   27  O   UNL     1     -36.477  39.586 -55.150  1.00  0.00    -0.288 OA
HETATM   28  C   UNL     1     -36.716  40.019 -56.423  1.00  0.00     0.112 A 
HETATM   29  C   UNL     1     -36.421  41.372 -56.467  1.00  0.00     0.094 A 
HETATM   30  C   UNL     1     -37.186  39.263 -57.497  1.00  0.00    -0.025 A 
HETATM   31  C   UNL     1     -36.630  42.076 -57.659  1.00  0.00     0.041 A 
HETATM   32  N   UNL     1     -35.959  41.793 -55.241  1.00  0.00    -0.221 NA
HETATM   33  C   UNL     1     -37.132  41.378 -58.772  1.00  0.00    -0.059 A 
HETATM   34  C   UNL     1     -37.435  42.108 -60.051  1.00  0.00     0.048 C 
HETATM   35  C   UNL     1     -37.401  39.999 -58.679  1.00  0.00     0.016 A 
HETATM   36  C   UNL     1     -37.485  37.801 -57.428  1.00  0.00     0.051 C 
ENDBRANCH   1  26
BRANCH   2  37
HETATM   37  O   UNL     1     -35.300  42.952 -52.819  1.00  0.00    -0.360 OA
HETATM   38  H   UNL     1     -36.142  43.429 -52.661  1.00  0.00     0.217 HD
ENDBRANCH   2  37
TORSDOF 9
ENDMDL
MODEL 6
REMARK VINA RESULT:      -8.3      2.467      7.476
REMARK  9 active torsions:
REMARK  status: ('A' for Active; 'I' for Inactive)
REMARK    1  A    between atoms: C_7  and  C_8 
REMARK    2  A    between atoms: C_9  and  O_10 
REMARK    3  A    between atoms: C_13  and  N_14 
REMARK    4  A    between atoms: N_14  and  C_15 
REMARK    5  A    between atoms: C_15  and  N_16 
REMARK       I    between atoms: N_16  and  C_17 
REMARK    6  A    between atoms: C_17  and  C_18 
REMARK    7  A    between atoms: C_21  and  O_22 
REMARK    8  A    between atoms: O_22  and  C_23 
REMARK    9  A    between atoms: C_23  and  C_24 
ROOT
HETATM    1  C   UNL     1     -43.471  58.683 -55.381  1.00  0.00     0.052 A 
HETATM    2  C   UNL     1     -43.942  57.371 -55.528  1.00  0.00     0.080 A 
HETATM    3  C   UNL     1     -44.488  56.681 -54.448  1.00  0.00     0.040 A 
HETATM    4  C   UNL     1     -44.546  57.284 -53.189  1.00  0.00     0.032 A 
HETATM    5  C   UNL     1     -44.087  58.592 -53.012  1.00  0.00     0.035 A 
HETATM    6  C   UNL     1     -43.553  59.280 -54.109  1.00  0.00     0.048 A 
ENDROOT
BRANCH   5   7
HETATM    7  N   UNL     1     -44.076  59.119 -51.700  1.00  0.00    -0.337 N 
HETATM    8  H   UNL     1     -44.920  58.971 -51.156  1.00  0.00     0.168 HD
BRANCH   7   9
HETATM    9  C   UNL     1     -43.087  59.853 -51.092  1.00  0.00     0.157 C 
HETATM   10  S   UNL     1     -43.040  61.521 -50.946  1.00  0.00    -0.047 SA
BRANCH   9  11
HETATM   11  N   UNL     1     -42.045  59.140 -50.539  1.00  0.00    -0.201 NA
HETATM   12  C   UNL     1     -40.930  58.803 -51.274  1.00  0.00     0.237 C 
HETATM   13  O   UNL     1     -39.913  59.484 -51.274  1.00  0.00    -0.274 OA
HETATM   14  H   UNL     1     -41.771  59.651 -49.705  1.00  0.00     0.139 HD
BRANCH  12  15
HETATM   15  C   UNL     1     -40.966  57.503 -51.985  1.00  0.00     0.026 A 
HETATM   16  C   UNL     1     -41.439  56.372 -51.312  1.00  0.00     0.019 A 
HETATM   17  C   UNL     1     -41.591  55.161 -51.995  1.00  0.00     0.038 A 
HETATM   18  C   UNL     1     -41.303  55.085 -53.359  1.00  0.00     0.068 A 
HETATM   19  C   UNL     1     -40.802  56.210 -54.020  1.00  0.00     0.038 A 
HETATM   20  C   UNL     1     -40.629  57.420 -53.340  1.00  0.00     0.019 A 
BRANCH  18  21
HETATM   21  O   UNL     1     -41.471  53.982 -54.151  1.00  0.00    -0.351 OA
BRANCH  21  22
HETATM   22  C   UNL     1     -40.312  53.180 -54.391  1.00  0.00     0.179 C 
BRANCH  22  23
HETATM   23  C   UNL     1     -40.422  51.881 -53.575  1.00  0.00     0.002 C 
HETATM   24  C   UNL     1     -39.980  50.685 -54.418  1.00  0.00     0.011 C 
HETATM   25  C   UNL     1     -39.589  51.960 -52.293  1.00  0.00     0.011 C 
ENDBRANCH  22  23
ENDBRANCH  21  22
ENDBRANCH  18  21
ENDBRANCH  12  15
ENDBRANCH   9  11
ENDBRANCH   7   9
ENDBRANCH   5   7
BRANCH   1  26
HETATM   26  C   UNL     1     -42.852  59.388 -56.499  1.00  0.00     0.183 A 
HETATM   27  O   UNL     1     -43.381  59.174 -57.744  1.00  0.00    -0.288 OA
HETATM   28  C   UNL     1     -42.648  59.984 -58.562  1.00  0.00     0.112 A 
HETATM   29  C   UNL     1     -41.719  60.643 -57.774  1.00  0.00     0.094 A 
HETATM   30  C   UNL     1     -42.797  60.150 -59.939  1.00  0.00    -0.025 A 
HETATM   31  C   UNL     1     -40.866  61.582 -58.369  1.00  0.00     0.041 A 
HETATM   32  N   UNL     1     -41.830  60.227 -56.467  1.00  0.00    -0.221 NA
HETATM   33  C   UNL     1     -40.986  61.818 -59.750  1.00  0.00    -0.059 A 
HETATM   34  C   UNL     1     -40.137  62.865 -60.415  1.00  0.00     0.048 C 
HETATM   35  C   UNL     1     -41.937  61.110 -60.508  1.00  0.00     0.016 A 
HETATM   36  C   UNL     1     -43.799  59.417 -60.769  1.00  0.00     0.051 C 
ENDBRANCH   1  26
BRANCH   2  37
HETATM   37  O   UNL     1     -43.880  56.688 -56.715  1.00  0.00    -0.360 OA
HETATM   38  H   UNL     1     -42.939  56.503 -56.919  1.00  0.00     0.217 HD
ENDBRANCH   2  37
TORSDOF 9
ENDMDL
MODEL 7
REMARK VINA RESULT:      -8.2      2.758      7.050
REMARK  9 active torsions:
REMARK  status: ('A' for Active; 'I' for Inactive)
REMARK    1  A    between atoms: C_7  and  C_8 
REMARK    2  A    between atoms: C_9  and  O_10 
REMARK    3  A    between atoms: C_13  and  N_14 
REMARK    4  A    between atoms: N_14  and  C_15 
REMARK    5  A    between atoms: C_15  and  N_16 
REMARK       I    between atoms: N_16  and  C_17 
REMARK    6  A    between atoms: C_17  and  C_18 
REMARK    7  A    between atoms: C_21  and  O_22 
REMARK    8  A    between atoms: O_22  and  C_23 
REMARK    9  A    between atoms: C_23  and  C_24 
ROOT
HETATM    1  C   UNL     1     -42.678  58.336 -53.572  1.00  0.00     0.052 A 
HETATM    2  C   UNL     1     -41.589  59.162 -53.262  1.00  0.00     0.080 A 
HETATM    3  C   UNL     1     -40.847  58.963 -52.100  1.00  0.00     0.040 A 
HETATM    4  C   UNL     1     -41.202  57.947 -51.208  1.00  0.00     0.032 A 
HETATM    5  C   UNL     1     -42.281  57.106 -51.492  1.00  0.00     0.035 A 
HETATM    6  C   UNL     1     -43.010  57.307 -52.671  1.00  0.00     0.048 A 
ENDROOT
BRANCH   5   7
HETATM    7  N   UNL     1     -42.659  56.159 -50.511  1.00  0.00    -0.337 N 
HETATM    8  H   UNL     1     -43.509  56.368 -49.999  1.00  0.00     0.168 HD
BRANCH   7   9
HETATM    9  C   UNL     1     -41.988  55.024 -50.130  1.00  0.00     0.157 C 
HETATM   10  S   UNL     1     -40.940  54.883 -48.830  1.00  0.00    -0.047 SA
BRANCH   9  11
HETATM   11  N   UNL     1     -42.215  53.892 -50.884  1.00  0.00    -0.201 NA
HETATM   12  C   UNL     1     -41.351  53.507 -51.885  1.00  0.00     0.237 C 
HETATM   13  O   UNL     1     -40.453  52.696 -51.701  1.00  0.00    -0.274 OA
HETATM   14  H   UNL     1     -42.338  53.135 -50.219  1.00  0.00     0.139 HD
BRANCH  12  15
HETATM   15  C   UNL     1     -41.625  54.030 -53.245  1.00  0.00     0.026 A 
HETATM   16  C   UNL     1     -42.910  53.893 -53.780  1.00  0.00     0.019 A 
HETATM   17  C   UNL     1     -43.224  54.480 -55.010  1.00  0.00     0.038 A 
HETATM   18  C   UNL     1     -42.266  55.232 -55.692  1.00  0.00     0.068 A 
HETATM   19  C   UNL     1     -40.975  55.342 -55.166  1.00  0.00     0.038 A 
HETATM   20  C   UNL     1     -40.648  54.743 -53.947  1.00  0.00     0.019 A 
BRANCH  18  21
HETATM   21  O   UNL     1     -42.467  55.908 -56.865  1.00  0.00    -0.351 OA
BRANCH  21  22
HETATM   22  C   UNL     1     -43.237  55.240 -57.868  1.00  0.00     0.179 C 
BRANCH  22  23
HETATM   23  C   UNL     1     -43.588  56.239 -58.981  1.00  0.00     0.002 C 
HETATM   24  C   UNL     1     -42.343  56.590 -59.794  1.00  0.00     0.011 C 
HETATM   25  C   UNL     1     -44.679  55.684 -59.901  1.00  0.00     0.011 C 
ENDBRANCH  22  23
ENDBRANCH  21  22
ENDBRANCH  18  21
ENDBRANCH  12  15
ENDBRANCH   9  11
ENDBRANCH   7   9
ENDBRANCH   5   7
BRANCH   1  26
HETATM   26  C   UNL     1     -43.486  58.576 -54.763  1.00  0.00     0.183 A 
HETATM   27  O   UNL     1     -42.872  59.187 -55.823  1.00  0.00    -0.288 OA
HETATM   28  C   UNL     1     -43.838  59.233 -56.787  1.00  0.00     0.112 A 
HETATM   29  C   UNL     1     -44.980  58.650 -56.263  1.00  0.00     0.094 A 
HETATM   30  C   UNL     1     -43.718  59.750 -58.077  1.00  0.00    -0.025 A 
HETATM   31  C   UNL     1     -46.114  58.524 -57.075  1.00  0.00     0.041 A 
HETATM   32  N   UNL     1     -44.759  58.270 -54.959  1.00  0.00    -0.221 NA
HETATM   33  C   UNL     1     -46.050  58.999 -58.397  1.00  0.00    -0.059 A 
HETATM   34  C   UNL     1     -47.221  58.824 -59.322  1.00  0.00     0.048 C 
HETATM   35  C   UNL     1     -44.869  59.598 -58.876  1.00  0.00     0.016 A 
HETATM   36  C   UNL     1     -42.479  60.386 -58.615  1.00  0.00     0.051 C 
ENDBRANCH   1  26
BRANCH   2  37
HETATM   37  O   UNL     1     -41.201  60.211 -54.056  1.00  0.00    -0.360 OA
HETATM   38  H   UNL     1     -41.676  61.016 -53.761  1.00  0.00     0.217 HD
ENDBRANCH   2  37
TORSDOF 9
ENDMDL
MODEL 8
REMARK VINA RESULT:      -8.2      2.732      5.313
REMARK  9 active torsions:
REMARK  status: ('A' for Active; 'I' for Inactive)
REMARK    1  A    between atoms: C_7  and  C_8 
REMARK    2  A    between atoms: C_9  and  O_10 
REMARK    3  A    between atoms: C_13  and  N_14 
REMARK    4  A    between atoms: N_14  and  C_15 
REMARK    5  A    between atoms: C_15  and  N_16 
REMARK       I    between atoms: N_16  and  C_17 
REMARK    6  A    between atoms: C_17  and  C_18 
REMARK    7  A    between atoms: C_21  and  O_22 
REMARK    8  A    between atoms: O_22  and  C_23 
REMARK    9  A    between atoms: C_23  and  C_24 
ROOT
HETATM    1  C   UNL     1     -43.875  58.560 -53.216  1.00  0.00     0.052 A 
HETATM    2  C   UNL     1     -43.607  59.936 -53.176  1.00  0.00     0.080 A 
HETATM    3  C   UNL     1     -44.190  60.806 -54.094  1.00  0.00     0.040 A 
HETATM    4  C   UNL     1     -45.033  60.309 -55.092  1.00  0.00     0.032 A 
HETATM    5  C   UNL     1     -45.321  58.943 -55.155  1.00  0.00     0.035 A 
HETATM    6  C   UNL     1     -44.740  58.081 -54.217  1.00  0.00     0.048 A 
ENDROOT
BRANCH   5   7
HETATM    7  N   UNL     1     -46.098  58.479 -56.242  1.00  0.00    -0.337 N 
HETATM    8  H   UNL     1     -47.077  58.305 -56.044  1.00  0.00     0.168 HD
BRANCH   7   9
HETATM    9  C   UNL     1     -45.678  58.185 -57.516  1.00  0.00     0.157 C 
HETATM   10  S   UNL     1     -46.648  57.683 -58.787  1.00  0.00    -0.047 SA
BRANCH   9  11
HETATM   11  N   UNL     1     -44.331  58.333 -57.769  1.00  0.00    -0.201 NA
HETATM   12  C   UNL     1     -43.542  57.263 -58.131  1.00  0.00     0.237 C 
HETATM   13  O   UNL     1     -43.306  56.988 -59.300  1.00  0.00    -0.274 OA
HETATM   14  H   UNL     1     -44.259  59.069 -58.464  1.00  0.00     0.139 HD
BRANCH  12  15
HETATM   15  C   UNL     1     -42.886  56.514 -57.033  1.00  0.00     0.026 A 
HETATM   16  C   UNL     1     -42.006  57.189 -56.181  1.00  0.00     0.019 A 
HETATM   17  C   UNL     1     -41.464  56.535 -55.070  1.00  0.00     0.038 A 
HETATM   18  C   UNL     1     -41.825  55.216 -54.789  1.00  0.00     0.068 A 
HETATM   19  C   UNL     1     -42.682  54.537 -55.660  1.00  0.00     0.038 A 
HETATM   20  C   UNL     1     -43.213  55.178 -56.783  1.00  0.00     0.019 A 
BRANCH  18  21
HETATM   21  O   UNL     1     -41.419  54.489 -53.703  1.00  0.00    -0.351 OA
BRANCH  21  22
HETATM   22  C   UNL     1     -41.565  53.069 -53.788  1.00  0.00     0.179 C 
BRANCH  22  23
HETATM   23  C   UNL     1     -40.191  52.409 -53.592  1.00  0.00     0.002 C 
HETATM   24  C   UNL     1     -39.902  52.213 -52.105  1.00  0.00     0.011 C 
HETATM   25  C   UNL     1     -40.111  51.068 -54.327  1.00  0.00     0.011 C 
ENDBRANCH  22  23
ENDBRANCH  21  22
ENDBRANCH  18  21
ENDBRANCH  12  15
ENDBRANCH   9  11
ENDBRANCH   7   9
ENDBRANCH   5   7
BRANCH   1  26
HETATM   26  C   UNL     1     -43.225  57.642 -52.287  1.00  0.00     0.183 A 
HETATM   27  O   UNL     1     -43.874  56.470 -52.007  1.00  0.00    -0.288 OA
HETATM   28  C   UNL     1     -43.023  55.809 -51.168  1.00  0.00     0.112 A 
HETATM   29  C   UNL     1     -41.909  56.612 -50.985  1.00  0.00     0.094 A 
HETATM   30  C   UNL     1     -43.209  54.549 -50.600  1.00  0.00    -0.025 A 
HETATM   31  C   UNL     1     -40.852  56.140 -50.198  1.00  0.00     0.041 A 
HETATM   32  N   UNL     1     -42.064  57.796 -51.669  1.00  0.00    -0.221 NA
HETATM   33  C   UNL     1     -40.963  54.862 -49.619  1.00  0.00    -0.059 A 
HETATM   34  C   UNL     1     -39.825  54.290 -48.823  1.00  0.00     0.048 C 
HETATM   35  C   UNL     1     -42.124  54.092 -49.824  1.00  0.00     0.016 A 
HETATM   36  C   UNL     1     -44.426  53.707 -50.802  1.00  0.00     0.051 C 
ENDBRANCH   1  26
BRANCH   2  37
HETATM   37  O   UNL     1     -42.756  60.502 -52.261  1.00  0.00    -0.360 OA
HETATM   38  H   UNL     1     -42.701  61.464 -52.442  1.00  0.00     0.217 HD
ENDBRANCH   2  37
TORSDOF 9
ENDMDL
MODEL 9
REMARK VINA RESULT:      -8.1      1.924      2.465
REMARK  9 active torsions:
REMARK  status: ('A' for Active; 'I' for Inactive)
REMARK    1  A    between atoms: C_7  and  C_8 
REMARK    2  A    between atoms: C_9  and  O_10 
REMARK    3  A    between atoms: C_13  and  N_14 
REMARK    4  A    between atoms: N_14  and  C_15 
REMARK    5  A    between atoms: C_15  and  N_16 
REMARK       I    between atoms: N_16  and  C_17 
REMARK    6  A    between atoms: C_17  and  C_18 
REMARK    7  A    between atoms: C_21  and  O_22 
REMARK    8  A    between atoms: O_22  and  C_23 
REMARK    9  A    between atoms: C_23  and  C_24 
ROOT
HETATM    1  C   UNL     1     -43.028  57.176 -51.820  1.00  0.00     0.052 A 
HETATM    2  C   UNL     1     -44.305  57.268 -51.247  1.00  0.00     0.080 A 
HETATM    3  C   UNL     1     -44.942  58.499 -51.111  1.00  0.00     0.040 A 
HETATM    4  C   UNL     1     -44.298  59.669 -51.521  1.00  0.00     0.032 A 
HETATM    5  C   UNL     1     -43.027  59.609 -52.098  1.00  0.00     0.035 A 
HETATM    6  C   UNL     1     -42.403  58.364 -52.243  1.00  0.00     0.048 A 
ENDROOT
BRANCH   5   7
HETATM    7  N   UNL     1     -42.380  60.829 -52.404  1.00  0.00    -0.337 N 
HETATM    8  H   UNL     1     -41.410  60.900 -52.117  1.00  0.00     0.168 HD
BRANCH   7   9
HETATM    9  C   UNL     1     -42.919  61.948 -52.991  1.00  0.00     0.157 C 
HETATM   10  S   UNL     1     -43.602  63.253 -52.192  1.00  0.00    -0.047 SA
BRANCH   9  11
HETATM   11  N   UNL     1     -42.876  62.001 -54.368  1.00  0.00    -0.201 NA
HETATM   12  C   UNL     1     -43.901  61.505 -55.141  1.00  0.00     0.237 C 
HETATM   13  O   UNL     1     -44.809  62.213 -55.559  1.00  0.00    -0.274 OA
HETATM   14  H   UNL     1     -42.700  62.973 -54.602  1.00  0.00     0.139 HD
BRANCH  12  15
HETATM   15  C   UNL     1     -43.804  60.085 -55.553  1.00  0.00     0.026 A 
HETATM   16  C   UNL     1     -42.557  59.567 -55.917  1.00  0.00     0.019 A 
HETATM   17  C   UNL     1     -42.418  58.203 -56.198  1.00  0.00     0.038 A 
HETATM   18  C   UNL     1     -43.516  57.349 -56.082  1.00  0.00     0.068 A 
HETATM   19  C   UNL     1     -44.766  57.877 -55.746  1.00  0.00     0.038 A 
HETATM   20  C   UNL     1     -44.917  59.242 -55.483  1.00  0.00     0.019 A 
BRANCH  18  21
HETATM   21  O   UNL     1     -43.496  55.993 -56.264  1.00  0.00    -0.351 OA
BRANCH  21  22
HETATM   22  C   UNL     1     -42.830  55.511 -57.434  1.00  0.00     0.179 C 
BRANCH  22  23
HETATM   23  C   UNL     1     -43.642  55.908 -58.676  1.00  0.00     0.002 C 
HETATM   24  C   UNL     1     -42.772  56.699 -59.651  1.00  0.00     0.011 C 
HETATM   25  C   UNL     1     -44.228  54.676 -59.372  1.00  0.00     0.011 C 
ENDBRANCH  22  23
ENDBRANCH  21  22
ENDBRANCH  18  21
ENDBRANCH  12  15
ENDBRANCH   9  11
ENDBRANCH   7   9
ENDBRANCH   5   7
BRANCH   1  26
HETATM   26  C   UNL     1     -42.340  55.893 -51.916  1.00  0.00     0.183 A 
HETATM   27  O   UNL     1     -41.801  55.561 -53.129  1.00  0.00    -0.288 OA
HETATM   28  C   UNL     1     -41.193  54.359 -52.907  1.00  0.00     0.112 A 
HETATM   29  C   UNL     1     -41.394  54.028 -51.577  1.00  0.00     0.094 A 
HETATM   30  C   UNL     1     -40.479  53.592 -53.827  1.00  0.00    -0.025 A 
HETATM   31  C   UNL     1     -40.823  52.853 -51.074  1.00  0.00     0.041 A 
HETATM   32  N   UNL     1     -42.160  54.992 -50.963  1.00  0.00    -0.221 NA
HETATM   33  C   UNL     1     -40.064  52.049 -51.943  1.00  0.00    -0.059 A 
HETATM   34  C   UNL     1     -39.378  50.815 -51.428  1.00  0.00     0.048 C 
HETATM   35  C   UNL     1     -39.903  52.422 -53.291  1.00  0.00     0.016 A 
HETATM   36  C   UNL     1     -40.286  53.963 -55.261  1.00  0.00     0.051 C 
ENDBRANCH   1  26
BRANCH   2  37
HETATM   37  O   UNL     1     -44.988  56.176 -50.776  1.00  0.00    -0.360 OA
HETATM   38  H   UNL     1     -44.433  55.728 -50.102  1.00  0.00     0.217 HD
ENDBRANCH   2  37
TORSDOF 9
ENDMDL
MODEL 10
REMARK VINA RESULT:      -7.7      3.052      5.677
REMARK  9 active torsions:
REMARK  status: ('A' for Active; 'I' for Inactive)
REMARK    1  A    between atoms: C_7  and  C_8 
REMARK    2  A    between atoms: C_9  and  O_10 
REMARK    3  A    between atoms: C_13  and  N_14 
REMARK    4  A    between atoms: N_14  and  C_15 
REMARK    5  A    between atoms: C_15  and  N_16 
REMARK       I    between atoms: N_16  and  C_17 
REMARK    6  A    between atoms: C_17  and  C_18 
REMARK    7  A    between atoms: C_21  and  O_22 
REMARK    8  A    between atoms: O_22  and  C_23 
REMARK    9  A    between atoms: C_23  and  C_24 
ROOT
HETATM    1  C   UNL     1     -44.697  58.600 -54.595  1.00  0.00     0.052 A 
HETATM    2  C   UNL     1     -44.812  59.996 -54.655  1.00  0.00     0.080 A 
HETATM    3  C   UNL     1     -45.535  60.611 -55.675  1.00  0.00     0.040 A 
HETATM    4  C   UNL     1     -46.134  59.838 -56.673  1.00  0.00     0.032 A 
HETATM    5  C   UNL     1     -46.039  58.445 -56.637  1.00  0.00     0.035 A 
HETATM    6  C   UNL     1     -45.322  57.837 -55.599  1.00  0.00     0.048 A 
ENDROOT
BRANCH   5   7
HETATM    7  N   UNL     1     -46.577  57.716 -57.723  1.00  0.00    -0.337 N 
HETATM    8  H   UNL     1     -47.472  57.267 -57.556  1.00  0.00     0.168 HD
BRANCH   7   9
HETATM    9  C   UNL     1     -46.013  57.496 -58.956  1.00  0.00     0.157 C 
HETATM   10  S   UNL     1     -46.816  56.992 -60.337  1.00  0.00    -0.047 SA
BRANCH   9  11
HETATM   11  N   UNL     1     -44.658  57.728 -59.062  1.00  0.00    -0.201 NA
HETATM   12  C   UNL     1     -43.758  56.696 -59.208  1.00  0.00     0.237 C 
HETATM   13  O   UNL     1     -43.356  56.326 -60.304  1.00  0.00    -0.274 OA
HETATM   14  H   UNL     1     -44.549  58.395 -59.819  1.00  0.00     0.139 HD
BRANCH  12  15
HETATM   15  C   UNL     1     -43.195  56.117 -57.965  1.00  0.00     0.026 A 
HETATM   16  C   UNL     1     -42.345  56.898 -57.176  1.00  0.00     0.019 A 
HETATM   17  C   UNL     1     -41.894  56.417 -55.942  1.00  0.00     0.038 A 
HETATM   18  C   UNL     1     -42.318  55.170 -55.479  1.00  0.00     0.068 A 
HETATM   19  C   UNL     1     -43.145  54.381 -56.285  1.00  0.00     0.038 A 
HETATM   20  C   UNL     1     -43.584  54.847 -57.528  1.00  0.00     0.019 A 
BRANCH  18  21
HETATM   21  O   UNL     1     -42.004  54.617 -54.267  1.00  0.00    -0.351 OA
BRANCH  21  22
HETATM   22  C   UNL     1     -40.636  54.701 -53.858  1.00  0.00     0.179 C 
BRANCH  22  23
HETATM   23  C   UNL     1     -40.143  53.300 -53.463  1.00  0.00     0.002 C 
HETATM   24  C   UNL     1     -40.373  53.055 -51.973  1.00  0.00     0.011 C 
HETATM   25  C   UNL     1     -40.837  52.214 -54.289  1.00  0.00     0.011 C 
ENDBRANCH  22  23
ENDBRANCH  21  22
ENDBRANCH  18  21
ENDBRANCH  12  15
ENDBRANCH   9  11
ENDBRANCH   7   9
ENDBRANCH   5   7
BRANCH   1  26
HETATM   26  C   UNL     1     -43.898  57.958 -53.556  1.00  0.00     0.183 A 
HETATM   27  O   UNL     1     -42.707  58.548 -53.228  1.00  0.00    -0.288 OA
HETATM   28  C   UNL     1     -42.217  57.771 -52.217  1.00  0.00     0.112 A 
HETATM   29  C   UNL     1     -43.132  56.757 -51.988  1.00  0.00     0.094 A 
HETATM   30  C   UNL     1     -41.025  57.953 -51.516  1.00  0.00    -0.025 A 
HETATM   31  C   UNL     1     -42.889  55.842 -50.957  1.00  0.00     0.041 A 
HETATM   32  N   UNL     1     -44.181  56.860 -52.873  1.00  0.00    -0.221 NA
HETATM   33  C   UNL     1     -41.718  55.987 -50.191  1.00  0.00    -0.059 A 
HETATM   34  C   UNL     1     -41.452  55.068 -49.032  1.00  0.00     0.048 C 
HETATM   35  C   UNL     1     -40.813  57.027 -50.475  1.00  0.00     0.016 A 
HETATM   36  C   UNL     1     -40.047  59.048 -51.791  1.00  0.00     0.051 C 
ENDBRANCH   1  26
BRANCH   2  37
HETATM   37  O   UNL     1     -44.217  60.831 -53.745  1.00  0.00    -0.360 OA
HETATM   38  H   UNL     1     -43.261  60.893 -53.957  1.00  0.00     0.217 HD
ENDBRANCH   2  37
TORSDOF 9
ENDMDL
