MODEL 1
REMARK VINA RESULT:      -8.4      0.000      0.000
REMARK  3 active torsions:
REMARK  status: ('A' for Active; 'I' for Inactive)
REMARK    1  A    between atoms: C_2  and  N_3 
REMARK       I    between atoms: N_3  and  C_4 
REMARK    2  A    between atoms: C_4  and  C_5 
REMARK    3  A    between atoms: C_5  and  C_6 
ROOT
HETATM    1  C   UNL     1     -42.013  56.198 -50.541  1.00  0.00     0.286 C 
HETATM    2  N   UNL     1     -41.973  57.240 -51.657  1.00  0.00    -0.056 N 
HETATM    3  H   UNL     1     -42.688  57.944 -51.430  1.00  0.00     0.278 HD
HETATM    4  H   UNL     1     -41.077  57.765 -51.569  1.00  0.00     0.278 HD
HETATM    5  C   UNL     1     -42.204  56.775 -53.064  1.00  0.00     0.209 C 
HETATM    6  C   UNL     1     -43.450  55.858 -53.107  1.00  0.00     0.115 C 
HETATM    7  N   UNL     1     -43.437  54.835 -52.066  1.00  0.00    -0.353 N 
HETATM    8  C   UNL     1     -43.047  55.087 -50.775  1.00  0.00     0.249 C 
HETATM    9  O   UNL     1     -43.438  54.365 -49.863  1.00  0.00    -0.271 OA
HETATM   10  C   UNL     1     -40.941  56.135 -53.638  1.00  0.00     0.035 C 
HETATM   11  C   UNL     1     -41.193  55.574 -55.035  1.00  0.00     0.002 C 
HETATM   12  C   UNL     1     -42.354  54.584 -55.025  1.00  0.00     0.002 C 
HETATM   13  C   UNL     1     -43.633  55.230 -54.493  1.00  0.00     0.027 C 
HETATM   14  H   UNL     1     -44.147  54.105 -52.112  1.00  0.00     0.163 HD
ENDROOT
BRANCH   1  15
HETATM   15  C   UNL     1     -40.658  55.524 -50.261  1.00  0.00     0.146 C 
BRANCH  15  16
HETATM   16  C   UNL     1     -40.735  54.429 -49.237  1.00  0.00     0.224 C 
HETATM   17  N   UNL     1     -40.606  53.116 -49.560  1.00  0.00    -0.327 N 
HETATM   18  H   UNL     1     -40.720  52.526 -48.740  1.00  0.00     0.169 HD
HETATM   19  O   UNL     1     -40.880  54.734 -48.046  1.00  0.00    -0.273 OA
BRANCH  17  20
HETATM   20  C   UNL     1     -40.330  52.415 -50.752  1.00  0.00     0.034 A 
HETATM   21  C   UNL     1     -40.378  52.936 -52.047  1.00  0.00     0.031 A 
HETATM   22  C   UNL     1     -40.057  52.135 -53.153  1.00  0.00     0.026 A 
HETATM   23  C   UNL     1     -39.687  50.807 -52.975  1.00  0.00     0.034 A 
HETATM   24  C   UNL     1     -39.635  50.269 -51.697  1.00  0.00     0.026 A 
HETATM   25 CL   UNL     1     -39.291  49.837 -54.337  1.00  0.00    -0.084 Cl
HETATM   26  C   UNL     1     -39.953  51.070 -50.594  1.00  0.00     0.031 A 
ENDBRANCH  17  20
ENDBRANCH  15  16
ENDBRANCH   1  15
TORSDOF 3
ENDMDL
MODEL 2
REMARK VINA RESULT:      -8.2      1.075      1.212
REMARK  3 active torsions:
REMARK  status: ('A' for Active; 'I' for Inactive)
REMARK    1  A    between atoms: C_2  and  N_3 
REMARK       I    between atoms: N_3  and  C_4 
REMARK    2  A    between atoms: C_4  and  C_5 
REMARK    3  A    between atoms: C_5  and  C_6 
ROOT
HETATM    1  C   UNL     1     -42.530  56.153 -50.585  1.00  0.00     0.286 C 
HETATM    2  N   UNL     1     -41.435  56.816 -51.419  1.00  0.00    -0.056 N 
HETATM    3  H   UNL     1     -41.297  57.757 -51.030  1.00  0.00     0.278 HD
HETATM    4  H   UNL     1     -40.537  56.330 -51.209  1.00  0.00     0.278 HD
HETATM    5  C   UNL     1     -41.657  56.948 -52.897  1.00  0.00     0.209 C 
HETATM    6  C   UNL     1     -43.073  57.514 -53.158  1.00  0.00     0.115 C 
HETATM    7  N   UNL     1     -44.108  56.827 -52.392  1.00  0.00    -0.353 N 
HETATM    8  C   UNL     1     -43.951  56.465 -51.078  1.00  0.00     0.249 C 
HETATM    9  O   UNL     1     -44.935  56.292 -50.366  1.00  0.00    -0.271 OA
HETATM   10  C   UNL     1     -41.376  55.624 -53.608  1.00  0.00     0.035 C 
HETATM   11  C   UNL     1     -41.690  55.721 -55.099  1.00  0.00     0.002 C 
HETATM   12  C   UNL     1     -43.130  56.172 -55.326  1.00  0.00     0.002 C 
HETATM   13  C   UNL     1     -43.407  57.517 -54.655  1.00  0.00     0.027 C 
HETATM   14  H   UNL     1     -45.080  57.043 -52.612  1.00  0.00     0.163 HD
ENDROOT
BRANCH   1  15
HETATM   15  C   UNL     1     -42.398  54.624 -50.475  1.00  0.00     0.146 C 
BRANCH  15  16
HETATM   16  C   UNL     1     -41.286  54.183 -49.569  1.00  0.00     0.224 C 
HETATM   17  N   UNL     1     -40.398  53.216 -49.917  1.00  0.00    -0.327 N 
HETATM   18  H   UNL     1     -39.742  53.034 -49.162  1.00  0.00     0.169 HD
HETATM   19  O   UNL     1     -41.145  54.751 -48.477  1.00  0.00    -0.273 OA
BRANCH  17  20
HETATM   20  C   UNL     1     -40.180  52.448 -51.079  1.00  0.00     0.034 A 
HETATM   21  C   UNL     1     -40.196  52.918 -52.395  1.00  0.00     0.031 A 
HETATM   22  C   UNL     1     -39.940  52.051 -53.467  1.00  0.00     0.026 A 
HETATM   23  C   UNL     1     -39.665  50.708 -53.235  1.00  0.00     0.034 A 
HETATM   24  C   UNL     1     -39.646  50.221 -51.936  1.00  0.00     0.026 A 
HETATM   25 CL   UNL     1     -39.347  49.656 -54.556  1.00  0.00    -0.084 Cl
HETATM   26  C   UNL     1     -39.900  51.087 -50.867  1.00  0.00     0.031 A 
ENDBRANCH  17  20
ENDBRANCH  15  16
ENDBRANCH   1  15
TORSDOF 3
ENDMDL
MODEL 3
REMARK VINA RESULT:      -7.8      2.336      4.515
REMARK  3 active torsions:
REMARK  status: ('A' for Active; 'I' for Inactive)
REMARK    1  A    between atoms: C_2  and  N_3 
REMARK       I    between atoms: N_3  and  C_4 
REMARK    2  A    between atoms: C_4  and  C_5 
REMARK    3  A    between atoms: C_5  and  C_6 
ROOT
HETATM    1  C   UNL     1     -42.332  57.163 -52.107  1.00  0.00     0.286 C 
HETATM    2  N   UNL     1     -42.824  55.728 -51.931  1.00  0.00    -0.056 N 
HETATM    3  H   UNL     1     -43.801  55.787 -51.615  1.00  0.00     0.278 HD
HETATM    4  H   UNL     1     -42.899  55.299 -52.879  1.00  0.00     0.278 HD
HETATM    5  C   UNL     1     -42.078  54.838 -50.983  1.00  0.00     0.209 C 
HETATM    6  C   UNL     1     -41.842  55.586 -49.649  1.00  0.00     0.115 C 
HETATM    7  N   UNL     1     -41.319  56.936 -49.842  1.00  0.00    -0.353 N 
HETATM    8  C   UNL     1     -41.780  57.785 -50.816  1.00  0.00     0.249 C 
HETATM    9  O   UNL     1     -41.643  58.997 -50.689  1.00  0.00    -0.271 OA
HETATM   10  C   UNL     1     -40.800  54.304 -51.630  1.00  0.00     0.035 C 
HETATM   11  C   UNL     1     -39.985  53.475 -50.642  1.00  0.00     0.002 C 
HETATM   12  C   UNL     1     -39.669  54.278 -49.383  1.00  0.00     0.002 C 
HETATM   13  C   UNL     1     -40.944  54.778 -48.705  1.00  0.00     0.027 C 
HETATM   14  H   UNL     1     -41.004  57.443 -49.015  1.00  0.00     0.163 HD
ENDROOT
BRANCH   1  15
HETATM   15  C   UNL     1     -41.265  57.333 -53.202  1.00  0.00     0.146 C 
BRANCH  15  16
HETATM   16  C   UNL     1     -41.822  57.272 -54.595  1.00  0.00     0.224 C 
HETATM   17  N   UNL     1     -41.793  56.141 -55.345  1.00  0.00    -0.327 N 
HETATM   18  H   UNL     1     -42.186  56.306 -56.269  1.00  0.00     0.169 HD
HETATM   19  O   UNL     1     -42.367  58.281 -55.064  1.00  0.00    -0.273 OA
BRANCH  17  20
HETATM   20  C   UNL     1     -41.370  54.815 -55.118  1.00  0.00     0.034 A 
HETATM   21  C   UNL     1     -40.050  54.360 -55.106  1.00  0.00     0.031 A 
HETATM   22  C   UNL     1     -39.759  53.013 -54.843  1.00  0.00     0.026 A 
HETATM   23  C   UNL     1     -40.785  52.110 -54.590  1.00  0.00     0.034 A 
HETATM   24  C   UNL     1     -42.104  52.541 -54.598  1.00  0.00     0.026 A 
HETATM   25 CL   UNL     1     -40.417  50.464 -54.264  1.00  0.00    -0.084 Cl
HETATM   26  C   UNL     1     -42.392  53.885 -54.859  1.00  0.00     0.031 A 
ENDBRANCH  17  20
ENDBRANCH  15  16
ENDBRANCH   1  15
TORSDOF 3
ENDMDL
MODEL 4
REMARK VINA RESULT:      -7.8      2.519      4.299
REMARK  3 active torsions:
REMARK  status: ('A' for Active; 'I' for Inactive)
REMARK    1  A    between atoms: C_2  and  N_3 
REMARK       I    between atoms: N_3  and  C_4 
REMARK    2  A    between atoms: C_4  and  C_5 
REMARK    3  A    between atoms: C_5  and  C_6 
ROOT
HETATM    1  C   UNL     1     -43.424  56.106 -53.752  1.00  0.00     0.286 C 
HETATM    2  N   UNL     1     -44.151  56.286 -52.421  1.00  0.00    -0.056 N 
HETATM    3  H   UNL     1     -44.582  57.219 -52.443  1.00  0.00     0.278 HD
HETATM    4  H   UNL     1     -44.969  55.639 -52.416  1.00  0.00     0.278 HD
HETATM    5  C   UNL     1     -43.350  56.169 -51.158  1.00  0.00     0.209 C 
HETATM    6  C   UNL     1     -42.060  57.013 -51.285  1.00  0.00     0.115 C 
HETATM    7  N   UNL     1     -41.353  56.782 -52.542  1.00  0.00    -0.353 N 
HETATM    8  C   UNL     1     -41.993  56.664 -53.749  1.00  0.00     0.249 C 
HETATM    9  O   UNL     1     -41.388  56.896 -54.791  1.00  0.00    -0.271 OA
HETATM   10  C   UNL     1     -43.101  54.702 -50.806  1.00  0.00     0.035 C 
HETATM   11  C   UNL     1     -42.207  54.574 -49.576  1.00  0.00     0.002 C 
HETATM   12  C   UNL     1     -40.891  55.322 -49.776  1.00  0.00     0.002 C 
HETATM   13  C   UNL     1     -41.131  56.800 -50.085  1.00  0.00     0.027 C 
HETATM   14  H   UNL     1     -40.424  57.191 -52.643  1.00  0.00     0.163 HD
ENDROOT
BRANCH   1  15
HETATM   15  C   UNL     1     -43.357  54.649 -54.240  1.00  0.00     0.146 C 
BRANCH  15  16
HETATM   16  C   UNL     1     -42.371  54.435 -55.352  1.00  0.00     0.224 C 
HETATM   17  N   UNL     1     -41.251  53.682 -55.201  1.00  0.00    -0.327 N 
HETATM   18  H   UNL     1     -40.693  53.684 -56.052  1.00  0.00     0.169 HD
HETATM   19  O   UNL     1     -42.608  54.929 -56.463  1.00  0.00    -0.273 OA
BRANCH  17  20
HETATM   20  C   UNL     1     -40.720  52.900 -54.155  1.00  0.00     0.034 A 
HETATM   21  C   UNL     1     -40.462  53.329 -52.852  1.00  0.00     0.031 A 
HETATM   22  C   UNL     1     -39.952  52.441 -51.893  1.00  0.00     0.026 A 
HETATM   23  C   UNL     1     -39.696  51.116 -52.229  1.00  0.00     0.034 A 
HETATM   24  C   UNL     1     -39.944  50.670 -53.519  1.00  0.00     0.026 A 
HETATM   25 CL   UNL     1     -39.076  50.036 -51.045  1.00  0.00    -0.084 Cl
HETATM   26  C   UNL     1     -40.454  51.557 -54.474  1.00  0.00     0.031 A 
ENDBRANCH  17  20
ENDBRANCH  15  16
ENDBRANCH   1  15
TORSDOF 3
ENDMDL
MODEL 5
REMARK VINA RESULT:      -7.7     13.747     15.786
REMARK  3 active torsions:
REMARK  status: ('A' for Active; 'I' for Inactive)
REMARK    1  A    between atoms: C_2  and  N_3 
REMARK       I    between atoms: N_3  and  C_4 
REMARK    2  A    between atoms: C_4  and  C_5 
REMARK    3  A    between atoms: C_5  and  C_6 
ROOT
HETATM    1  C   UNL     1     -34.745  41.347 -53.645  1.00  0.00     0.286 C 
HETATM    2  N   UNL     1     -34.610  42.001 -52.271  1.00  0.00    -0.056 N 
HETATM    3  H   UNL     1     -34.140  42.904 -52.418  1.00  0.00     0.278 HD
HETATM    4  H   UNL     1     -35.565  42.271 -51.952  1.00  0.00     0.278 HD
HETATM    5  C   UNL     1     -33.864  41.254 -51.205  1.00  0.00     0.209 C 
HETATM    6  C   UNL     1     -32.529  40.726 -51.782  1.00  0.00     0.115 C 
HETATM    7  N   UNL     1     -32.693  40.056 -53.069  1.00  0.00    -0.353 N 
HETATM    8  C   UNL     1     -33.512  40.533 -54.061  1.00  0.00     0.249 C 
HETATM    9  O   UNL     1     -33.311  40.214 -55.229  1.00  0.00    -0.271 OA
HETATM   10  C   UNL     1     -34.745  40.169 -50.585  1.00  0.00     0.035 C 
HETATM   11  C   UNL     1     -33.967  39.341 -49.566  1.00  0.00     0.002 C 
HETATM   12  C   UNL     1     -32.714  38.738 -50.195  1.00  0.00     0.002 C 
HETATM   13  C   UNL     1     -31.805  39.820 -50.779  1.00  0.00     0.027 C 
HETATM   14  H   UNL     1     -31.888  39.558 -53.448  1.00  0.00     0.163 HD
ENDROOT
BRANCH   1  15
HETATM   15  C   UNL     1     -35.977  40.438 -53.790  1.00  0.00     0.146 C 
BRANCH  15  16
HETATM   16  C   UNL     1     -37.281  41.178 -53.706  1.00  0.00     0.224 C 
HETATM   17  N   UNL     1     -37.959  41.591 -54.807  1.00  0.00    -0.327 N 
HETATM   18  H   UNL     1     -38.799  42.103 -54.548  1.00  0.00     0.169 HD
HETATM   19  O   UNL     1     -37.779  41.384 -52.591  1.00  0.00    -0.273 OA
BRANCH  17  20
HETATM   20  C   UNL     1     -37.768  41.447 -56.197  1.00  0.00     0.034 A 
HETATM   21  C   UNL     1     -37.003  42.280 -57.016  1.00  0.00     0.031 A 
HETATM   22  C   UNL     1     -36.874  42.012 -58.387  1.00  0.00     0.026 A 
HETATM   23  C   UNL     1     -37.508  40.911 -58.951  1.00  0.00     0.034 A 
HETATM   24  C   UNL     1     -38.274  40.072 -58.155  1.00  0.00     0.026 A 
HETATM   25 CL   UNL     1     -37.338  40.591 -60.630  1.00  0.00    -0.084 Cl
HETATM   26  C   UNL     1     -38.401  40.339 -56.787  1.00  0.00     0.031 A 
ENDBRANCH  17  20
ENDBRANCH  15  16
ENDBRANCH   1  15
TORSDOF 3
ENDMDL
MODEL 6
REMARK VINA RESULT:      -7.6      2.576      3.310
REMARK  3 active torsions:
REMARK  status: ('A' for Active; 'I' for Inactive)
REMARK    1  A    between atoms: C_2  and  N_3 
REMARK       I    between atoms: N_3  and  C_4 
REMARK    2  A    between atoms: C_4  and  C_5 
REMARK    3  A    between atoms: C_5  and  C_6 
ROOT
HETATM    1  C   UNL     1     -43.398  56.276 -52.047  1.00  0.00     0.286 C 
HETATM    2  N   UNL     1     -43.871  57.202 -50.929  1.00  0.00    -0.056 N 
HETATM    3  H   UNL     1     -44.767  56.827 -50.592  1.00  0.00     0.278 HD
HETATM    4  H   UNL     1     -43.231  57.072 -50.116  1.00  0.00     0.278 HD
HETATM    5  C   UNL     1     -44.064  58.655 -51.250  1.00  0.00     0.209 C 
HETATM    6  C   UNL     1     -44.875  58.791 -52.560  1.00  0.00     0.115 C 
HETATM    7  N   UNL     1     -44.369  57.937 -53.631  1.00  0.00    -0.353 N 
HETATM    8  C   UNL     1     -43.964  56.643 -53.427  1.00  0.00     0.249 C 
HETATM    9  O   UNL     1     -43.956  55.847 -54.361  1.00  0.00    -0.271 OA
HETATM   10  C   UNL     1     -42.723  59.389 -51.270  1.00  0.00     0.035 C 
HETATM   11  C   UNL     1     -42.898  60.846 -51.688  1.00  0.00     0.002 C 
HETATM   12  C   UNL     1     -43.598  60.946 -53.040  1.00  0.00     0.002 C 
HETATM   13  C   UNL     1     -44.960  60.252 -53.016  1.00  0.00     0.027 C 
HETATM   14  H   UNL     1     -44.757  58.071 -54.565  1.00  0.00     0.163 HD
ENDROOT
BRANCH   1  15
HETATM   15  C   UNL     1     -41.869  56.179 -52.179  1.00  0.00     0.146 C 
BRANCH  15  16
HETATM   16  C   UNL     1     -41.197  55.622 -50.957  1.00  0.00     0.224 C 
HETATM   17  N   UNL     1     -40.640  54.383 -50.930  1.00  0.00    -0.327 N 
HETATM   18  H   UNL     1     -40.265  54.172 -50.009  1.00  0.00     0.169 HD
HETATM   19  O   UNL     1     -41.110  56.333 -49.947  1.00  0.00    -0.273 OA
BRANCH  17  20
HETATM   20  C   UNL     1     -40.452  53.364 -51.885  1.00  0.00     0.034 A 
HETATM   21  C   UNL     1     -40.858  53.398 -53.221  1.00  0.00     0.031 A 
HETATM   22  C   UNL     1     -40.589  52.322 -54.079  1.00  0.00     0.026 A 
HETATM   23  C   UNL     1     -39.912  51.202 -53.610  1.00  0.00     0.034 A 
HETATM   24  C   UNL     1     -39.501  51.147 -52.286  1.00  0.00     0.026 A 
HETATM   25 CL   UNL     1     -39.582  49.892 -54.672  1.00  0.00    -0.084 Cl
HETATM   26  C   UNL     1     -39.768  52.222 -51.432  1.00  0.00     0.031 A 
ENDBRANCH  17  20
ENDBRANCH  15  16
ENDBRANCH   1  15
TORSDOF 3
ENDMDL
MODEL 7
REMARK VINA RESULT:      -7.5      4.153      5.371
REMARK  3 active torsions:
REMARK  status: ('A' for Active; 'I' for Inactive)
REMARK    1  A    between atoms: C_2  and  N_3 
REMARK       I    between atoms: N_3  and  C_4 
REMARK    2  A    between atoms: C_4  and  C_5 
REMARK    3  A    between atoms: C_5  and  C_6 
ROOT
HETATM    1  C   UNL     1     -43.339  58.214 -56.344  1.00  0.00     0.286 C 
HETATM    2  N   UNL     1     -42.753  58.364 -57.746  1.00  0.00    -0.056 N 
HETATM    3  H   UNL     1     -42.791  59.365 -57.977  1.00  0.00     0.278 HD
HETATM    4  H   UNL     1     -41.732  58.165 -57.687  1.00  0.00     0.278 HD
HETATM    5  C   UNL     1     -43.398  57.601 -58.865  1.00  0.00     0.209 C 
HETATM    6  C   UNL     1     -44.932  57.791 -58.804  1.00  0.00     0.115 C 
HETATM    7  N   UNL     1     -45.475  57.588 -57.464  1.00  0.00    -0.353 N 
HETATM    8  C   UNL     1     -44.868  58.064 -56.330  1.00  0.00     0.249 C 
HETATM    9  O   UNL     1     -45.527  58.251 -55.313  1.00  0.00    -0.271 OA
HETATM   10  C   UNL     1     -42.953  56.138 -58.853  1.00  0.00     0.035 C 
HETATM   11  C   UNL     1     -43.675  55.332 -59.928  1.00  0.00     0.002 C 
HETATM   12  C   UNL     1     -45.189  55.446 -59.772  1.00  0.00     0.002 C 
HETATM   13  C   UNL     1     -45.648  56.903 -59.829  1.00  0.00     0.027 C 
HETATM   14  H   UNL     1     -46.490  57.555 -57.366  1.00  0.00     0.163 HD
ENDROOT
BRANCH   1  15
HETATM   15  C   UNL     1     -42.748  57.046 -55.537  1.00  0.00     0.146 C 
BRANCH  15  16
HETATM   16  C   UNL     1     -41.852  57.486 -54.415  1.00  0.00     0.224 C 
HETATM   17  N   UNL     1     -41.068  56.620 -53.722  1.00  0.00    -0.327 N 
HETATM   18  H   UNL     1     -40.562  57.099 -52.982  1.00  0.00     0.169 HD
HETATM   19  O   UNL     1     -41.794  58.692 -54.136  1.00  0.00    -0.273 OA
BRANCH  17  20
HETATM   20  C   UNL     1     -40.793  55.241 -53.821  1.00  0.00     0.034 A 
HETATM   21  C   UNL     1     -40.307  54.575 -54.948  1.00  0.00     0.031 A 
HETATM   22  C   UNL     1     -40.051  53.196 -54.910  1.00  0.00     0.026 A 
HETATM   23  C   UNL     1     -40.280  52.471 -53.746  1.00  0.00     0.034 A 
HETATM   24  C   UNL     1     -40.765  53.114 -52.615  1.00  0.00     0.026 A 
HETATM   25 CL   UNL     1     -39.959  50.784 -53.709  1.00  0.00    -0.084 Cl
HETATM   26  C   UNL     1     -41.017  54.490 -52.655  1.00  0.00     0.031 A 
ENDBRANCH  17  20
ENDBRANCH  15  16
ENDBRANCH   1  15
TORSDOF 3
ENDMDL
MODEL 8
REMARK VINA RESULT:      -7.5      3.518      5.116
REMARK  3 active torsions:
REMARK  status: ('A' for Active; 'I' for Inactive)
REMARK    1  A    between atoms: C_2  and  N_3 
REMARK       I    between atoms: N_3  and  C_4 
REMARK    2  A    between atoms: C_4  and  C_5 
REMARK    3  A    between atoms: C_5  and  C_6 
ROOT
HETATM    1  C   UNL     1     -42.770  58.145 -54.684  1.00  0.00     0.286 C 
HETATM    2  N   UNL     1     -43.489  57.778 -53.388  1.00  0.00    -0.056 N 
HETATM    3  H   UNL     1     -44.409  58.237 -53.420  1.00  0.00     0.278 HD
HETATM    4  H   UNL     1     -43.721  56.763 -53.429  1.00  0.00     0.278 HD
HETATM    5  C   UNL     1     -42.832  58.140 -52.089  1.00  0.00     0.209 C 
HETATM    6  C   UNL     1     -42.352  59.610 -52.144  1.00  0.00     0.115 C 
HETATM    7  N   UNL     1     -41.619  59.922 -53.368  1.00  0.00    -0.353 N 
HETATM    8  C   UNL     1     -42.006  59.476 -54.606  1.00  0.00     0.249 C 
HETATM    9  O   UNL     1     -41.648  60.076 -55.614  1.00  0.00    -0.271 OA
HETATM   10  C   UNL     1     -41.729  57.140 -51.742  1.00  0.00     0.035 C 
HETATM   11  C   UNL     1     -40.990  57.552 -50.472  1.00  0.00     0.002 C 
HETATM   12  C   UNL     1     -40.429  58.965 -50.599  1.00  0.00     0.002 C 
HETATM   13  C   UNL     1     -41.533  59.979 -50.903  1.00  0.00     0.027 C 
HETATM   14  H   UNL     1     -41.149  60.825 -53.420  1.00  0.00     0.163 HD
ENDROOT
BRANCH   1  15
HETATM   15  C   UNL     1     -41.789  57.072 -55.184  1.00  0.00     0.146 C 
BRANCH  15  16
HETATM   16  C   UNL     1     -42.454  55.963 -55.948  1.00  0.00     0.224 C 
HETATM   17  N   UNL     1     -42.326  54.657 -55.599  1.00  0.00    -0.327 N 
HETATM   18  H   UNL     1     -42.820  54.055 -56.254  1.00  0.00     0.169 HD
HETATM   19  O   UNL     1     -43.181  56.252 -56.908  1.00  0.00    -0.273 OA
BRANCH  17  20
HETATM   20  C   UNL     1     -41.694  53.974 -54.540  1.00  0.00     0.034 A 
HETATM   21  C   UNL     1     -42.087  53.985 -53.200  1.00  0.00     0.031 A 
HETATM   22  C   UNL     1     -41.383  53.241 -52.241  1.00  0.00     0.026 A 
HETATM   23  C   UNL     1     -40.281  52.480 -52.614  1.00  0.00     0.034 A 
HETATM   24  C   UNL     1     -39.873  52.457 -53.940  1.00  0.00     0.026 A 
HETATM   25 CL   UNL     1     -39.430  51.568 -51.432  1.00  0.00    -0.084 Cl
HETATM   26  C   UNL     1     -40.578  53.198 -54.895  1.00  0.00     0.031 A 
ENDBRANCH  17  20
ENDBRANCH  15  16
ENDBRANCH   1  15
TORSDOF 3
ENDMDL
MODEL 9
REMARK VINA RESULT:      -7.4     13.677     16.625
REMARK  3 active torsions:
REMARK  status: ('A' for Active; 'I' for Inactive)
REMARK    1  A    between atoms: C_2  and  N_3 
REMARK       I    between atoms: N_3  and  C_4 
REMARK    2  A    between atoms: C_4  and  C_5 
REMARK    3  A    between atoms: C_5  and  C_6 
ROOT
HETATM    1  C   UNL     1     -34.187  40.596 -54.970  1.00  0.00     0.286 C 
HETATM    2  N   UNL     1     -32.868  41.003 -54.318  1.00  0.00    -0.056 N 
HETATM    3  H   UNL     1     -32.281  41.402 -55.062  1.00  0.00     0.278 HD
HETATM    4  H   UNL     1     -33.059  41.817 -53.695  1.00  0.00     0.278 HD
HETATM    5  C   UNL     1     -32.073  39.944 -53.613  1.00  0.00     0.209 C 
HETATM    6  C   UNL     1     -31.966  38.692 -54.515  1.00  0.00     0.115 C 
HETATM    7  N   UNL     1     -33.250  38.290 -55.082  1.00  0.00    -0.353 N 
HETATM    8  C   UNL     1     -34.162  39.186 -55.579  1.00  0.00     0.249 C 
HETATM    9  O   UNL     1     -34.995  38.822 -56.402  1.00  0.00    -0.271 OA
HETATM   10  C   UNL     1     -32.654  39.663 -52.227  1.00  0.00     0.035 C 
HETATM   11  C   UNL     1     -31.911  38.521 -51.539  1.00  0.00     0.002 C 
HETATM   12  C   UNL     1     -31.921  37.263 -52.403  1.00  0.00     0.002 C 
HETATM   13  C   UNL     1     -31.301  37.525 -53.776  1.00  0.00     0.027 C 
HETATM   14  H   UNL     1     -33.291  37.396 -55.571  1.00  0.00     0.163 HD
ENDROOT
BRANCH   1  15
HETATM   15  C   UNL     1     -35.404  40.679 -54.033  1.00  0.00     0.146 C 
BRANCH  15  16
HETATM   16  C   UNL     1     -36.147  41.980 -54.131  1.00  0.00     0.224 C 
HETATM   17  N   UNL     1     -36.809  42.361 -55.254  1.00  0.00    -0.327 N 
HETATM   18  H   UNL     1     -37.220  43.284 -55.140  1.00  0.00     0.169 HD
HETATM   19  O   UNL     1     -36.194  42.717 -53.137  1.00  0.00    -0.273 OA
BRANCH  17  20
HETATM   20  C   UNL     1     -37.064  41.758 -56.503  1.00  0.00     0.034 A 
HETATM   21  C   UNL     1     -36.456  42.085 -57.717  1.00  0.00     0.031 A 
HETATM   22  C   UNL     1     -36.782  41.390 -58.891  1.00  0.00     0.026 A 
HETATM   23  C   UNL     1     -37.719  40.362 -58.862  1.00  0.00     0.034 A 
HETATM   24  C   UNL     1     -38.336  40.023 -57.666  1.00  0.00     0.026 A 
HETATM   25 CL   UNL     1     -38.107  39.514 -60.305  1.00  0.00    -0.084 Cl
HETATM   26  C   UNL     1     -38.007  40.716 -56.496  1.00  0.00     0.031 A 
ENDBRANCH  17  20
ENDBRANCH  15  16
ENDBRANCH   1  15
TORSDOF 3
ENDMDL
MODEL 10
REMARK VINA RESULT:      -7.4      2.749      3.602
REMARK  3 active torsions:
REMARK  status: ('A' for Active; 'I' for Inactive)
REMARK    1  A    between atoms: C_2  and  N_3 
REMARK       I    between atoms: N_3  and  C_4 
REMARK    2  A    between atoms: C_4  and  C_5 
REMARK    3  A    between atoms: C_5  and  C_6 
ROOT
HETATM    1  C   UNL     1     -43.324  55.771 -53.669  1.00  0.00     0.286 C 
HETATM    2  N   UNL     1     -44.310  56.660 -52.913  1.00  0.00    -0.056 N 
HETATM    3  H   UNL     1     -45.160  56.102 -52.766  1.00  0.00     0.278 HD
HETATM    4  H   UNL     1     -43.938  56.799 -51.949  1.00  0.00     0.278 HD
HETATM    5  C   UNL     1     -44.708  57.963 -53.541  1.00  0.00     0.209 C 
HETATM    6  C   UNL     1     -45.087  57.727 -55.023  1.00  0.00     0.115 C 
HETATM    7  N   UNL     1     -44.102  56.921 -55.738  1.00  0.00    -0.353 N 
HETATM    8  C   UNL     1     -43.505  55.813 -55.193  1.00  0.00     0.249 C 
HETATM    9  O   UNL     1     -43.036  54.946 -55.924  1.00  0.00    -0.271 OA
HETATM   10  C   UNL     1     -43.622  59.019 -53.338  1.00  0.00     0.035 C 
HETATM   11  C   UNL     1     -43.976  60.319 -54.055  1.00  0.00     0.002 C 
HETATM   12  C   UNL     1     -44.232  60.074 -55.539  1.00  0.00     0.002 C 
HETATM   13  C   UNL     1     -45.348  59.051 -55.751  1.00  0.00     0.027 C 
HETATM   14  H   UNL     1     -44.204  56.839 -56.750  1.00  0.00     0.163 HD
ENDROOT
BRANCH   1  15
HETATM   15  C   UNL     1     -41.847  56.069 -53.364  1.00  0.00     0.146 C 
BRANCH  15  16
HETATM   16  C   UNL     1     -41.479  55.862 -51.923  1.00  0.00     0.224 C 
HETATM   17  N   UNL     1     -40.916  54.712 -51.470  1.00  0.00    -0.327 N 
HETATM   18  H   UNL     1     -40.772  54.748 -50.464  1.00  0.00     0.169 HD
HETATM   19  O   UNL     1     -41.658  56.789 -51.122  1.00  0.00    -0.273 OA
BRANCH  17  20
HETATM   20  C   UNL     1     -40.476  53.520 -52.081  1.00  0.00     0.034 A 
HETATM   21  C   UNL     1     -39.789  52.476 -51.457  1.00  0.00     0.031 A 
HETATM   22  C   UNL     1     -39.426  51.327 -52.176  1.00  0.00     0.026 A 
HETATM   23  C   UNL     1     -39.746  51.211 -53.523  1.00  0.00     0.034 A 
HETATM   24  C   UNL     1     -40.427  52.237 -54.163  1.00  0.00     0.026 A 
HETATM   25 CL   UNL     1     -39.302  49.797 -54.392  1.00  0.00    -0.084 Cl
HETATM   26  C   UNL     1     -40.791  53.382 -53.445  1.00  0.00     0.031 A 
ENDBRANCH  17  20
ENDBRANCH  15  16
ENDBRANCH   1  15
TORSDOF 3
ENDMDL
