MODEL 1
REMARK VINA RESULT:      -8.5      0.000      0.000
REMARK  6 active torsions:
REMARK  status: ('A' for Active; 'I' for Inactive)
REMARK    1  A    between atoms: C_3  and  C_4 
REMARK    2  A    between atoms: C_9  and  N_10 
REMARK       I    between atoms: N_10  and  C_11 
REMARK       I    between atoms: C_11  and  N_12 
REMARK    3  A    between atoms: N_12  and  C_13 
REMARK    4  A    between atoms: C_13  and  C_14 
REMARK    5  A    between atoms: C_14  and  C_15 
REMARK    6  A    between atoms: N_17  and  C_18 
ROOT
HETATM    1  N   UNL     1     -42.243  56.790 -53.935  1.00  0.00    -0.309 N 
HETATM    2  C   UNL     1     -43.156  57.184 -53.000  1.00  0.00     0.320 C 
HETATM    3  N   UNL     1     -42.689  57.383 -51.737  1.00  0.00    -0.343 N 
HETATM    4  O   UNL     1     -44.351  57.393 -53.188  1.00  0.00    -0.247 OA
HETATM    5  H   UNL     1     -41.307  56.628 -53.612  1.00  0.00     0.170 HD
HETATM    6  H   UNL     1     -43.430  57.717 -51.132  1.00  0.00     0.164 HD
ENDROOT
BRANCH   3   7
HETATM    7  C   UNL     1     -41.360  57.266 -51.150  1.00  0.00     0.129 C 
BRANCH   7   8
HETATM    8  C   UNL     1     -41.360  56.385 -49.895  1.00  0.00     0.061 C 
BRANCH   8   9
HETATM    9  C   UNL     1     -40.918  54.986 -50.155  1.00  0.00    -0.020 A 
HETATM   10  C   UNL     1     -40.766  54.348 -51.370  1.00  0.00     0.127 A 
HETATM   11  N   UNL     1     -40.362  53.053 -51.120  1.00  0.00    -0.245 N 
HETATM   12  N   UNL     1     -40.235  52.839 -49.783  1.00  0.00    -0.180 NA
HETATM   13  C   UNL     1     -40.574  53.995 -49.216  1.00  0.00     0.148 A 
BRANCH  11  14
HETATM   14  C   UNL     1     -40.107  52.015 -52.060  1.00  0.00     0.058 A 
HETATM   15  C   UNL     1     -40.235  52.234 -53.438  1.00  0.00     0.031 A 
HETATM   16  C   UNL     1     -39.990  51.192 -54.338  1.00  0.00     0.002 A 
HETATM   17  C   UNL     1     -39.617  49.933 -53.871  1.00  0.00     0.000 A 
HETATM   18  C   UNL     1     -39.485  49.709 -52.503  1.00  0.00     0.002 A 
HETATM   19  C   UNL     1     -39.727  50.746 -51.598  1.00  0.00     0.031 A 
ENDBRANCH  11  14
ENDBRANCH   8   9
ENDBRANCH   7   8
ENDBRANCH   3   7
BRANCH   1  20
HETATM   20  C   UNL     1     -42.455  56.573 -55.313  1.00  0.00     0.036 A 
HETATM   21  C   UNL     1     -42.815  55.346 -55.865  1.00  0.00     0.030 A 
HETATM   22  C   UNL     1     -43.009  55.217 -57.245  1.00  0.00     0.018 A 
HETATM   23  C   UNL     1     -42.861  56.320 -58.097  1.00  0.00     0.015 A 
HETATM   24  C   UNL     1     -42.509  57.572 -57.556  1.00  0.00    -0.046 A 
HETATM   25  C   UNL     1     -42.337  58.802 -58.404  1.00  0.00     0.049 C 
HETATM   26  C   UNL     1     -42.296  57.674 -56.166  1.00  0.00     0.037 A 
BRANCH  23  27
HETATM   27  C   UNL     1     -43.064  56.132 -59.565  1.00  0.00     0.156 C 
HETATM   28  C   UNL     1     -44.464  55.880 -60.066  1.00  0.00     0.097 C 
HETATM   29  O   UNL     1     -42.111  56.158 -60.337  1.00  0.00    -0.293 OA
ENDBRANCH  23  27
ENDBRANCH   1  20
TORSDOF 6
ENDMDL
MODEL 2
REMARK VINA RESULT:      -8.3      1.753      2.269
REMARK  6 active torsions:
REMARK  status: ('A' for Active; 'I' for Inactive)
REMARK    1  A    between atoms: C_3  and  C_4 
REMARK    2  A    between atoms: C_9  and  N_10 
REMARK       I    between atoms: N_10  and  C_11 
REMARK       I    between atoms: C_11  and  N_12 
REMARK    3  A    between atoms: N_12  and  C_13 
REMARK    4  A    between atoms: C_13  and  C_14 
REMARK    5  A    between atoms: C_14  and  C_15 
REMARK    6  A    between atoms: N_17  and  C_18 
ROOT
HETATM    1  N   UNL     1     -43.006  57.959 -54.531  1.00  0.00    -0.309 N 
HETATM    2  C   UNL     1     -42.190  59.004 -54.206  1.00  0.00     0.320 C 
HETATM    3  N   UNL     1     -42.179  59.386 -52.900  1.00  0.00    -0.343 N 
HETATM    4  O   UNL     1     -41.454  59.620 -54.971  1.00  0.00    -0.247 OA
HETATM    5  H   UNL     1     -43.574  57.583 -53.793  1.00  0.00     0.170 HD
HETATM    6  H   UNL     1     -41.510  60.135 -52.754  1.00  0.00     0.164 HD
ENDROOT
BRANCH   3   7
HETATM    7  C   UNL     1     -42.878  58.889 -51.723  1.00  0.00     0.129 C 
BRANCH   7   8
HETATM    8  C   UNL     1     -42.022  57.908 -50.915  1.00  0.00     0.061 C 
BRANCH   8   9
HETATM    9  C   UNL     1     -42.100  56.505 -51.411  1.00  0.00    -0.020 A 
HETATM   10  C   UNL     1     -41.063  55.644 -51.709  1.00  0.00     0.127 A 
HETATM   11  N   UNL     1     -41.612  54.461 -52.159  1.00  0.00    -0.245 N 
HETATM   12  N   UNL     1     -42.971  54.527 -52.148  1.00  0.00    -0.180 NA
HETATM   13  C   UNL     1     -43.252  55.751 -51.707  1.00  0.00     0.148 A 
BRANCH  11  14
HETATM   14  C   UNL     1     -40.936  53.292 -52.607  1.00  0.00     0.058 A 
HETATM   15  C   UNL     1     -40.102  52.560 -51.749  1.00  0.00     0.031 A 
HETATM   16  C   UNL     1     -39.440  51.423 -52.220  1.00  0.00     0.002 A 
HETATM   17  C   UNL     1     -39.604  51.009 -53.540  1.00  0.00     0.000 A 
HETATM   18  C   UNL     1     -40.433  51.729 -54.398  1.00  0.00     0.002 A 
HETATM   19  C   UNL     1     -41.099  52.867 -53.934  1.00  0.00     0.031 A 
ENDBRANCH  11  14
ENDBRANCH   8   9
ENDBRANCH   7   8
ENDBRANCH   3   7
BRANCH   1  20
HETATM   20  C   UNL     1     -43.160  57.339 -55.788  1.00  0.00     0.036 A 
HETATM   21  C   UNL     1     -42.502  56.173 -56.171  1.00  0.00     0.030 A 
HETATM   22  C   UNL     1     -42.714  55.621 -57.440  1.00  0.00     0.018 A 
HETATM   23  C   UNL     1     -43.602  56.220 -58.344  1.00  0.00     0.015 A 
HETATM   24  C   UNL     1     -44.284  57.393 -57.971  1.00  0.00    -0.046 A 
HETATM   25  C   UNL     1     -45.255  58.091 -58.884  1.00  0.00     0.049 C 
HETATM   26  C   UNL     1     -44.039  57.945 -56.697  1.00  0.00     0.037 A 
BRANCH  23  27
HETATM   27  C   UNL     1     -43.785  55.603 -59.693  1.00  0.00     0.156 C 
HETATM   28  C   UNL     1     -44.679  54.395 -59.810  1.00  0.00     0.097 C 
HETATM   29  O   UNL     1     -43.202  56.057 -60.673  1.00  0.00    -0.293 OA
ENDBRANCH  23  27
ENDBRANCH   1  20
TORSDOF 6
ENDMDL
MODEL 3
REMARK VINA RESULT:      -7.9      1.357      2.158
REMARK  6 active torsions:
REMARK  status: ('A' for Active; 'I' for Inactive)
REMARK    1  A    between atoms: C_3  and  C_4 
REMARK    2  A    between atoms: C_9  and  N_10 
REMARK       I    between atoms: N_10  and  C_11 
REMARK       I    between atoms: C_11  and  N_12 
REMARK    3  A    between atoms: N_12  and  C_13 
REMARK    4  A    between atoms: C_13  and  C_14 
REMARK    5  A    between atoms: C_14  and  C_15 
REMARK    6  A    between atoms: N_17  and  C_18 
ROOT
HETATM    1  N   UNL     1     -42.092  57.876 -54.028  1.00  0.00    -0.309 N 
HETATM    2  C   UNL     1     -41.139  58.396 -53.201  1.00  0.00     0.320 C 
HETATM    3  N   UNL     1     -41.162  57.981 -51.906  1.00  0.00    -0.343 N 
HETATM    4  O   UNL     1     -40.254  59.188 -53.514  1.00  0.00    -0.247 OA
HETATM    5  H   UNL     1     -42.769  57.265 -53.609  1.00  0.00     0.170 HD
HETATM    6  H   UNL     1     -40.390  58.386 -51.388  1.00  0.00     0.164 HD
ENDROOT
BRANCH   3   7
HETATM    7  C   UNL     1     -42.022  57.051 -51.186  1.00  0.00     0.129 C 
BRANCH   7   8
HETATM    8  C   UNL     1     -41.310  56.419 -49.984  1.00  0.00     0.061 C 
BRANCH   8   9
HETATM    9  C   UNL     1     -40.867  55.018 -50.228  1.00  0.00    -0.020 A 
HETATM   10  C   UNL     1     -40.767  54.350 -51.432  1.00  0.00     0.127 A 
HETATM   11  N   UNL     1     -40.339  53.066 -51.169  1.00  0.00    -0.245 N 
HETATM   12  N   UNL     1     -40.145  52.888 -49.835  1.00  0.00    -0.180 NA
HETATM   13  C   UNL     1     -40.469  54.054 -49.282  1.00  0.00     0.148 A 
BRANCH  11  14
HETATM   14  C   UNL     1     -40.117  52.005 -52.093  1.00  0.00     0.058 A 
HETATM   15  C   UNL     1     -39.713  50.735 -51.658  1.00  0.00     0.031 A 
HETATM   16  C   UNL     1     -39.491  49.716 -52.589  1.00  0.00     0.002 A 
HETATM   17  C   UNL     1     -39.670  49.955 -53.950  1.00  0.00     0.000 A 
HETATM   18  C   UNL     1     -40.074  51.213 -54.389  1.00  0.00     0.002 A 
HETATM   19  C   UNL     1     -40.300  52.237 -53.464  1.00  0.00     0.031 A 
ENDBRANCH  11  14
ENDBRANCH   8   9
ENDBRANCH   7   8
ENDBRANCH   3   7
BRANCH   1  20
HETATM   20  C   UNL     1     -42.252  58.098 -55.412  1.00  0.00     0.036 A 
HETATM   21  C   UNL     1     -42.111  59.339 -56.027  1.00  0.00     0.030 A 
HETATM   22  C   UNL     1     -42.284  59.471 -57.410  1.00  0.00     0.018 A 
HETATM   23  C   UNL     1     -42.586  58.357 -58.205  1.00  0.00     0.015 A 
HETATM   24  C   UNL     1     -42.721  57.091 -57.603  1.00  0.00    -0.046 A 
HETATM   25  C   UNL     1     -43.039  55.850 -58.390  1.00  0.00     0.049 C 
HETATM   26  C   UNL     1     -42.565  56.985 -56.206  1.00  0.00     0.037 A 
BRANCH  23  27
HETATM   27  C   UNL     1     -42.775  58.548 -59.674  1.00  0.00     0.156 C 
HETATM   28  C   UNL     1     -44.134  58.974 -60.171  1.00  0.00     0.097 C 
HETATM   29  O   UNL     1     -41.853  58.341 -60.457  1.00  0.00    -0.293 OA
ENDBRANCH  23  27
ENDBRANCH   1  20
TORSDOF 6
ENDMDL
MODEL 4
REMARK VINA RESULT:      -7.9      2.623      6.556
REMARK  6 active torsions:
REMARK  status: ('A' for Active; 'I' for Inactive)
REMARK    1  A    between atoms: C_3  and  C_4 
REMARK    2  A    between atoms: C_9  and  N_10 
REMARK       I    between atoms: N_10  and  C_11 
REMARK       I    between atoms: C_11  and  N_12 
REMARK    3  A    between atoms: N_12  and  C_13 
REMARK    4  A    between atoms: C_13  and  C_14 
REMARK    5  A    between atoms: C_14  and  C_15 
REMARK    6  A    between atoms: N_17  and  C_18 
ROOT
HETATM    1  N   UNL     1     -42.173  56.644 -51.732  1.00  0.00    -0.309 N 
HETATM    2  C   UNL     1     -43.392  56.875 -51.163  1.00  0.00     0.320 C 
HETATM    3  N   UNL     1     -43.736  58.177 -50.967  1.00  0.00    -0.343 N 
HETATM    4  O   UNL     1     -44.213  56.028 -50.826  1.00  0.00    -0.247 OA
HETATM    5  H   UNL     1     -41.601  57.448 -51.918  1.00  0.00     0.170 HD
HETATM    6  H   UNL     1     -44.673  58.244 -50.584  1.00  0.00     0.164 HD
ENDROOT
BRANCH   3   7
HETATM    7  C   UNL     1     -43.052  59.431 -51.257  1.00  0.00     0.129 C 
BRANCH   7   8
HETATM    8  C   UNL     1     -43.657  60.151 -52.468  1.00  0.00     0.061 C 
BRANCH   8   9
HETATM    9  C   UNL     1     -43.097  59.693 -53.770  1.00  0.00    -0.020 A 
HETATM   10  C   UNL     1     -43.538  58.663 -54.576  1.00  0.00     0.127 A 
HETATM   11  N   UNL     1     -42.697  58.590 -55.667  1.00  0.00    -0.245 N 
HETATM   12  N   UNL     1     -41.735  59.550 -55.597  1.00  0.00    -0.180 NA
HETATM   13  C   UNL     1     -41.978  60.198 -54.460  1.00  0.00     0.148 A 
BRANCH  11  14
HETATM   14  C   UNL     1     -42.740  57.668 -56.751  1.00  0.00     0.058 A 
HETATM   15  C   UNL     1     -42.484  58.081 -58.066  1.00  0.00     0.031 A 
HETATM   16  C   UNL     1     -42.546  57.156 -59.113  1.00  0.00     0.002 A 
HETATM   17  C   UNL     1     -42.861  55.823 -58.857  1.00  0.00     0.000 A 
HETATM   18  C   UNL     1     -43.113  55.406 -57.552  1.00  0.00     0.002 A 
HETATM   19  C   UNL     1     -43.052  56.324 -56.500  1.00  0.00     0.031 A 
ENDBRANCH  11  14
ENDBRANCH   8   9
ENDBRANCH   7   8
ENDBRANCH   3   7
BRANCH   1  20
HETATM   20  C   UNL     1     -41.607  55.402 -52.089  1.00  0.00     0.036 A 
HETATM   21  C   UNL     1     -41.444  54.335 -51.209  1.00  0.00     0.030 A 
HETATM   22  C   UNL     1     -40.874  53.133 -51.648  1.00  0.00     0.018 A 
HETATM   23  C   UNL     1     -40.471  52.974 -52.980  1.00  0.00     0.015 A 
HETATM   24  C   UNL     1     -40.638  54.038 -53.887  1.00  0.00    -0.046 A 
HETATM   25  C   UNL     1     -40.235  53.942 -55.333  1.00  0.00     0.049 C 
HETATM   26  C   UNL     1     -41.193  55.247 -53.420  1.00  0.00     0.037 A 
BRANCH  23  27
HETATM   27  C   UNL     1     -39.855  51.679 -53.399  1.00  0.00     0.156 C 
HETATM   28  C   UNL     1     -40.629  50.789 -54.337  1.00  0.00     0.097 C 
HETATM   29  O   UNL     1     -38.756  51.341 -52.969  1.00  0.00    -0.293 OA
ENDBRANCH  23  27
ENDBRANCH   1  20
TORSDOF 6
ENDMDL
MODEL 5
REMARK VINA RESULT:      -7.9      2.509      6.870
REMARK  6 active torsions:
REMARK  status: ('A' for Active; 'I' for Inactive)
REMARK    1  A    between atoms: C_3  and  C_4 
REMARK    2  A    between atoms: C_9  and  N_10 
REMARK       I    between atoms: N_10  and  C_11 
REMARK       I    between atoms: C_11  and  N_12 
REMARK    3  A    between atoms: N_12  and  C_13 
REMARK    4  A    between atoms: C_13  and  C_14 
REMARK    5  A    between atoms: C_14  and  C_15 
REMARK    6  A    between atoms: N_17  and  C_18 
ROOT
HETATM    1  N   UNL     1     -41.903  56.178 -52.096  1.00  0.00    -0.309 N 
HETATM    2  C   UNL     1     -42.965  56.359 -51.258  1.00  0.00     0.320 C 
HETATM    3  N   UNL     1     -43.288  57.644 -50.951  1.00  0.00    -0.343 N 
HETATM    4  O   UNL     1     -43.667  55.479 -50.768  1.00  0.00    -0.247 OA
HETATM    5  H   UNL     1     -41.409  57.003 -52.384  1.00  0.00     0.170 HD
HETATM    6  H   UNL     1     -44.114  57.674 -50.364  1.00  0.00     0.164 HD
ENDROOT
BRANCH   3   7
HETATM    7  C   UNL     1     -42.719  58.925 -51.353  1.00  0.00     0.129 C 
BRANCH   7   8
HETATM    8  C   UNL     1     -43.542  59.600 -52.456  1.00  0.00     0.061 C 
BRANCH   8   9
HETATM    9  C   UNL     1     -43.015  59.347 -53.827  1.00  0.00    -0.020 A 
HETATM   10  C   UNL     1     -43.417  58.386 -54.733  1.00  0.00     0.127 A 
HETATM   11  N   UNL     1     -42.629  58.512 -55.858  1.00  0.00    -0.245 N 
HETATM   12  N   UNL     1     -41.742  59.532 -55.712  1.00  0.00    -0.180 NA
HETATM   13  C   UNL     1     -41.975  60.020 -54.496  1.00  0.00     0.148 A 
BRANCH  11  14
HETATM   14  C   UNL     1     -42.657  57.725 -57.044  1.00  0.00     0.058 A 
HETATM   15  C   UNL     1     -43.113  56.399 -57.025  1.00  0.00     0.031 A 
HETATM   16  C   UNL     1     -43.117  55.645 -58.203  1.00  0.00     0.002 A 
HETATM   17  C   UNL     1     -42.670  56.204 -59.398  1.00  0.00     0.000 A 
HETATM   18  C   UNL     1     -42.218  57.521 -59.424  1.00  0.00     0.002 A 
HETATM   19  C   UNL     1     -42.212  58.282 -58.252  1.00  0.00     0.031 A 
ENDBRANCH  11  14
ENDBRANCH   8   9
ENDBRANCH   7   8
ENDBRANCH   3   7
BRANCH   1  20
HETATM   20  C   UNL     1     -41.403  54.962 -52.609  1.00  0.00     0.036 A 
HETATM   21  C   UNL     1     -41.319  54.661 -53.966  1.00  0.00     0.030 A 
HETATM   22  C   UNL     1     -40.805  53.430 -54.390  1.00  0.00     0.018 A 
HETATM   23  C   UNL     1     -40.351  52.483 -53.461  1.00  0.00     0.015 A 
HETATM   24  C   UNL     1     -40.417  52.774 -52.085  1.00  0.00    -0.046 A 
HETATM   25  C   UNL     1     -39.946  51.812 -51.030  1.00  0.00     0.049 C 
HETATM   26  C   UNL     1     -40.959  54.011 -51.679  1.00  0.00     0.037 A 
BRANCH  23  27
HETATM   27  C   UNL     1     -39.824  51.177 -53.960  1.00  0.00     0.156 C 
HETATM   28  C   UNL     1     -40.813  50.138 -54.424  1.00  0.00     0.097 C 
HETATM   29  O   UNL     1     -38.618  50.950 -53.967  1.00  0.00    -0.293 OA
ENDBRANCH  23  27
ENDBRANCH   1  20
TORSDOF 6
ENDMDL
MODEL 6
REMARK VINA RESULT:      -7.9      2.901      7.543
REMARK  6 active torsions:
REMARK  status: ('A' for Active; 'I' for Inactive)
REMARK    1  A    between atoms: C_3  and  C_4 
REMARK    2  A    between atoms: C_9  and  N_10 
REMARK       I    between atoms: N_10  and  C_11 
REMARK       I    between atoms: C_11  and  N_12 
REMARK    3  A    between atoms: N_12  and  C_13 
REMARK    4  A    between atoms: C_13  and  C_14 
REMARK    5  A    between atoms: C_14  and  C_15 
REMARK    6  A    between atoms: N_17  and  C_18 
ROOT
HETATM    1  N   UNL     1     -41.645  57.391 -53.996  1.00  0.00    -0.309 N 
HETATM    2  C   UNL     1     -40.949  58.526 -53.698  1.00  0.00     0.320 C 
HETATM    3  N   UNL     1     -41.615  59.705 -53.836  1.00  0.00    -0.343 N 
HETATM    4  O   UNL     1     -39.789  58.589 -53.303  1.00  0.00    -0.247 OA
HETATM    5  H   UNL     1     -42.580  57.512 -54.342  1.00  0.00     0.170 HD
HETATM    6  H   UNL     1     -41.030  60.481 -53.548  1.00  0.00     0.164 HD
ENDROOT
BRANCH   3   7
HETATM    7  C   UNL     1     -42.977  60.023 -54.245  1.00  0.00     0.129 C 
BRANCH   7   8
HETATM    8  C   UNL     1     -43.027  60.665 -55.637  1.00  0.00     0.061 C 
BRANCH   8   9
HETATM    9  C   UNL     1     -42.967  59.674 -56.748  1.00  0.00    -0.020 A 
HETATM   10  C   UNL     1     -43.936  58.776 -57.146  1.00  0.00     0.127 A 
HETATM   11  N   UNL     1     -43.429  58.045 -58.200  1.00  0.00    -0.245 N 
HETATM   12  N   UNL     1     -42.167  58.453 -58.503  1.00  0.00    -0.180 NA
HETATM   13  C   UNL     1     -41.898  59.420 -57.629  1.00  0.00     0.148 A 
BRANCH  11  14
HETATM   14  C   UNL     1     -44.053  56.987 -58.919  1.00  0.00     0.058 A 
HETATM   15  C   UNL     1     -45.185  57.217 -59.713  1.00  0.00     0.031 A 
HETATM   16  C   UNL     1     -45.786  56.156 -60.398  1.00  0.00     0.002 A 
HETATM   17  C   UNL     1     -45.264  54.868 -60.297  1.00  0.00     0.000 A 
HETATM   18  C   UNL     1     -44.138  54.633 -59.512  1.00  0.00     0.002 A 
HETATM   19  C   UNL     1     -43.531  55.688 -58.825  1.00  0.00     0.031 A 
ENDBRANCH  11  14
ENDBRANCH   8   9
ENDBRANCH   7   8
ENDBRANCH   3   7
BRANCH   1  20
HETATM   20  C   UNL     1     -41.209  56.054 -53.885  1.00  0.00     0.036 A 
HETATM   21  C   UNL     1     -40.628  55.331 -54.924  1.00  0.00     0.030 A 
HETATM   22  C   UNL     1     -40.219  54.007 -54.727  1.00  0.00     0.018 A 
HETATM   23  C   UNL     1     -40.371  53.387 -53.479  1.00  0.00     0.015 A 
HETATM   24  C   UNL     1     -40.946  54.106 -52.413  1.00  0.00    -0.046 A 
HETATM   25  C   UNL     1     -41.137  53.511 -51.045  1.00  0.00     0.049 C 
HETATM   26  C   UNL     1     -41.371  55.431 -52.639  1.00  0.00     0.037 A 
BRANCH  23  27
HETATM   27  C   UNL     1     -39.933  51.968 -53.320  1.00  0.00     0.156 C 
HETATM   28  C   UNL     1     -40.396  50.958 -54.340  1.00  0.00     0.097 C 
HETATM   29  O   UNL     1     -39.235  51.631 -52.368  1.00  0.00    -0.293 OA
ENDBRANCH  23  27
ENDBRANCH   1  20
TORSDOF 6
ENDMDL
MODEL 7
REMARK VINA RESULT:      -7.7      5.480      8.677
REMARK  6 active torsions:
REMARK  status: ('A' for Active; 'I' for Inactive)
REMARK    1  A    between atoms: C_3  and  C_4 
REMARK    2  A    between atoms: C_9  and  N_10 
REMARK       I    between atoms: N_10  and  C_11 
REMARK       I    between atoms: C_11  and  N_12 
REMARK    3  A    between atoms: N_12  and  C_13 
REMARK    4  A    between atoms: C_13  and  C_14 
REMARK    5  A    between atoms: C_14  and  C_15 
REMARK    6  A    between atoms: N_17  and  C_18 
ROOT
HETATM    1  N   UNL     1     -44.409  60.511 -49.636  1.00  0.00    -0.309 N 
HETATM    2  C   UNL     1     -45.079  59.471 -50.213  1.00  0.00     0.320 C 
HETATM    3  N   UNL     1     -44.389  58.730 -51.122  1.00  0.00    -0.343 N 
HETATM    4  O   UNL     1     -46.234  59.128 -49.981  1.00  0.00    -0.247 OA
HETATM    5  H   UNL     1     -43.475  60.682 -49.961  1.00  0.00     0.170 HD
HETATM    6  H   UNL     1     -44.955  57.958 -51.456  1.00  0.00     0.164 HD
ENDROOT
BRANCH   3   7
HETATM    7  C   UNL     1     -43.024  58.812 -51.625  1.00  0.00     0.129 C 
BRANCH   7   8
HETATM    8  C   UNL     1     -42.117  57.739 -51.011  1.00  0.00     0.061 C 
BRANCH   8   9
HETATM    9  C   UNL     1     -41.968  56.528 -51.866  1.00  0.00    -0.020 A 
HETATM   10  C   UNL     1     -41.214  55.398 -51.624  1.00  0.00     0.127 A 
HETATM   11  N   UNL     1     -41.362  54.552 -52.704  1.00  0.00    -0.245 N 
HETATM   12  N   UNL     1     -42.197  55.096 -53.630  1.00  0.00    -0.180 NA
HETATM   13  C   UNL     1     -42.548  56.277 -53.124  1.00  0.00     0.148 A 
BRANCH  11  14
HETATM   14  C   UNL     1     -40.755  53.283 -52.917  1.00  0.00     0.058 A 
HETATM   15  C   UNL     1     -40.829  52.640 -54.161  1.00  0.00     0.031 A 
HETATM   16  C   UNL     1     -40.235  51.387 -54.337  1.00  0.00     0.002 A 
HETATM   17  C   UNL     1     -39.565  50.771 -53.282  1.00  0.00     0.000 A 
HETATM   18  C   UNL     1     -39.484  51.405 -52.044  1.00  0.00     0.002 A 
HETATM   19  C   UNL     1     -40.075  52.658 -51.861  1.00  0.00     0.031 A 
ENDBRANCH  11  14
ENDBRANCH   8   9
ENDBRANCH   7   8
ENDBRANCH   3   7
BRANCH   1  20
HETATM   20  C   UNL     1     -44.873  61.389 -48.634  1.00  0.00     0.036 A 
HETATM   21  C   UNL     1     -45.572  62.567 -48.888  1.00  0.00     0.030 A 
HETATM   22  C   UNL     1     -45.999  63.381 -47.833  1.00  0.00     0.018 A 
HETATM   23  C   UNL     1     -45.747  63.022 -46.502  1.00  0.00     0.015 A 
HETATM   24  C   UNL     1     -45.053  61.830 -46.225  1.00  0.00    -0.046 A 
HETATM   25  C   UNL     1     -44.749  61.376 -44.823  1.00  0.00     0.049 C 
HETATM   26  C   UNL     1     -44.611  61.036 -47.303  1.00  0.00     0.037 A 
BRANCH  23  27
HETATM   27  C   UNL     1     -46.210  63.930 -45.409  1.00  0.00     0.156 C 
HETATM   28  C   UNL     1     -47.642  63.822 -44.948  1.00  0.00     0.097 C 
HETATM   29  O   UNL     1     -45.449  64.758 -44.919  1.00  0.00    -0.293 OA
ENDBRANCH  23  27
ENDBRANCH   1  20
TORSDOF 6
ENDMDL
MODEL 8
REMARK VINA RESULT:      -7.5      3.532      9.586
REMARK  6 active torsions:
REMARK  status: ('A' for Active; 'I' for Inactive)
REMARK    1  A    between atoms: C_3  and  C_4 
REMARK    2  A    between atoms: C_9  and  N_10 
REMARK       I    between atoms: N_10  and  C_11 
REMARK       I    between atoms: C_11  and  N_12 
REMARK    3  A    between atoms: N_12  and  C_13 
REMARK    4  A    between atoms: C_13  and  C_14 
REMARK    5  A    between atoms: C_14  and  C_15 
REMARK    6  A    between atoms: N_17  and  C_18 
ROOT
HETATM    1  N   UNL     1     -42.789  55.262 -56.467  1.00  0.00    -0.309 N 
HETATM    2  C   UNL     1     -43.272  56.530 -56.612  1.00  0.00     0.320 C 
HETATM    3  N   UNL     1     -43.952  56.796 -57.761  1.00  0.00    -0.343 N 
HETATM    4  O   UNL     1     -43.170  57.448 -55.803  1.00  0.00    -0.247 OA
HETATM    5  H   UNL     1     -42.927  54.635 -57.239  1.00  0.00     0.170 HD
HETATM    6  H   UNL     1     -44.308  57.746 -57.752  1.00  0.00     0.164 HD
ENDROOT
BRANCH   3   7
HETATM    7  C   UNL     1     -44.294  55.975 -58.915  1.00  0.00     0.129 C 
BRANCH   7   8
HETATM    8  C   UNL     1     -43.523  56.397 -60.171  1.00  0.00     0.061 C 
BRANCH   8   9
HETATM    9  C   UNL     1     -43.319  57.870 -60.274  1.00  0.00    -0.020 A 
HETATM   10  C   UNL     1     -42.150  58.584 -60.112  1.00  0.00     0.127 A 
HETATM   11  N   UNL     1     -42.446  59.922 -60.273  1.00  0.00    -0.245 N 
HETATM   12  N   UNL     1     -43.767  60.091 -60.549  1.00  0.00    -0.180 NA
HETATM   13  C   UNL     1     -44.281  58.864 -60.540  1.00  0.00     0.148 A 
BRANCH  11  14
HETATM   14  C   UNL     1     -41.566  61.036 -60.170  1.00  0.00     0.058 A 
HETATM   15  C   UNL     1     -41.146  61.738 -61.309  1.00  0.00     0.031 A 
HETATM   16  C   UNL     1     -40.271  62.821 -61.178  1.00  0.00     0.002 A 
HETATM   17  C   UNL     1     -39.813  63.209 -59.921  1.00  0.00     0.000 A 
HETATM   18  C   UNL     1     -40.230  62.518 -58.785  1.00  0.00     0.002 A 
HETATM   19  C   UNL     1     -41.105  61.435 -58.907  1.00  0.00     0.031 A 
ENDBRANCH  11  14
ENDBRANCH   8   9
ENDBRANCH   7   8
ENDBRANCH   3   7
BRANCH   1  20
HETATM   20  C   UNL     1     -42.106  54.718 -55.359  1.00  0.00     0.036 A 
HETATM   21  C   UNL     1     -40.761  54.356 -55.370  1.00  0.00     0.030 A 
HETATM   22  C   UNL     1     -40.158  53.825 -54.223  1.00  0.00     0.018 A 
HETATM   23  C   UNL     1     -40.890  53.661 -53.039  1.00  0.00     0.015 A 
HETATM   24  C   UNL     1     -42.247  54.032 -53.005  1.00  0.00    -0.046 A 
HETATM   25  C   UNL     1     -43.096  53.890 -51.771  1.00  0.00     0.049 C 
HETATM   26  C   UNL     1     -42.840  54.543 -54.178  1.00  0.00     0.037 A 
BRANCH  23  27
HETATM   27  C   UNL     1     -40.208  53.077 -51.844  1.00  0.00     0.156 C 
HETATM   28  C   UNL     1     -39.680  51.668 -51.941  1.00  0.00     0.097 C 
HETATM   29  O   UNL     1     -40.104  53.722 -50.805  1.00  0.00    -0.293 OA
ENDBRANCH  23  27
ENDBRANCH   1  20
TORSDOF 6
ENDMDL
MODEL 9
REMARK VINA RESULT:      -7.4      2.753      7.552
REMARK  6 active torsions:
REMARK  status: ('A' for Active; 'I' for Inactive)
REMARK    1  A    between atoms: C_3  and  C_4 
REMARK    2  A    between atoms: C_9  and  N_10 
REMARK       I    between atoms: N_10  and  C_11 
REMARK       I    between atoms: C_11  and  N_12 
REMARK    3  A    between atoms: N_12  and  C_13 
REMARK    4  A    between atoms: C_13  and  C_14 
REMARK    5  A    between atoms: C_14  and  C_15 
REMARK    6  A    between atoms: N_17  and  C_18 
ROOT
HETATM    1  N   UNL     1     -42.139  55.292 -55.215  1.00  0.00    -0.309 N 
HETATM    2  C   UNL     1     -43.038  54.706 -56.057  1.00  0.00     0.320 C 
HETATM    3  N   UNL     1     -43.349  55.390 -57.191  1.00  0.00    -0.343 N 
HETATM    4  O   UNL     1     -43.582  53.616 -55.900  1.00  0.00    -0.247 OA
HETATM    5  H   UNL     1     -41.810  56.206 -55.470  1.00  0.00     0.170 HD
HETATM    6  H   UNL     1     -43.986  54.852 -57.768  1.00  0.00     0.164 HD
ENDROOT
BRANCH   3   7
HETATM    7  C   UNL     1     -42.897  56.669 -57.724  1.00  0.00     0.129 C 
BRANCH   7   8
HETATM    8  C   UNL     1     -43.842  57.816 -57.347  1.00  0.00     0.061 C 
BRANCH   8   9
HETATM    9  C   UNL     1     -43.751  58.211 -55.913  1.00  0.00    -0.020 A 
HETATM   10  C   UNL     1     -42.618  58.451 -55.162  1.00  0.00     0.127 A 
HETATM   11  N   UNL     1     -43.019  58.762 -53.880  1.00  0.00    -0.245 N 
HETATM   12  N   UNL     1     -44.376  58.744 -53.783  1.00  0.00    -0.180 NA
HETATM   13  C   UNL     1     -44.803  58.408 -54.998  1.00  0.00     0.148 A 
BRANCH  11  14
HETATM   14  C   UNL     1     -42.205  59.058 -52.751  1.00  0.00     0.058 A 
HETATM   15  C   UNL     1     -42.743  59.657 -51.603  1.00  0.00     0.031 A 
HETATM   16  C   UNL     1     -41.916  59.948 -50.513  1.00  0.00     0.002 A 
HETATM   17  C   UNL     1     -40.558  59.645 -50.560  1.00  0.00     0.000 A 
HETATM   18  C   UNL     1     -40.017  59.047 -51.696  1.00  0.00     0.002 A 
HETATM   19  C   UNL     1     -40.836  58.752 -52.789  1.00  0.00     0.031 A 
ENDBRANCH  11  14
ENDBRANCH   8   9
ENDBRANCH   7   8
ENDBRANCH   3   7
BRANCH   1  20
HETATM   20  C   UNL     1     -41.611  54.773 -54.014  1.00  0.00     0.036 A 
HETATM   21  C   UNL     1     -40.728  53.699 -53.947  1.00  0.00     0.030 A 
HETATM   22  C   UNL     1     -40.249  53.248 -52.712  1.00  0.00     0.018 A 
HETATM   23  C   UNL     1     -40.635  53.876 -51.520  1.00  0.00     0.015 A 
HETATM   24  C   UNL     1     -41.518  54.971 -51.568  1.00  0.00    -0.046 A 
HETATM   25  C   UNL     1     -41.974  55.699 -50.333  1.00  0.00     0.049 C 
HETATM   26  C   UNL     1     -42.006  55.395 -52.821  1.00  0.00     0.037 A 
BRANCH  23  27
HETATM   27  C   UNL     1     -40.109  53.351 -50.223  1.00  0.00     0.156 C 
HETATM   28  C   UNL     1     -40.491  51.952 -49.811  1.00  0.00     0.097 C 
HETATM   29  O   UNL     1     -39.404  54.052 -49.504  1.00  0.00    -0.293 OA
ENDBRANCH  23  27
ENDBRANCH   1  20
TORSDOF 6
ENDMDL
MODEL 10
REMARK VINA RESULT:      -7.1     14.752     16.900
REMARK  6 active torsions:
REMARK  status: ('A' for Active; 'I' for Inactive)
REMARK    1  A    between atoms: C_3  and  C_4 
REMARK    2  A    between atoms: C_9  and  N_10 
REMARK       I    between atoms: N_10  and  C_11 
REMARK       I    between atoms: C_11  and  N_12 
REMARK    3  A    between atoms: N_12  and  C_13 
REMARK    4  A    between atoms: C_13  and  C_14 
REMARK    5  A    between atoms: C_14  and  C_15 
REMARK    6  A    between atoms: N_17  and  C_18 
ROOT
HETATM    1  N   UNL     1     -35.380  40.986 -53.203  1.00  0.00    -0.309 N 
HETATM    2  C   UNL     1     -35.161  41.972 -52.285  1.00  0.00     0.320 C 
HETATM    3  N   UNL     1     -34.846  41.572 -51.023  1.00  0.00    -0.343 N 
HETATM    4  O   UNL     1     -35.205  43.182 -52.489  1.00  0.00    -0.247 OA
HETATM    5  H   UNL     1     -35.341  40.040 -52.868  1.00  0.00     0.170 HD
HETATM    6  H   UNL     1     -34.658  42.374 -50.432  1.00  0.00     0.164 HD
ENDROOT
BRANCH   3   7
HETATM    7  C   UNL     1     -34.677  40.256 -50.421  1.00  0.00     0.129 C 
BRANCH   7   8
HETATM    8  C   UNL     1     -33.203  39.928 -50.155  1.00  0.00     0.061 C 
BRANCH   8   9
HETATM    9  C   UNL     1     -32.559  39.159 -51.257  1.00  0.00    -0.020 A 
HETATM   10  C   UNL     1     -32.130  39.621 -52.485  1.00  0.00     0.127 A 
HETATM   11  N   UNL     1     -31.622  38.547 -53.186  1.00  0.00    -0.245 N 
HETATM   12  N   UNL     1     -31.697  37.410 -52.444  1.00  0.00    -0.180 NA
HETATM   13  C   UNL     1     -32.263  37.783 -51.299  1.00  0.00     0.148 A 
BRANCH  11  14
HETATM   14  C   UNL     1     -31.089  38.531 -54.506  1.00  0.00     0.058 A 
HETATM   15  C   UNL     1     -31.325  39.586 -55.398  1.00  0.00     0.031 A 
HETATM   16  C   UNL     1     -30.800  39.537 -56.693  1.00  0.00     0.002 A 
HETATM   17  C   UNL     1     -30.039  38.445 -57.103  1.00  0.00     0.000 A 
HETATM   18  C   UNL     1     -29.797  37.395 -56.221  1.00  0.00     0.002 A 
HETATM   19  C   UNL     1     -30.318  37.436 -54.925  1.00  0.00     0.031 A 
ENDBRANCH  11  14
ENDBRANCH   8   9
ENDBRANCH   7   8
ENDBRANCH   3   7
BRANCH   1  20
HETATM   20  C   UNL     1     -35.665  41.130 -54.577  1.00  0.00     0.036 A 
HETATM   21  C   UNL     1     -34.717  41.461 -55.542  1.00  0.00     0.030 A 
HETATM   22  C   UNL     1     -35.084  41.581 -56.888  1.00  0.00     0.018 A 
HETATM   23  C   UNL     1     -36.407  41.357 -57.293  1.00  0.00     0.015 A 
HETATM   24  C   UNL     1     -37.377  41.011 -56.334  1.00  0.00    -0.046 A 
HETATM   25  C   UNL     1     -38.814  40.750 -56.693  1.00  0.00     0.049 C 
HETATM   26  C   UNL     1     -36.990  40.917 -54.981  1.00  0.00     0.037 A 
BRANCH  23  27
HETATM   27  C   UNL     1     -36.755  41.511 -58.738  1.00  0.00     0.156 C 
HETATM   28  C   UNL     1     -36.731  40.284 -59.614  1.00  0.00     0.097 C 
HETATM   29  O   UNL     1     -37.030  42.614 -59.201  1.00  0.00    -0.293 OA
ENDBRANCH  23  27
ENDBRANCH   1  20
TORSDOF 6
ENDMDL
