MODEL 1
REMARK VINA RESULT:      -8.5      0.000      0.000
REMARK  7 active torsions:
REMARK  status: ('A' for Active; 'I' for Inactive)
REMARK    1  A    between atoms: C_7  and  C_8 
REMARK    2  A    between atoms: C_11  and  N_12 
REMARK       I    between atoms: N_12  and  C_13 
REMARK    3  A    between atoms: C_13  and  C_14 
REMARK    4  A    between atoms: C_14  and  N_15 
REMARK    5  A    between atoms: N_15  and  C_16 
REMARK    6  A    between atoms: C_17  and  O_18 
REMARK    7  A    between atoms: C_22  and  N_23 
REMARK       I    between atoms: N_23  and  C_24 
ROOT
HETATM    1  N   UNL     1     -44.543  60.220 -54.584  1.00  0.00    -0.325 N 
HETATM    2  C   UNL     1     -45.088  60.757 -55.711  1.00  0.00     0.244 C 
HETATM    3  O   UNL     1     -45.407  61.953 -55.609  1.00  0.00    -0.271 OA
HETATM    4  H   UNL     1     -44.456  60.954 -53.889  1.00  0.00     0.169 HD
ENDROOT
BRANCH   2   5
HETATM    5  C   UNL     1     -45.341  59.999 -57.022  1.00  0.00     0.170 C 
HETATM    6  C   UNL     1     -46.582  60.538 -57.742  1.00  0.00     0.042 C 
BRANCH   5   7
HETATM    7  N   UNL     1     -44.239  59.922 -57.988  1.00  0.00    -0.375 N 
HETATM    8  H   UNL     1     -43.579  60.697 -57.894  1.00  0.00     0.160 HD
BRANCH   7   9
HETATM    9  C   UNL     1     -43.559  58.809 -58.473  1.00  0.00     0.064 A 
HETATM   10  C   UNL     1     -42.435  59.042 -59.306  1.00  0.00     0.094 A 
HETATM   11  C   UNL     1     -41.797  57.983 -59.952  1.00  0.00     0.041 A 
HETATM   12  C   UNL     1     -42.276  56.678 -59.802  1.00  0.00     0.032 A 
HETATM   13  C   UNL     1     -43.385  56.423 -59.002  1.00  0.00     0.037 A 
HETATM   14  C   UNL     1     -43.990  57.488 -58.315  1.00  0.00     0.061 A 
BRANCH  10  15
HETATM   15  O   UNL     1     -42.050  60.363 -59.403  1.00  0.00    -0.354 OA
HETATM   16  C   UNL     1     -41.733  60.848 -60.701  1.00  0.00     0.210 C 
ENDBRANCH  10  15
BRANCH  13  17
HETATM   17  N   UNL     1     -43.945  55.148 -58.805  1.00  0.00    -0.327 N 
HETATM   18  C   UNL     1     -44.630  54.299 -59.622  1.00  0.00     0.218 C 
HETATM   19  C   UNL     1     -45.109  54.737 -60.977  1.00  0.00     0.117 C 
HETATM   20  O   UNL     1     -44.897  53.169 -59.205  1.00  0.00    -0.274 OA
HETATM   21  H   UNL     1     -43.873  54.767 -57.867  1.00  0.00     0.169 HD
ENDBRANCH  13  17
ENDBRANCH   7   9
ENDBRANCH   5   7
ENDBRANCH   2   5
BRANCH   1  22
HETATM   22  C   UNL     1     -43.997  58.985 -54.213  1.00  0.00     0.034 A 
HETATM   23  C   UNL     1     -44.546  58.072 -53.320  1.00  0.00     0.030 A 
HETATM   24  C   UNL     1     -43.944  56.817 -53.110  1.00  0.00     0.016 A 
HETATM   25  C   UNL     1     -42.761  56.457 -53.770  1.00  0.00    -0.000 A 
HETATM   26  C   UNL     1     -42.176  57.413 -54.610  1.00  0.00     0.016 A 
HETATM   27  C   UNL     1     -42.783  58.653 -54.827  1.00  0.00     0.030 A 
BRANCH  25  28
HETATM   28  C   UNL     1     -42.106  55.140 -53.641  1.00  0.00     0.109 A 
HETATM   29  N   UNL     1     -41.403  54.781 -52.585  1.00  0.00    -0.240 NA
HETATM   30  C   UNL     1     -40.838  53.533 -52.774  1.00  0.00     0.075 A 
HETATM   31  C   UNL     1     -41.123  52.929 -53.996  1.00  0.00     0.036 A 
HETATM   32  C   UNL     1     -40.014  52.855 -51.855  1.00  0.00     0.033 A 
HETATM   33  C   UNL     1     -40.608  51.665 -54.337  1.00  0.00     0.028 A 
HETATM   34  S   UNL     1     -42.140  53.973 -54.909  1.00  0.00    -0.067 SA
HETATM   35  C   UNL     1     -39.781  51.003 -53.415  1.00  0.00    -0.061 A 
HETATM   36  C   UNL     1     -39.206  49.654 -53.737  1.00  0.00     0.048 C 
HETATM   37  C   UNL     1     -39.495  51.598 -52.184  1.00  0.00     0.009 A 
ENDBRANCH  25  28
ENDBRANCH   1  22
TORSDOF 7
ENDMDL
MODEL 2
REMARK VINA RESULT:      -8.5      0.923      1.430
REMARK  7 active torsions:
REMARK  status: ('A' for Active; 'I' for Inactive)
REMARK    1  A    between atoms: C_7  and  C_8 
REMARK    2  A    between atoms: C_11  and  N_12 
REMARK       I    between atoms: N_12  and  C_13 
REMARK    3  A    between atoms: C_13  and  C_14 
REMARK    4  A    between atoms: C_14  and  N_15 
REMARK    5  A    between atoms: N_15  and  C_16 
REMARK    6  A    between atoms: C_17  and  O_18 
REMARK    7  A    between atoms: C_22  and  N_23 
REMARK       I    between atoms: N_23  and  C_24 
ROOT
HETATM    1  N   UNL     1     -44.792  59.850 -54.507  1.00  0.00    -0.325 N 
HETATM    2  C   UNL     1     -45.292  60.496 -55.597  1.00  0.00     0.244 C 
HETATM    3  O   UNL     1     -46.017  61.469 -55.331  1.00  0.00    -0.271 OA
HETATM    4  H   UNL     1     -45.081  60.354 -53.675  1.00  0.00     0.169 HD
ENDROOT
BRANCH   2   5
HETATM    5  C   UNL     1     -45.046  60.093 -57.058  1.00  0.00     0.170 C 
HETATM    6  C   UNL     1     -45.610  61.142 -58.023  1.00  0.00     0.042 C 
BRANCH   5   7
HETATM    7  N   UNL     1     -43.667  59.786 -57.456  1.00  0.00    -0.375 N 
HETATM    8  H   UNL     1     -42.985  60.043 -56.740  1.00  0.00     0.160 HD
BRANCH   7   9
HETATM    9  C   UNL     1     -43.172  58.708 -58.183  1.00  0.00     0.064 A 
HETATM   10  C   UNL     1     -42.237  58.989 -59.212  1.00  0.00     0.094 A 
HETATM   11  C   UNL     1     -41.813  57.983 -60.081  1.00  0.00     0.041 A 
HETATM   12  C   UNL     1     -42.326  56.688 -59.961  1.00  0.00     0.032 A 
HETATM   13  C   UNL     1     -43.255  56.389 -58.970  1.00  0.00     0.037 A 
HETATM   14  C   UNL     1     -43.638  57.395 -58.067  1.00  0.00     0.061 A 
BRANCH  10  15
HETATM   15  O   UNL     1     -41.804  60.298 -59.259  1.00  0.00    -0.354 OA
HETATM   16  C   UNL     1     -41.808  60.932 -60.531  1.00  0.00     0.210 C 
ENDBRANCH  10  15
BRANCH  13  17
HETATM   17  N   UNL     1     -43.836  55.122 -58.783  1.00  0.00    -0.327 N 
HETATM   18  C   UNL     1     -44.572  54.310 -59.593  1.00  0.00     0.218 C 
HETATM   19  C   UNL     1     -45.095  54.794 -60.916  1.00  0.00     0.117 C 
HETATM   20  O   UNL     1     -44.848  53.175 -59.194  1.00  0.00    -0.274 OA
HETATM   21  H   UNL     1     -43.735  54.714 -57.859  1.00  0.00     0.169 HD
ENDBRANCH  13  17
ENDBRANCH   7   9
ENDBRANCH   5   7
ENDBRANCH   2   5
BRANCH   1  22
HETATM   22  C   UNL     1     -43.924  58.775 -54.277  1.00  0.00     0.034 A 
HETATM   23  C   UNL     1     -42.551  58.849 -54.072  1.00  0.00     0.030 A 
HETATM   24  C   UNL     1     -41.807  57.698 -53.751  1.00  0.00     0.016 A 
HETATM   25  C   UNL     1     -42.417  56.440 -53.653  1.00  0.00    -0.000 A 
HETATM   26  C   UNL     1     -43.787  56.365 -53.935  1.00  0.00     0.016 A 
HETATM   27  C   UNL     1     -44.526  57.511 -54.240  1.00  0.00     0.030 A 
BRANCH  25  28
HETATM   28  C   UNL     1     -41.710  55.203 -53.266  1.00  0.00     0.109 A 
HETATM   29  N   UNL     1     -41.296  54.303 -54.135  1.00  0.00    -0.240 NA
HETATM   30  C   UNL     1     -40.745  53.213 -53.488  1.00  0.00     0.075 A 
HETATM   31  C   UNL     1     -40.735  53.288 -52.097  1.00  0.00     0.036 A 
HETATM   32  C   UNL     1     -40.220  52.064 -54.110  1.00  0.00     0.033 A 
HETATM   33  C   UNL     1     -40.219  52.250 -51.300  1.00  0.00     0.028 A 
HETATM   34  S   UNL     1     -41.431  54.786 -51.617  1.00  0.00    -0.067 SA
HETATM   35  C   UNL     1     -39.706  51.106 -51.934  1.00  0.00    -0.061 A 
HETATM   36  C   UNL     1     -39.149  49.971 -51.125  1.00  0.00     0.048 C 
HETATM   37  C   UNL     1     -39.706  51.023 -53.328  1.00  0.00     0.009 A 
ENDBRANCH  25  28
ENDBRANCH   1  22
TORSDOF 7
ENDMDL
MODEL 3
REMARK VINA RESULT:      -8.4      1.846      2.177
REMARK  7 active torsions:
REMARK  status: ('A' for Active; 'I' for Inactive)
REMARK    1  A    between atoms: C_7  and  C_8 
REMARK    2  A    between atoms: C_11  and  N_12 
REMARK       I    between atoms: N_12  and  C_13 
REMARK    3  A    between atoms: C_13  and  C_14 
REMARK    4  A    between atoms: C_14  and  N_15 
REMARK    5  A    between atoms: N_15  and  C_16 
REMARK    6  A    between atoms: C_17  and  O_18 
REMARK    7  A    between atoms: C_22  and  N_23 
REMARK       I    between atoms: N_23  and  C_24 
ROOT
HETATM    1  N   UNL     1     -42.764  61.108 -52.957  1.00  0.00    -0.325 N 
HETATM    2  C   UNL     1     -43.035  62.008 -53.943  1.00  0.00     0.244 C 
HETATM    3  O   UNL     1     -43.117  63.185 -53.556  1.00  0.00    -0.271 OA
HETATM    4  H   UNL     1     -42.624  61.614 -52.090  1.00  0.00     0.169 HD
ENDROOT
BRANCH   2   5
HETATM    5  C   UNL     1     -43.260  61.664 -55.422  1.00  0.00     0.170 C 
HETATM    6  C   UNL     1     -44.062  62.761 -56.130  1.00  0.00     0.042 C 
BRANCH   5   7
HETATM    7  N   UNL     1     -42.079  61.351 -56.236  1.00  0.00    -0.375 N 
HETATM    8  H   UNL     1     -41.230  61.259 -55.675  1.00  0.00     0.160 HD
BRANCH   7   9
HETATM    9  C   UNL     1     -41.966  60.542 -57.362  1.00  0.00     0.064 A 
HETATM   10  C   UNL     1     -41.754  61.185 -58.608  1.00  0.00     0.094 A 
HETATM   11  C   UNL     1     -41.783  60.457 -59.798  1.00  0.00     0.041 A 
HETATM   12  C   UNL     1     -42.045  59.084 -59.775  1.00  0.00     0.032 A 
HETATM   13  C   UNL     1     -42.270  58.431 -58.567  1.00  0.00     0.037 A 
HETATM   14  C   UNL     1     -42.190  59.162 -57.371  1.00  0.00     0.061 A 
BRANCH  10  15
HETATM   15  O   UNL     1     -41.521  62.543 -58.528  1.00  0.00    -0.354 OA
HETATM   16  C   UNL     1     -40.241  63.003 -58.939  1.00  0.00     0.210 C 
ENDBRANCH  10  15
BRANCH  13  17
HETATM   17  N   UNL     1     -42.555  57.059 -58.448  1.00  0.00    -0.327 N 
HETATM   18  C   UNL     1     -43.657  56.311 -58.742  1.00  0.00     0.218 C 
HETATM   19  C   UNL     1     -44.962  56.957 -59.113  1.00  0.00     0.117 C 
HETATM   20  O   UNL     1     -43.576  55.084 -58.647  1.00  0.00    -0.274 OA
HETATM   21  H   UNL     1     -41.830  56.485 -58.031  1.00  0.00     0.169 HD
ENDBRANCH  13  17
ENDBRANCH   7   9
ENDBRANCH   5   7
ENDBRANCH   2   5
BRANCH   1  22
HETATM   22  C   UNL     1     -42.532  59.728 -52.882  1.00  0.00     0.034 A 
HETATM   23  C   UNL     1     -43.474  58.745 -52.603  1.00  0.00     0.030 A 
HETATM   24  C   UNL     1     -43.129  57.381 -52.657  1.00  0.00     0.016 A 
HETATM   25  C   UNL     1     -41.825  56.970 -52.965  1.00  0.00    -0.000 A 
HETATM   26  C   UNL     1     -40.867  57.971 -53.170  1.00  0.00     0.016 A 
HETATM   27  C   UNL     1     -41.214  59.324 -53.130  1.00  0.00     0.030 A 
BRANCH  25  28
HETATM   28  C   UNL     1     -41.408  55.560 -53.094  1.00  0.00     0.109 A 
HETATM   29  N   UNL     1     -40.905  54.859 -52.097  1.00  0.00    -0.240 NA
HETATM   30  C   UNL     1     -40.525  53.601 -52.524  1.00  0.00     0.075 A 
HETATM   31  C   UNL     1     -40.750  53.337 -53.873  1.00  0.00     0.036 A 
HETATM   32  C   UNL     1     -39.938  52.602 -51.725  1.00  0.00     0.033 A 
HETATM   33  C   UNL     1     -40.403  52.105 -54.457  1.00  0.00     0.028 A 
HETATM   34  S   UNL     1     -41.469  54.721 -54.598  1.00  0.00    -0.067 SA
HETATM   35  C   UNL     1     -39.810  51.120 -53.649  1.00  0.00    -0.061 A 
HETATM   36  C   UNL     1     -39.420  49.791 -54.229  1.00  0.00     0.048 C 
HETATM   37  C   UNL     1     -39.587  51.372 -52.293  1.00  0.00     0.009 A 
ENDBRANCH  25  28
ENDBRANCH   1  22
TORSDOF 7
ENDMDL
MODEL 4
REMARK VINA RESULT:      -8.4      3.474      7.861
REMARK  7 active torsions:
REMARK  status: ('A' for Active; 'I' for Inactive)
REMARK    1  A    between atoms: C_7  and  C_8 
REMARK    2  A    between atoms: C_11  and  N_12 
REMARK       I    between atoms: N_12  and  C_13 
REMARK    3  A    between atoms: C_13  and  C_14 
REMARK    4  A    between atoms: C_14  and  N_15 
REMARK    5  A    between atoms: N_15  and  C_16 
REMARK    6  A    between atoms: C_17  and  O_18 
REMARK    7  A    between atoms: C_22  and  N_23 
REMARK       I    between atoms: N_23  and  C_24 
ROOT
HETATM    1  N   UNL     1     -39.840  58.774 -52.729  1.00  0.00    -0.325 N 
HETATM    2  C   UNL     1     -39.765  59.068 -51.401  1.00  0.00     0.244 C 
HETATM    3  O   UNL     1     -38.608  59.195 -50.967  1.00  0.00    -0.271 OA
HETATM    4  H   UNL     1     -38.902  58.778 -53.112  1.00  0.00     0.169 HD
ENDROOT
BRANCH   2   5
HETATM    5  C   UNL     1     -40.965  59.215 -50.454  1.00  0.00     0.170 C 
HETATM    6  C   UNL     1     -42.007  60.181 -51.028  1.00  0.00     0.042 C 
BRANCH   5   7
HETATM    7  N   UNL     1     -41.650  57.989 -50.028  1.00  0.00    -0.375 N 
HETATM    8  H   UNL     1     -42.427  58.175 -49.391  1.00  0.00     0.160 HD
BRANCH   7   9
HETATM    9  C   UNL     1     -41.924  56.829 -50.747  1.00  0.00     0.064 A 
HETATM   10  C   UNL     1     -43.202  56.722 -51.351  1.00  0.00     0.094 A 
HETATM   11  C   UNL     1     -43.606  55.532 -51.956  1.00  0.00     0.041 A 
HETATM   12  C   UNL     1     -42.758  54.420 -51.952  1.00  0.00     0.032 A 
HETATM   13  C   UNL     1     -41.505  54.493 -51.354  1.00  0.00     0.037 A 
HETATM   14  C   UNL     1     -41.087  55.710 -50.792  1.00  0.00     0.061 A 
BRANCH  10  15
HETATM   15  O   UNL     1     -43.971  57.867 -51.288  1.00  0.00    -0.354 OA
HETATM   16  C   UNL     1     -44.782  58.162 -52.417  1.00  0.00     0.210 C 
ENDBRANCH  10  15
BRANCH  13  17
HETATM   17  N   UNL     1     -40.593  53.424 -51.288  1.00  0.00    -0.327 N 
HETATM   18  C   UNL     1     -39.981  52.667 -52.242  1.00  0.00     0.218 C 
HETATM   19  C   UNL     1     -40.385  52.754 -53.687  1.00  0.00     0.117 C 
HETATM   20  O   UNL     1     -39.115  51.862 -51.888  1.00  0.00    -0.274 OA
HETATM   21  H   UNL     1     -40.344  53.104 -50.358  1.00  0.00     0.169 HD
ENDBRANCH  13  17
ENDBRANCH   7   9
ENDBRANCH   5   7
ENDBRANCH   2   5
BRANCH   1  22
HETATM   22  C   UNL     1     -40.863  58.589 -53.668  1.00  0.00     0.034 A 
HETATM   23  C   UNL     1     -41.655  59.580 -54.235  1.00  0.00     0.030 A 
HETATM   24  C   UNL     1     -42.584  59.269 -55.247  1.00  0.00     0.016 A 
HETATM   25  C   UNL     1     -42.761  57.954 -55.695  1.00  0.00    -0.000 A 
HETATM   26  C   UNL     1     -42.011  56.953 -55.065  1.00  0.00     0.016 A 
HETATM   27  C   UNL     1     -41.080  57.265 -54.070  1.00  0.00     0.030 A 
BRANCH  25  28
HETATM   28  C   UNL     1     -43.674  57.565 -56.788  1.00  0.00     0.109 A 
HETATM   29  N   UNL     1     -43.369  56.661 -57.699  1.00  0.00    -0.240 NA
HETATM   30  C   UNL     1     -44.372  56.561 -58.645  1.00  0.00     0.075 A 
HETATM   31  C   UNL     1     -45.464  57.403 -58.446  1.00  0.00     0.036 A 
HETATM   32  C   UNL     1     -44.367  55.707 -59.764  1.00  0.00     0.033 A 
HETATM   33  C   UNL     1     -46.556  57.424 -59.333  1.00  0.00     0.028 A 
HETATM   34  S   UNL     1     -45.203  58.324 -57.018  1.00  0.00    -0.067 SA
HETATM   35  C   UNL     1     -46.533  56.572 -60.450  1.00  0.00    -0.061 A 
HETATM   36  C   UNL     1     -47.675  56.564 -61.426  1.00  0.00     0.048 C 
HETATM   37  C   UNL     1     -45.446  55.720 -60.655  1.00  0.00     0.009 A 
ENDBRANCH  25  28
ENDBRANCH   1  22
TORSDOF 7
ENDMDL
MODEL 5
REMARK VINA RESULT:      -8.3      2.334      3.494
REMARK  7 active torsions:
REMARK  status: ('A' for Active; 'I' for Inactive)
REMARK    1  A    between atoms: C_7  and  C_8 
REMARK    2  A    between atoms: C_11  and  N_12 
REMARK       I    between atoms: N_12  and  C_13 
REMARK    3  A    between atoms: C_13  and  C_14 
REMARK    4  A    between atoms: C_14  and  N_15 
REMARK    5  A    between atoms: N_15  and  C_16 
REMARK    6  A    between atoms: C_17  and  O_18 
REMARK    7  A    between atoms: C_22  and  N_23 
REMARK       I    between atoms: N_23  and  C_24 
ROOT
HETATM    1  N   UNL     1     -44.079  60.404 -51.177  1.00  0.00    -0.325 N 
HETATM    2  C   UNL     1     -45.082  61.186 -51.665  1.00  0.00     0.244 C 
HETATM    3  O   UNL     1     -45.045  62.368 -51.283  1.00  0.00    -0.271 OA
HETATM    4  H   UNL     1     -43.457  60.986 -50.627  1.00  0.00     0.169 HD
ENDROOT
BRANCH   2   5
HETATM    5  C   UNL     1     -46.210  60.709 -52.591  1.00  0.00     0.170 C 
HETATM    6  C   UNL     1     -47.466  61.570 -52.421  1.00  0.00     0.042 C 
BRANCH   5   7
HETATM    7  N   UNL     1     -45.912  60.596 -54.024  1.00  0.00    -0.375 N 
HETATM    8  H   UNL     1     -46.386  61.309 -54.581  1.00  0.00     0.160 HD
BRANCH   7   9
HETATM    9  C   UNL     1     -44.725  60.244 -54.659  1.00  0.00     0.064 A 
HETATM   10  C   UNL     1     -43.909  61.296 -55.148  1.00  0.00     0.094 A 
HETATM   11  C   UNL     1     -42.785  61.021 -55.927  1.00  0.00     0.041 A 
HETATM   12  C   UNL     1     -42.464  59.700 -56.254  1.00  0.00     0.032 A 
HETATM   13  C   UNL     1     -43.254  58.650 -55.799  1.00  0.00     0.037 A 
HETATM   14  C   UNL     1     -44.355  58.933 -54.974  1.00  0.00     0.061 A 
BRANCH  10  15
HETATM   15  O   UNL     1     -44.319  62.563 -54.786  1.00  0.00    -0.354 OA
HETATM   16  C   UNL     1     -43.344  63.410 -54.193  1.00  0.00     0.210 C 
ENDBRANCH  10  15
BRANCH  13  17
HETATM   17  N   UNL     1     -43.018  57.294 -56.090  1.00  0.00    -0.327 N 
HETATM   18  C   UNL     1     -43.203  56.539 -57.210  1.00  0.00     0.218 C 
HETATM   19  C   UNL     1     -43.958  57.073 -58.394  1.00  0.00     0.117 C 
HETATM   20  O   UNL     1     -42.781  55.380 -57.214  1.00  0.00    -0.274 OA
HETATM   21  H   UNL     1     -42.670  56.726 -55.324  1.00  0.00     0.169 HD
ENDBRANCH  13  17
ENDBRANCH   7   9
ENDBRANCH   5   7
ENDBRANCH   2   5
BRANCH   1  22
HETATM   22  C   UNL     1     -43.662  59.077 -51.337  1.00  0.00     0.034 A 
HETATM   23  C   UNL     1     -44.433  57.937 -51.143  1.00  0.00     0.030 A 
HETATM   24  C   UNL     1     -43.919  56.660 -51.437  1.00  0.00     0.016 A 
HETATM   25  C   UNL     1     -42.609  56.492 -51.906  1.00  0.00    -0.000 A 
HETATM   26  C   UNL     1     -41.816  57.640 -52.026  1.00  0.00     0.016 A 
HETATM   27  C   UNL     1     -42.333  58.908 -51.747  1.00  0.00     0.030 A 
BRANCH  25  28
HETATM   28  C   UNL     1     -42.025  55.190 -52.286  1.00  0.00     0.109 A 
HETATM   29  N   UNL     1     -41.162  54.536 -51.534  1.00  0.00    -0.240 NA
HETATM   30  C   UNL     1     -40.719  53.395 -52.175  1.00  0.00     0.075 A 
HETATM   31  C   UNL     1     -41.261  53.173 -53.439  1.00  0.00     0.036 A 
HETATM   32  C   UNL     1     -39.783  52.474 -51.666  1.00  0.00     0.033 A 
HETATM   33  C   UNL     1     -40.897  52.060 -54.219  1.00  0.00     0.028 A 
HETATM   34  S   UNL     1     -42.363  54.443 -53.801  1.00  0.00    -0.067 SA
HETATM   35  C   UNL     1     -39.956  51.154 -53.701  1.00  0.00    -0.061 A 
HETATM   36  C   UNL     1     -39.534  49.954 -54.499  1.00  0.00     0.048 C 
HETATM   37  C   UNL     1     -39.412  51.364 -52.432  1.00  0.00     0.009 A 
ENDBRANCH  25  28
ENDBRANCH   1  22
TORSDOF 7
ENDMDL
MODEL 6
REMARK VINA RESULT:      -8.3      2.947      4.297
REMARK  7 active torsions:
REMARK  status: ('A' for Active; 'I' for Inactive)
REMARK    1  A    between atoms: C_7  and  C_8 
REMARK    2  A    between atoms: C_11  and  N_12 
REMARK       I    between atoms: N_12  and  C_13 
REMARK    3  A    between atoms: C_13  and  C_14 
REMARK    4  A    between atoms: C_14  and  N_15 
REMARK    5  A    between atoms: N_15  and  C_16 
REMARK    6  A    between atoms: C_17  and  O_18 
REMARK    7  A    between atoms: C_22  and  N_23 
REMARK       I    between atoms: N_23  and  C_24 
ROOT
HETATM    1  N   UNL     1     -42.655  61.048 -52.198  1.00  0.00    -0.325 N 
HETATM    2  C   UNL     1     -43.725  61.805 -52.567  1.00  0.00     0.244 C 
HETATM    3  O   UNL     1     -43.551  63.030 -52.460  1.00  0.00    -0.271 OA
HETATM    4  H   UNL     1     -41.890  61.669 -51.958  1.00  0.00     0.169 HD
ENDROOT
BRANCH   2   5
HETATM    5  C   UNL     1     -45.074  61.257 -53.056  1.00  0.00     0.170 C 
HETATM    6  C   UNL     1     -46.223  62.198 -52.678  1.00  0.00     0.042 C 
BRANCH   5   7
HETATM    7  N   UNL     1     -45.195  60.919 -54.479  1.00  0.00    -0.375 N 
HETATM    8  H   UNL     1     -45.796  61.571 -54.987  1.00  0.00     0.160 HD
BRANCH   7   9
HETATM    9  C   UNL     1     -44.243  60.408 -55.355  1.00  0.00     0.064 A 
HETATM   10  C   UNL     1     -44.144  58.997 -55.461  1.00  0.00     0.094 A 
HETATM   11  C   UNL     1     -43.117  58.410 -56.198  1.00  0.00     0.041 A 
HETATM   12  C   UNL     1     -42.155  59.209 -56.823  1.00  0.00     0.032 A 
HETATM   13  C   UNL     1     -42.219  60.595 -56.724  1.00  0.00     0.037 A 
HETATM   14  C   UNL     1     -43.286  61.180 -56.022  1.00  0.00     0.061 A 
BRANCH  10  15
HETATM   15  O   UNL     1     -45.129  58.296 -54.795  1.00  0.00    -0.354 OA
HETATM   16  C   UNL     1     -44.827  56.958 -54.423  1.00  0.00     0.210 C 
ENDBRANCH  10  15
BRANCH  13  17
HETATM   17  N   UNL     1     -41.291  61.477 -57.305  1.00  0.00    -0.327 N 
HETATM   18  C   UNL     1     -41.046  61.850 -58.593  1.00  0.00     0.218 C 
HETATM   19  C   UNL     1     -41.696  61.141 -59.748  1.00  0.00     0.117 C 
HETATM   20  O   UNL     1     -40.234  62.755 -58.798  1.00  0.00    -0.274 OA
HETATM   21  H   UNL     1     -40.632  61.916 -56.670  1.00  0.00     0.169 HD
ENDBRANCH  13  17
ENDBRANCH   7   9
ENDBRANCH   5   7
ENDBRANCH   2   5
BRANCH   1  22
HETATM   22  C   UNL     1     -42.337  59.684 -52.180  1.00  0.00     0.034 A 
HETATM   23  C   UNL     1     -42.935  58.705 -51.395  1.00  0.00     0.030 A 
HETATM   24  C   UNL     1     -42.590  57.349 -51.547  1.00  0.00     0.016 A 
HETATM   25  C   UNL     1     -41.618  56.943 -52.470  1.00  0.00    -0.000 A 
HETATM   26  C   UNL     1     -40.968  57.944 -53.203  1.00  0.00     0.016 A 
HETATM   27  C   UNL     1     -41.322  59.289 -53.060  1.00  0.00     0.030 A 
BRANCH  25  28
HETATM   28  C   UNL     1     -41.247  55.536 -52.722  1.00  0.00     0.109 A 
HETATM   29  N   UNL     1     -40.787  54.730 -51.786  1.00  0.00    -0.240 NA
HETATM   30  C   UNL     1     -40.444  53.503 -52.321  1.00  0.00     0.075 A 
HETATM   31  C   UNL     1     -40.653  53.371 -53.692  1.00  0.00     0.036 A 
HETATM   32  C   UNL     1     -39.906  52.414 -51.608  1.00  0.00     0.033 A 
HETATM   33  C   UNL     1     -40.338  52.185 -54.381  1.00  0.00     0.028 A 
HETATM   34  S   UNL     1     -41.310  54.840 -54.297  1.00  0.00    -0.067 SA
HETATM   35  C   UNL     1     -39.796  51.110 -53.658  1.00  0.00    -0.061 A 
HETATM   36  C   UNL     1     -39.441  49.826 -54.351  1.00  0.00     0.048 C 
HETATM   37  C   UNL     1     -39.588  51.229 -52.282  1.00  0.00     0.009 A 
ENDBRANCH  25  28
ENDBRANCH   1  22
TORSDOF 7
ENDMDL
MODEL 7
REMARK VINA RESULT:      -8.3      3.393      8.368
REMARK  7 active torsions:
REMARK  status: ('A' for Active; 'I' for Inactive)
REMARK    1  A    between atoms: C_7  and  C_8 
REMARK    2  A    between atoms: C_11  and  N_12 
REMARK       I    between atoms: N_12  and  C_13 
REMARK    3  A    between atoms: C_13  and  C_14 
REMARK    4  A    between atoms: C_14  and  N_15 
REMARK    5  A    between atoms: N_15  and  C_16 
REMARK    6  A    between atoms: C_17  and  O_18 
REMARK    7  A    between atoms: C_22  and  N_23 
REMARK       I    between atoms: N_23  and  C_24 
ROOT
HETATM    1  N   UNL     1     -42.028  56.368 -49.781  1.00  0.00    -0.325 N 
HETATM    2  C   UNL     1     -41.178  55.398 -49.342  1.00  0.00     0.244 C 
HETATM    3  O   UNL     1     -41.211  55.202 -48.116  1.00  0.00    -0.271 OA
HETATM    4  H   UNL     1     -42.572  56.699 -48.993  1.00  0.00     0.169 HD
ENDROOT
BRANCH   2   5
HETATM    5  C   UNL     1     -40.212  54.596 -50.226  1.00  0.00     0.170 C 
HETATM    6  C   UNL     1     -38.967  54.170 -49.441  1.00  0.00     0.042 C 
BRANCH   5   7
HETATM    7  N   UNL     1     -40.747  53.422 -50.926  1.00  0.00    -0.375 N 
HETATM    8  H   UNL     1     -41.671  53.149 -50.586  1.00  0.00     0.160 HD
BRANCH   7   9
HETATM    9  C   UNL     1     -40.633  53.058 -52.264  1.00  0.00     0.064 A 
HETATM   10  C   UNL     1     -39.944  51.854 -52.557  1.00  0.00     0.094 A 
HETATM   11  C   UNL     1     -39.657  51.501 -53.876  1.00  0.00     0.041 A 
HETATM   12  C   UNL     1     -40.028  52.347 -54.925  1.00  0.00     0.032 A 
HETATM   13  C   UNL     1     -40.693  53.541 -54.666  1.00  0.00     0.037 A 
HETATM   14  C   UNL     1     -41.022  53.864 -53.339  1.00  0.00     0.061 A 
BRANCH  10  15
HETATM   15  O   UNL     1     -39.606  51.097 -51.454  1.00  0.00    -0.354 OA
HETATM   16  C   UNL     1     -39.535  49.689 -51.636  1.00  0.00     0.210 C 
ENDBRANCH  10  15
BRANCH  13  17
HETATM   17  N   UNL     1     -41.090  54.460 -55.654  1.00  0.00    -0.327 N 
HETATM   18  C   UNL     1     -42.306  54.946 -56.033  1.00  0.00     0.218 C 
HETATM   19  C   UNL     1     -43.582  54.357 -55.503  1.00  0.00     0.117 C 
HETATM   20  O   UNL     1     -42.341  55.856 -56.866  1.00  0.00    -0.274 OA
HETATM   21  H   UNL     1     -40.353  54.829 -56.245  1.00  0.00     0.169 HD
ENDBRANCH  13  17
ENDBRANCH   7   9
ENDBRANCH   5   7
ENDBRANCH   2   5
BRANCH   1  22
HETATM   22  C   UNL     1     -42.391  56.910 -51.021  1.00  0.00     0.034 A 
HETATM   23  C   UNL     1     -41.528  57.358 -52.014  1.00  0.00     0.030 A 
HETATM   24  C   UNL     1     -42.023  57.789 -53.259  1.00  0.00     0.016 A 
HETATM   25  C   UNL     1     -43.397  57.807 -53.530  1.00  0.00    -0.000 A 
HETATM   26  C   UNL     1     -44.262  57.424 -52.498  1.00  0.00     0.016 A 
HETATM   27  C   UNL     1     -43.768  56.984 -51.267  1.00  0.00     0.030 A 
BRANCH  25  28
HETATM   28  C   UNL     1     -43.982  58.192 -54.830  1.00  0.00     0.109 A 
HETATM   29  N   UNL     1     -45.184  57.820 -55.222  1.00  0.00    -0.240 NA
HETATM   30  C   UNL     1     -45.436  58.252 -56.511  1.00  0.00     0.075 A 
HETATM   31  C   UNL     1     -44.405  58.973 -57.109  1.00  0.00     0.036 A 
HETATM   32  C   UNL     1     -46.615  58.016 -57.243  1.00  0.00     0.033 A 
HETATM   33  C   UNL     1     -44.509  59.466 -58.423  1.00  0.00     0.028 A 
HETATM   34  S   UNL     1     -43.101  59.106 -55.995  1.00  0.00    -0.067 SA
HETATM   35  C   UNL     1     -45.687  59.217 -59.144  1.00  0.00    -0.061 A 
HETATM   36  C   UNL     1     -45.842  59.721 -60.551  1.00  0.00     0.048 C 
HETATM   37  C   UNL     1     -46.730  58.501 -58.551  1.00  0.00     0.009 A 
ENDBRANCH  25  28
ENDBRANCH   1  22
TORSDOF 7
ENDMDL
MODEL 8
REMARK VINA RESULT:      -8.1      3.397      8.455
REMARK  7 active torsions:
REMARK  status: ('A' for Active; 'I' for Inactive)
REMARK    1  A    between atoms: C_7  and  C_8 
REMARK    2  A    between atoms: C_11  and  N_12 
REMARK       I    between atoms: N_12  and  C_13 
REMARK    3  A    between atoms: C_13  and  C_14 
REMARK    4  A    between atoms: C_14  and  N_15 
REMARK    5  A    between atoms: N_15  and  C_16 
REMARK    6  A    between atoms: C_17  and  O_18 
REMARK    7  A    between atoms: C_22  and  N_23 
REMARK       I    between atoms: N_23  and  C_24 
ROOT
HETATM    1  N   UNL     1     -41.993  56.448 -49.955  1.00  0.00    -0.325 N 
HETATM    2  C   UNL     1     -41.197  55.494 -49.398  1.00  0.00     0.244 C 
HETATM    3  O   UNL     1     -41.298  55.396 -48.164  1.00  0.00    -0.271 OA
HETATM    4  H   UNL     1     -42.565  56.856 -49.224  1.00  0.00     0.169 HD
ENDROOT
BRANCH   2   5
HETATM    5  C   UNL     1     -40.214  54.598 -50.165  1.00  0.00     0.170 C 
HETATM    6  C   UNL     1     -39.078  54.117 -49.256  1.00  0.00     0.042 C 
BRANCH   5   7
HETATM    7  N   UNL     1     -40.764  53.438 -50.877  1.00  0.00    -0.375 N 
HETATM    8  H   UNL     1     -41.703  53.191 -50.559  1.00  0.00     0.160 HD
BRANCH   7   9
HETATM    9  C   UNL     1     -40.630  53.071 -52.213  1.00  0.00     0.064 A 
HETATM   10  C   UNL     1     -39.933  51.868 -52.492  1.00  0.00     0.094 A 
HETATM   11  C   UNL     1     -39.625  51.513 -53.805  1.00  0.00     0.041 A 
HETATM   12  C   UNL     1     -39.983  52.355 -54.863  1.00  0.00     0.032 A 
HETATM   13  C   UNL     1     -40.655  53.547 -54.616  1.00  0.00     0.037 A 
HETATM   14  C   UNL     1     -41.005  53.873 -53.295  1.00  0.00     0.061 A 
BRANCH  10  15
HETATM   15  O   UNL     1     -39.608  51.115 -51.382  1.00  0.00    -0.354 OA
HETATM   16  C   UNL     1     -39.528  49.708 -51.559  1.00  0.00     0.210 C 
ENDBRANCH  10  15
BRANCH  13  17
HETATM   17  N   UNL     1     -41.041  54.462 -55.613  1.00  0.00    -0.327 N 
HETATM   18  C   UNL     1     -42.251  54.953 -56.003  1.00  0.00     0.218 C 
HETATM   19  C   UNL     1     -43.534  54.372 -55.479  1.00  0.00     0.117 C 
HETATM   20  O   UNL     1     -42.276  55.857 -56.842  1.00  0.00    -0.274 OA
HETATM   21  H   UNL     1     -40.297  54.824 -56.200  1.00  0.00     0.169 HD
ENDBRANCH  13  17
ENDBRANCH   7   9
ENDBRANCH   5   7
ENDBRANCH   2   5
BRANCH   1  22
HETATM   22  C   UNL     1     -42.276  56.900 -51.251  1.00  0.00     0.034 A 
HETATM   23  C   UNL     1     -43.492  56.800 -51.915  1.00  0.00     0.030 A 
HETATM   24  C   UNL     1     -43.672  57.387 -53.182  1.00  0.00     0.016 A 
HETATM   25  C   UNL     1     -42.629  58.065 -53.826  1.00  0.00    -0.000 A 
HETATM   26  C   UNL     1     -41.386  58.095 -53.181  1.00  0.00     0.016 A 
HETATM   27  C   UNL     1     -41.213  57.524 -51.918  1.00  0.00     0.030 A 
BRANCH  25  28
HETATM   28  C   UNL     1     -42.763  58.751 -55.127  1.00  0.00     0.109 A 
HETATM   29  N   UNL     1     -41.809  59.492 -55.656  1.00  0.00    -0.240 NA
HETATM   30  C   UNL     1     -42.239  60.078 -56.832  1.00  0.00     0.075 A 
HETATM   31  C   UNL     1     -43.545  59.772 -57.206  1.00  0.00     0.036 A 
HETATM   32  C   UNL     1     -41.483  60.942 -57.647  1.00  0.00     0.033 A 
HETATM   33  C   UNL     1     -44.128  60.305 -58.371  1.00  0.00     0.028 A 
HETATM   34  S   UNL     1     -44.224  58.708 -56.039  1.00  0.00    -0.067 SA
HETATM   35  C   UNL     1     -43.364  61.171 -59.170  1.00  0.00    -0.061 A 
HETATM   36  C   UNL     1     -43.945  61.767 -60.421  1.00  0.00     0.048 C 
HETATM   37  C   UNL     1     -42.051  61.479 -58.807  1.00  0.00     0.009 A 
ENDBRANCH  25  28
ENDBRANCH   1  22
TORSDOF 7
ENDMDL
MODEL 9
REMARK VINA RESULT:      -7.9      2.067      2.379
REMARK  7 active torsions:
REMARK  status: ('A' for Active; 'I' for Inactive)
REMARK    1  A    between atoms: C_7  and  C_8 
REMARK    2  A    between atoms: C_11  and  N_12 
REMARK       I    between atoms: N_12  and  C_13 
REMARK    3  A    between atoms: C_13  and  C_14 
REMARK    4  A    between atoms: C_14  and  N_15 
REMARK    5  A    between atoms: N_15  and  C_16 
REMARK    6  A    between atoms: C_17  and  O_18 
REMARK    7  A    between atoms: C_22  and  N_23 
REMARK       I    between atoms: N_23  and  C_24 
ROOT
HETATM    1  N   UNL     1     -42.531  60.770 -52.933  1.00  0.00    -0.325 N 
HETATM    2  C   UNL     1     -43.397  61.388 -53.784  1.00  0.00     0.244 C 
HETATM    3  O   UNL     1     -43.433  62.625 -53.671  1.00  0.00    -0.271 OA
HETATM    4  H   UNL     1     -42.037  61.480 -52.405  1.00  0.00     0.169 HD
ENDROOT
BRANCH   2   5
HETATM    5  C   UNL     1     -44.301  60.680 -54.802  1.00  0.00     0.170 C 
HETATM    6  C   UNL     1     -45.741  61.196 -54.716  1.00  0.00     0.042 C 
BRANCH   5   7
HETATM    7  N   UNL     1     -43.884  60.694 -56.209  1.00  0.00    -0.375 N 
HETATM    8  H   UNL     1     -43.254  61.469 -56.424  1.00  0.00     0.160 HD
BRANCH   7   9
HETATM    9  C   UNL     1     -43.597  59.631 -57.061  1.00  0.00     0.064 A 
HETATM   10  C   UNL     1     -42.311  59.600 -57.656  1.00  0.00     0.094 A 
HETATM   11  C   UNL     1     -42.003  58.656 -58.635  1.00  0.00     0.041 A 
HETATM   12  C   UNL     1     -42.972  57.741 -59.058  1.00  0.00     0.032 A 
HETATM   13  C   UNL     1     -44.246  57.758 -58.501  1.00  0.00     0.037 A 
HETATM   14  C   UNL     1     -44.532  58.679 -57.480  1.00  0.00     0.061 A 
BRANCH  10  15
HETATM   15  O   UNL     1     -41.431  60.554 -57.185  1.00  0.00    -0.354 OA
HETATM   16  C   UNL     1     -40.995  61.541 -58.110  1.00  0.00     0.210 C 
ENDBRANCH  10  15
BRANCH  13  17
HETATM   17  N   UNL     1     -45.287  56.888 -58.873  1.00  0.00    -0.327 N 
HETATM   18  C   UNL     1     -46.301  56.989 -59.779  1.00  0.00     0.218 C 
HETATM   19  C   UNL     1     -46.603  58.288 -60.471  1.00  0.00     0.117 C 
HETATM   20  O   UNL     1     -47.006  55.998 -59.984  1.00  0.00    -0.274 OA
HETATM   21  H   UNL     1     -45.345  56.014 -58.361  1.00  0.00     0.169 HD
ENDBRANCH  13  17
ENDBRANCH   7   9
ENDBRANCH   5   7
ENDBRANCH   2   5
BRANCH   1  22
HETATM   22  C   UNL     1     -42.101  59.456 -52.706  1.00  0.00     0.034 A 
HETATM   23  C   UNL     1     -42.349  58.688 -51.575  1.00  0.00     0.030 A 
HETATM   24  C   UNL     1     -41.944  57.341 -51.515  1.00  0.00     0.016 A 
HETATM   25  C   UNL     1     -41.256  56.739 -52.576  1.00  0.00    -0.000 A 
HETATM   26  C   UNL     1     -40.945  57.543 -53.681  1.00  0.00     0.016 A 
HETATM   27  C   UNL     1     -41.360  58.876 -53.744  1.00  0.00     0.030 A 
BRANCH  25  28
HETATM   28  C   UNL     1     -40.852  55.319 -52.605  1.00  0.00     0.109 A 
HETATM   29  N   UNL     1     -40.722  54.625 -53.718  1.00  0.00    -0.240 NA
HETATM   30  C   UNL     1     -40.417  53.306 -53.441  1.00  0.00     0.075 A 
HETATM   31  C   UNL     1     -40.307  52.991 -52.088  1.00  0.00     0.036 A 
HETATM   32  C   UNL     1     -40.226  52.287 -54.393  1.00  0.00     0.033 A 
HETATM   33  C   UNL     1     -40.015  51.686 -51.650  1.00  0.00     0.028 A 
HETATM   34  S   UNL     1     -40.587  54.414 -51.163  1.00  0.00    -0.067 SA
HETATM   35  C   UNL     1     -39.835  50.678 -52.611  1.00  0.00    -0.061 A 
HETATM   36  C   UNL     1     -39.526  49.270 -52.191  1.00  0.00     0.048 C 
HETATM   37  C   UNL     1     -39.937  50.984 -53.970  1.00  0.00     0.009 A 
ENDBRANCH  25  28
ENDBRANCH   1  22
TORSDOF 7
ENDMDL
MODEL 10
REMARK VINA RESULT:      -7.9      3.080      5.773
REMARK  7 active torsions:
REMARK  status: ('A' for Active; 'I' for Inactive)
REMARK    1  A    between atoms: C_7  and  C_8 
REMARK    2  A    between atoms: C_11  and  N_12 
REMARK       I    between atoms: N_12  and  C_13 
REMARK    3  A    between atoms: C_13  and  C_14 
REMARK    4  A    between atoms: C_14  and  N_15 
REMARK    5  A    between atoms: N_15  and  C_16 
REMARK    6  A    between atoms: C_17  and  O_18 
REMARK    7  A    between atoms: C_22  and  N_23 
REMARK       I    between atoms: N_23  and  C_24 
ROOT
HETATM    1  N   UNL     1     -44.944  59.441 -55.583  1.00  0.00    -0.325 N 
HETATM    2  C   UNL     1     -44.667  60.741 -55.876  1.00  0.00     0.244 C 
HETATM    3  O   UNL     1     -45.669  61.467 -55.991  1.00  0.00    -0.271 OA
HETATM    4  H   UNL     1     -45.946  59.345 -55.458  1.00  0.00     0.169 HD
ENDROOT
BRANCH   2   5
HETATM    5  C   UNL     1     -43.263  61.325 -56.089  1.00  0.00     0.170 C 
HETATM    6  C   UNL     1     -43.320  62.620 -56.905  1.00  0.00     0.042 C 
BRANCH   5   7
HETATM    7  N   UNL     1     -42.437  61.559 -54.899  1.00  0.00    -0.375 N 
HETATM    8  H   UNL     1     -41.915  62.436 -54.950  1.00  0.00     0.160 HD
BRANCH   7   9
HETATM    9  C   UNL     1     -42.700  61.269 -53.563  1.00  0.00     0.064 A 
HETATM   10  C   UNL     1     -42.032  60.155 -52.994  1.00  0.00     0.094 A 
HETATM   11  C   UNL     1     -42.357  59.710 -51.713  1.00  0.00     0.041 A 
HETATM   12  C   UNL     1     -43.365  60.346 -50.983  1.00  0.00     0.032 A 
HETATM   13  C   UNL     1     -44.046  61.432 -51.523  1.00  0.00     0.037 A 
HETATM   14  C   UNL     1     -43.678  61.905 -52.793  1.00  0.00     0.061 A 
BRANCH  10  15
HETATM   15  O   UNL     1     -41.066  59.585 -53.799  1.00  0.00    -0.354 OA
HETATM   16  C   UNL     1     -40.285  58.544 -53.228  1.00  0.00     0.210 C 
ENDBRANCH  10  15
BRANCH  13  17
HETATM   17  N   UNL     1     -45.083  62.124 -50.871  1.00  0.00    -0.327 N 
HETATM   18  C   UNL     1     -46.440  62.089 -50.991  1.00  0.00     0.218 C 
HETATM   19  C   UNL     1     -47.106  61.343 -52.112  1.00  0.00     0.117 C 
HETATM   20  O   UNL     1     -47.118  62.730 -50.183  1.00  0.00    -0.274 OA
HETATM   21  H   UNL     1     -44.798  62.821 -50.191  1.00  0.00     0.169 HD
ENDBRANCH  13  17
ENDBRANCH   7   9
ENDBRANCH   5   7
ENDBRANCH   2   5
BRANCH   1  22
HETATM   22  C   UNL     1     -44.201  58.283 -55.314  1.00  0.00     0.034 A 
HETATM   23  C   UNL     1     -43.208  57.733 -56.114  1.00  0.00     0.030 A 
HETATM   24  C   UNL     1     -42.466  56.619 -55.678  1.00  0.00     0.016 A 
HETATM   25  C   UNL     1     -42.720  56.013 -54.440  1.00  0.00    -0.000 A 
HETATM   26  C   UNL     1     -43.773  56.529 -53.675  1.00  0.00     0.016 A 
HETATM   27  C   UNL     1     -44.500  57.643 -54.104  1.00  0.00     0.030 A 
BRANCH  25  28
HETATM   28  C   UNL     1     -41.946  54.879 -53.896  1.00  0.00     0.109 A 
HETATM   29  N   UNL     1     -41.494  53.888 -54.639  1.00  0.00    -0.240 NA
HETATM   30  C   UNL     1     -40.880  52.929 -53.855  1.00  0.00     0.075 A 
HETATM   31  C   UNL     1     -40.860  53.200 -52.489  1.00  0.00     0.036 A 
HETATM   32  C   UNL     1     -40.302  51.732 -54.319  1.00  0.00     0.033 A 
HETATM   33  C   UNL     1     -40.282  52.310 -51.564  1.00  0.00     0.028 A 
HETATM   34  S   UNL     1     -41.628  54.713 -52.211  1.00  0.00    -0.067 SA
HETATM   35  C   UNL     1     -39.716  51.117 -52.041  1.00  0.00    -0.061 A 
HETATM   36  C   UNL     1     -39.092  50.136 -51.090  1.00  0.00     0.048 C 
HETATM   37  C   UNL     1     -39.726  50.839 -53.409  1.00  0.00     0.009 A 
ENDBRANCH  25  28
ENDBRANCH   1  22
TORSDOF 7
ENDMDL
