MODEL 1
REMARK VINA RESULT:      -7.4      0.000      0.000
REMARK  2 active torsions:
REMARK  status: ('A' for Active; 'I' for Inactive)
REMARK    1  A    between atoms: N_4  and  N_5 
REMARK       I    between atoms: N_5  and  C_6 
REMARK    2  A    between atoms: C_6  and  C_7 
ROOT
HETATM    1  C   UNL     1     -40.573  54.355 -51.079  1.00  0.00     0.158 C 
HETATM    2  N   UNL     1     -40.475  53.569 -52.306  1.00  0.00    -0.329 N 
HETATM    3  C   UNL     1     -40.677  53.987 -53.563  1.00  0.00     0.166 A 
HETATM    4  N   UNL     1     -41.018  55.230 -53.916  1.00  0.00    -0.277 N 
HETATM    5  S   UNL     1     -40.449  52.721 -54.728  1.00  0.00    -0.050 SA
HETATM    6  C   UNL     1     -40.074  51.598 -53.480  1.00  0.00     0.035 A 
HETATM    7  C   UNL     1     -40.133  52.221 -52.236  1.00  0.00     0.053 A 
HETATM    8  C   UNL     1     -39.745  50.238 -53.610  1.00  0.00     0.021 A 
HETATM    9  C   UNL     1     -39.475  49.508 -52.451  1.00  0.00     0.002 A 
HETATM   10  C   UNL     1     -39.529  50.113 -51.200  1.00  0.00     0.002 A 
HETATM   11  C   UNL     1     -39.857  51.469 -51.076  1.00  0.00     0.031 A 
HETATM   12  H   UNL     1     -41.132  55.905 -53.161  1.00  0.00     0.189 HD
ENDROOT
BRANCH   4  13
HETATM   13  N   UNL     1     -41.224  55.668 -55.157  1.00  0.00    -0.263 N 
HETATM   14  C   UNL     1     -42.540  55.873 -55.539  1.00  0.00     0.286 C 
HETATM   15  O   UNL     1     -43.450  55.651 -54.739  1.00  0.00    -0.264 OA
HETATM   16  H   UNL     1     -40.441  55.837 -55.783  1.00  0.00     0.190 HD
BRANCH  14  17
HETATM   17  C   UNL     1     -42.754  56.347 -56.884  1.00  0.00     0.103 A 
HETATM   18  N   UNL     1     -43.452  55.598 -57.813  1.00  0.00    -0.360 N 
HETATM   19  H   UNL     1     -43.858  54.686 -57.628  1.00  0.00     0.165 HD
HETATM   20  C   UNL     1     -43.515  56.263 -59.008  1.00  0.00     0.112 A 
HETATM   21  C   UNL     1     -42.853  57.456 -58.860  1.00  0.00     0.051 A 
HETATM   22 CL   UNL     1     -42.631  58.661 -60.029  1.00  0.00    -0.083 Cl
HETATM   23  C   UNL     1     -42.372  57.515 -57.530  1.00  0.00     0.060 A 
ENDBRANCH  14  17
ENDBRANCH   4  13
TORSDOF 2
ENDMDL
MODEL 2
REMARK VINA RESULT:      -7.3      2.618      2.802
REMARK  2 active torsions:
REMARK  status: ('A' for Active; 'I' for Inactive)
REMARK    1  A    between atoms: N_4  and  N_5 
REMARK       I    between atoms: N_5  and  C_6 
REMARK    2  A    between atoms: C_6  and  C_7 
ROOT
HETATM    1  C   UNL     1     -42.633  54.918 -50.871  1.00  0.00     0.158 C 
HETATM    2  N   UNL     1     -42.419  54.474 -52.245  1.00  0.00    -0.329 N 
HETATM    3  C   UNL     1     -43.074  54.871 -53.344  1.00  0.00     0.166 A 
HETATM    4  N   UNL     1     -44.068  55.764 -53.368  1.00  0.00    -0.277 N 
HETATM    5  S   UNL     1     -42.493  54.091 -54.782  1.00  0.00    -0.050 SA
HETATM    6  C   UNL     1     -41.336  53.202 -53.868  1.00  0.00     0.035 A 
HETATM    7  C   UNL     1     -41.432  53.530 -52.518  1.00  0.00     0.053 A 
HETATM    8  C   UNL     1     -40.399  52.267 -54.338  1.00  0.00     0.021 A 
HETATM    9  C   UNL     1     -39.549  51.659 -53.410  1.00  0.00     0.002 A 
HETATM   10  C   UNL     1     -39.630  51.974 -52.058  1.00  0.00     0.002 A 
HETATM   11  C   UNL     1     -40.567  52.907 -51.597  1.00  0.00     0.031 A 
HETATM   12  H   UNL     1     -44.341  56.168 -52.473  1.00  0.00     0.189 HD
ENDROOT
BRANCH   4  13
HETATM   13  N   UNL     1     -44.732  56.174 -54.447  1.00  0.00    -0.263 N 
HETATM   14  C   UNL     1     -44.455  57.453 -54.905  1.00  0.00     0.286 C 
HETATM   15  O   UNL     1     -43.625  58.146 -54.316  1.00  0.00    -0.264 OA
HETATM   16  H   UNL     1     -45.409  55.566 -54.901  1.00  0.00     0.190 HD
BRANCH  14  17
HETATM   17  C   UNL     1     -45.178  57.888 -56.074  1.00  0.00     0.103 A 
HETATM   18  N   UNL     1     -46.535  57.657 -56.213  1.00  0.00    -0.360 N 
HETATM   19  H   UNL     1     -47.110  57.180 -55.527  1.00  0.00     0.165 HD
HETATM   20  C   UNL     1     -46.983  58.164 -57.403  1.00  0.00     0.112 A 
HETATM   21  C   UNL     1     -45.912  58.730 -58.047  1.00  0.00     0.051 A 
HETATM   22 CL   UNL     1     -45.910  59.501 -59.556  1.00  0.00    -0.083 Cl
HETATM   23  C   UNL     1     -44.777  58.561 -57.219  1.00  0.00     0.060 A 
ENDBRANCH  14  17
ENDBRANCH   4  13
TORSDOF 2
ENDMDL
MODEL 3
REMARK VINA RESULT:      -7.3      1.666      2.977
REMARK  2 active torsions:
REMARK  status: ('A' for Active; 'I' for Inactive)
REMARK    1  A    between atoms: N_4  and  N_5 
REMARK       I    between atoms: N_5  and  C_6 
REMARK    2  A    between atoms: C_6  and  C_7 
ROOT
HETATM    1  C   UNL     1     -39.915  52.047 -53.002  1.00  0.00     0.158 C 
HETATM    2  N   UNL     1     -40.485  53.353 -52.684  1.00  0.00    -0.329 N 
HETATM    3  C   UNL     1     -40.938  54.278 -53.541  1.00  0.00     0.166 A 
HETATM    4  N   UNL     1     -40.942  54.160 -54.871  1.00  0.00    -0.277 N 
HETATM    5  S   UNL     1     -41.541  55.692 -52.733  1.00  0.00    -0.050 SA
HETATM    6  C   UNL     1     -41.164  55.013 -51.197  1.00  0.00     0.035 A 
HETATM    7  C   UNL     1     -40.602  53.748 -51.353  1.00  0.00     0.053 A 
HETATM    8  C   UNL     1     -41.362  55.583 -49.928  1.00  0.00     0.021 A 
HETATM    9  C   UNL     1     -40.978  54.847 -48.805  1.00  0.00     0.002 A 
HETATM   10  C   UNL     1     -40.416  53.582 -48.941  1.00  0.00     0.002 A 
HETATM   11  C   UNL     1     -40.221  53.020 -50.209  1.00  0.00     0.031 A 
HETATM   12  H   UNL     1     -40.566  53.294 -55.254  1.00  0.00     0.189 HD
ENDROOT
BRANCH   4  13
HETATM   13  N   UNL     1     -41.388  55.065 -55.742  1.00  0.00    -0.263 N 
HETATM   14  C   UNL     1     -42.688  54.908 -56.196  1.00  0.00     0.286 C 
HETATM   15  O   UNL     1     -43.368  53.966 -55.790  1.00  0.00    -0.264 OA
HETATM   16  H   UNL     1     -40.790  55.827 -56.049  1.00  0.00     0.190 HD
BRANCH  14  17
HETATM   17  C   UNL     1     -43.163  55.892 -57.137  1.00  0.00     0.103 A 
HETATM   18  N   UNL     1     -44.011  56.914 -56.750  1.00  0.00    -0.360 N 
HETATM   19  H   UNL     1     -44.354  57.049 -55.805  1.00  0.00     0.165 HD
HETATM   20  C   UNL     1     -44.315  57.709 -57.822  1.00  0.00     0.112 A 
HETATM   21  C   UNL     1     -43.663  57.204 -58.918  1.00  0.00     0.051 A 
HETATM   22 CL   UNL     1     -43.694  57.807 -60.501  1.00  0.00    -0.083 Cl
HETATM   23  C   UNL     1     -42.938  56.064 -58.496  1.00  0.00     0.060 A 
ENDBRANCH  14  17
ENDBRANCH   4  13
TORSDOF 2
ENDMDL
MODEL 4
REMARK VINA RESULT:      -7.3      4.174      4.823
REMARK  2 active torsions:
REMARK  status: ('A' for Active; 'I' for Inactive)
REMARK    1  A    between atoms: N_4  and  N_5 
REMARK       I    between atoms: N_5  and  C_6 
REMARK    2  A    between atoms: C_6  and  C_7 
ROOT
HETATM    1  C   UNL     1     -40.879  54.239 -49.145  1.00  0.00     0.158 C 
HETATM    2  N   UNL     1     -41.102  54.471 -50.569  1.00  0.00    -0.329 N 
HETATM    3  C   UNL     1     -41.738  55.503 -51.140  1.00  0.00     0.166 A 
HETATM    4  N   UNL     1     -42.297  56.522 -50.482  1.00  0.00    -0.277 N 
HETATM    5  S   UNL     1     -41.770  55.387 -52.872  1.00  0.00    -0.050 SA
HETATM    6  C   UNL     1     -40.903  53.901 -52.819  1.00  0.00     0.035 A 
HETATM    7  C   UNL     1     -40.622  53.553 -51.501  1.00  0.00     0.053 A 
HETATM    8  C   UNL     1     -40.498  53.098 -53.899  1.00  0.00     0.021 A 
HETATM    9  C   UNL     1     -39.798  51.921 -53.622  1.00  0.00     0.002 A 
HETATM   10  C   UNL     1     -39.509  51.557 -52.312  1.00  0.00     0.002 A 
HETATM   11  C   UNL     1     -39.914  52.362 -51.240  1.00  0.00     0.031 A 
HETATM   12  H   UNL     1     -42.230  56.502 -49.466  1.00  0.00     0.189 HD
ENDROOT
BRANCH   4  13
HETATM   13  N   UNL     1     -42.933  57.558 -51.028  1.00  0.00    -0.263 N 
HETATM   14  C   UNL     1     -44.318  57.516 -51.020  1.00  0.00     0.286 C 
HETATM   15  O   UNL     1     -44.899  56.552 -50.522  1.00  0.00    -0.264 OA
HETATM   16  H   UNL     1     -42.412  58.333 -51.428  1.00  0.00     0.190 HD
BRANCH  14  17
HETATM   17  C   UNL     1     -44.999  58.642 -51.612  1.00  0.00     0.103 A 
HETATM   18  N   UNL     1     -45.991  59.327 -50.934  1.00  0.00    -0.360 N 
HETATM   19  H   UNL     1     -46.307  59.100 -49.997  1.00  0.00     0.165 HD
HETATM   20  C   UNL     1     -46.477  60.346 -51.708  1.00  0.00     0.112 A 
HETATM   21  C   UNL     1     -45.799  60.328 -52.900  1.00  0.00     0.051 A 
HETATM   22 CL   UNL     1     -46.006  61.374 -54.216  1.00  0.00    -0.083 Cl
HETATM   23  C   UNL     1     -44.870  59.262 -52.848  1.00  0.00     0.060 A 
ENDBRANCH  14  17
ENDBRANCH   4  13
TORSDOF 2
ENDMDL
MODEL 5
REMARK VINA RESULT:      -7.3      4.372      5.290
REMARK  2 active torsions:
REMARK  status: ('A' for Active; 'I' for Inactive)
REMARK    1  A    between atoms: N_4  and  N_5 
REMARK       I    between atoms: N_5  and  C_6 
REMARK    2  A    between atoms: C_6  and  C_7 
ROOT
HETATM    1  C   UNL     1     -39.869  53.803 -49.538  1.00  0.00     0.158 C 
HETATM    2  N   UNL     1     -40.466  54.163 -50.820  1.00  0.00    -0.329 N 
HETATM    3  C   UNL     1     -41.157  55.271 -51.119  1.00  0.00     0.166 A 
HETATM    4  N   UNL     1     -41.427  56.264 -50.266  1.00  0.00    -0.277 N 
HETATM    5  S   UNL     1     -41.686  55.299 -52.772  1.00  0.00    -0.050 SA
HETATM    6  C   UNL     1     -40.956  53.768 -53.063  1.00  0.00     0.035 A 
HETATM    7  C   UNL     1     -40.342  53.298 -51.905  1.00  0.00     0.053 A 
HETATM    8  C   UNL     1     -40.937  53.033 -54.261  1.00  0.00     0.021 A 
HETATM    9  C   UNL     1     -40.280  51.801 -54.271  1.00  0.00     0.002 A 
HETATM   10  C   UNL     1     -39.660  51.315 -53.124  1.00  0.00     0.002 A 
HETATM   11  C   UNL     1     -39.683  52.052 -51.934  1.00  0.00     0.031 A 
HETATM   12  H   UNL     1     -41.076  56.158 -49.315  1.00  0.00     0.189 HD
ENDROOT
BRANCH   4  13
HETATM   13  N   UNL     1     -42.109  57.375 -50.540  1.00  0.00    -0.263 N 
HETATM   14  C   UNL     1     -41.370  58.528 -50.746  1.00  0.00     0.286 C 
HETATM   15  O   UNL     1     -40.142  58.489 -50.673  1.00  0.00    -0.264 OA
HETATM   16  H   UNL     1     -43.124  57.359 -50.591  1.00  0.00     0.190 HD
BRANCH  14  17
HETATM   17  C   UNL     1     -42.117  59.726 -51.043  1.00  0.00     0.103 A 
HETATM   18  N   UNL     1     -42.720  60.469 -50.044  1.00  0.00    -0.360 N 
HETATM   19  H   UNL     1     -42.684  60.239 -49.056  1.00  0.00     0.165 HD
HETATM   20  C   UNL     1     -43.364  61.551 -50.581  1.00  0.00     0.112 A 
HETATM   21  C   UNL     1     -43.183  61.515 -51.940  1.00  0.00     0.051 A 
HETATM   22 CL   UNL     1     -43.769  62.618 -53.085  1.00  0.00    -0.083 Cl
HETATM   23  C   UNL     1     -42.402  60.373 -52.237  1.00  0.00     0.060 A 
ENDBRANCH  14  17
ENDBRANCH   4  13
TORSDOF 2
ENDMDL
MODEL 6
REMARK VINA RESULT:      -7.2      3.475      3.802
REMARK  2 active torsions:
REMARK  status: ('A' for Active; 'I' for Inactive)
REMARK    1  A    between atoms: N_4  and  N_5 
REMARK       I    between atoms: N_5  and  C_6 
REMARK    2  A    between atoms: C_6  and  C_7 
ROOT
HETATM    1  C   UNL     1     -40.257  53.090 -49.856  1.00  0.00     0.158 C 
HETATM    2  N   UNL     1     -40.364  53.110 -51.312  1.00  0.00    -0.329 N 
HETATM    3  C   UNL     1     -40.702  54.145 -52.093  1.00  0.00     0.166 A 
HETATM    4  N   UNL     1     -41.013  55.369 -51.658  1.00  0.00    -0.277 N 
HETATM    5  S   UNL     1     -40.700  53.732 -53.779  1.00  0.00    -0.050 SA
HETATM    6  C   UNL     1     -40.233  52.116 -53.415  1.00  0.00     0.035 A 
HETATM    7  C   UNL     1     -40.095  51.952 -52.039  1.00  0.00     0.053 A 
HETATM    8  C   UNL     1     -40.004  51.060 -54.312  1.00  0.00     0.021 A 
HETATM    9  C   UNL     1     -39.629  49.819 -53.792  1.00  0.00     0.002 A 
HETATM   10  C   UNL     1     -39.486  49.636 -52.421  1.00  0.00     0.002 A 
HETATM   11  C   UNL     1     -39.716  50.694 -51.532  1.00  0.00     0.031 A 
HETATM   12  H   UNL     1     -40.988  55.516 -50.650  1.00  0.00     0.189 HD
ENDROOT
BRANCH   4  13
HETATM   13  N   UNL     1     -41.351  56.412 -52.415  1.00  0.00    -0.263 N 
HETATM   14  C   UNL     1     -41.332  57.657 -51.808  1.00  0.00     0.286 C 
HETATM   15  O   UNL     1     -41.011  57.756 -50.623  1.00  0.00    -0.264 OA
HETATM   16  H   UNL     1     -41.610  56.283 -53.389  1.00  0.00     0.190 HD
BRANCH  14  17
HETATM   17  C   UNL     1     -41.700  58.781 -52.634  1.00  0.00     0.103 A 
HETATM   18  N   UNL     1     -41.569  58.740 -54.011  1.00  0.00    -0.360 N 
HETATM   19  H   UNL     1     -41.218  57.943 -54.531  1.00  0.00     0.165 HD
HETATM   20  C   UNL     1     -41.981  59.924 -54.561  1.00  0.00     0.112 A 
HETATM   21  C   UNL     1     -42.384  60.745 -53.538  1.00  0.00     0.051 A 
HETATM   22 CL   UNL     1     -42.985  62.324 -53.663  1.00  0.00    -0.083 Cl
HETATM   23  C   UNL     1     -42.210  60.035 -52.327  1.00  0.00     0.060 A 
ENDBRANCH  14  17
ENDBRANCH   4  13
TORSDOF 2
ENDMDL
MODEL 7
REMARK VINA RESULT:      -7.1      4.733      5.638
REMARK  2 active torsions:
REMARK  status: ('A' for Active; 'I' for Inactive)
REMARK    1  A    between atoms: N_4  and  N_5 
REMARK       I    between atoms: N_5  and  C_6 
REMARK    2  A    between atoms: C_6  and  C_7 
ROOT
HETATM    1  C   UNL     1     -43.046  54.122 -55.451  1.00  0.00     0.158 C 
HETATM    2  N   UNL     1     -42.638  54.272 -54.057  1.00  0.00    -0.329 N 
HETATM    3  C   UNL     1     -43.117  55.138 -53.153  1.00  0.00     0.166 A 
HETATM    4  N   UNL     1     -44.075  56.040 -53.384  1.00  0.00    -0.277 N 
HETATM    5  S   UNL     1     -42.352  54.972 -51.604  1.00  0.00    -0.050 SA
HETATM    6  C   UNL     1     -41.355  53.701 -52.198  1.00  0.00     0.035 A 
HETATM    7  C   UNL     1     -41.640  53.450 -53.538  1.00  0.00     0.053 A 
HETATM    8  C   UNL     1     -40.377  52.972 -51.502  1.00  0.00     0.021 A 
HETATM    9  C   UNL     1     -39.681  51.974 -52.188  1.00  0.00     0.002 A 
HETATM   10  C   UNL     1     -39.952  51.709 -53.526  1.00  0.00     0.002 A 
HETATM   11  C   UNL     1     -40.929  52.439 -54.215  1.00  0.00     0.031 A 
HETATM   12  H   UNL     1     -44.463  56.064 -54.325  1.00  0.00     0.189 HD
ENDROOT
BRANCH   4  13
HETATM   13  N   UNL     1     -44.567  56.910 -52.502  1.00  0.00    -0.263 N 
HETATM   14  C   UNL     1     -44.475  58.253 -52.829  1.00  0.00     0.286 C 
HETATM   15  O   UNL     1     -43.958  58.589 -53.895  1.00  0.00    -0.264 OA
HETATM   16  H   UNL     1     -44.985  56.586 -51.634  1.00  0.00     0.190 HD
BRANCH  14  17
HETATM   17  C   UNL     1     -45.010  59.187 -51.869  1.00  0.00     0.103 A 
HETATM   18  N   UNL     1     -44.923  58.956 -50.508  1.00  0.00    -0.360 N 
HETATM   19  H   UNL     1     -44.488  58.139 -50.091  1.00  0.00     0.165 HD
HETATM   20  C   UNL     1     -45.503  59.983 -49.815  1.00  0.00     0.112 A 
HETATM   21  C   UNL     1     -45.974  60.893 -50.728  1.00  0.00     0.051 A 
HETATM   22 CL   UNL     1     -46.778  62.349 -50.407  1.00  0.00    -0.083 Cl
HETATM   23  C   UNL     1     -45.669  60.399 -52.018  1.00  0.00     0.060 A 
ENDBRANCH  14  17
ENDBRANCH   4  13
TORSDOF 2
ENDMDL
MODEL 8
REMARK VINA RESULT:      -7.0      1.579      1.929
REMARK  2 active torsions:
REMARK  status: ('A' for Active; 'I' for Inactive)
REMARK    1  A    between atoms: N_4  and  N_5 
REMARK       I    between atoms: N_5  and  C_6 
REMARK    2  A    between atoms: C_6  and  C_7 
ROOT
HETATM    1  C   UNL     1     -41.932  55.785 -51.900  1.00  0.00     0.158 C 
HETATM    2  N   UNL     1     -41.371  54.935 -52.946  1.00  0.00    -0.329 N 
HETATM    3  C   UNL     1     -41.346  55.169 -54.265  1.00  0.00     0.166 A 
HETATM    4  N   UNL     1     -41.849  56.251 -54.865  1.00  0.00    -0.277 N 
HETATM    5  S   UNL     1     -40.574  53.891 -55.151  1.00  0.00    -0.050 SA
HETATM    6  C   UNL     1     -40.283  53.017 -53.698  1.00  0.00     0.035 A 
HETATM    7  C   UNL     1     -40.776  53.723 -52.603  1.00  0.00     0.053 A 
HETATM    8  C   UNL     1     -39.648  51.772 -53.550  1.00  0.00     0.021 A 
HETATM    9  C   UNL     1     -39.519  51.244 -52.264  1.00  0.00     0.002 A 
HETATM   10  C   UNL     1     -40.005  51.934 -51.158  1.00  0.00     0.002 A 
HETATM   11  C   UNL     1     -40.636  53.175 -51.312  1.00  0.00     0.031 A 
HETATM   12  H   UNL     1     -42.285  56.947 -54.262  1.00  0.00     0.189 HD
ENDROOT
BRANCH   4  13
HETATM   13  N   UNL     1     -41.834  56.506 -56.173  1.00  0.00    -0.263 N 
HETATM   14  C   UNL     1     -42.254  57.765 -56.570  1.00  0.00     0.286 C 
HETATM   15  O   UNL     1     -42.615  58.584 -55.725  1.00  0.00    -0.264 OA
HETATM   16  H   UNL     1     -41.528  55.798 -56.835  1.00  0.00     0.190 HD
BRANCH  14  17
HETATM   17  C   UNL     1     -42.235  58.032 -57.987  1.00  0.00     0.103 A 
HETATM   18  N   UNL     1     -42.248  57.008 -58.917  1.00  0.00    -0.360 N 
HETATM   19  H   UNL     1     -42.272  56.021 -58.683  1.00  0.00     0.165 HD
HETATM   20  C   UNL     1     -42.223  57.520 -60.186  1.00  0.00     0.112 A 
HETATM   21  C   UNL     1     -42.194  58.887 -60.087  1.00  0.00     0.051 A 
HETATM   22 CL   UNL     1     -42.157  60.010 -61.355  1.00  0.00    -0.083 Cl
HETATM   23  C   UNL     1     -42.201  59.216 -58.710  1.00  0.00     0.060 A 
ENDBRANCH  14  17
ENDBRANCH   4  13
TORSDOF 2
ENDMDL
MODEL 9
REMARK VINA RESULT:      -6.8      2.615      3.608
REMARK  2 active torsions:
REMARK  status: ('A' for Active; 'I' for Inactive)
REMARK    1  A    between atoms: N_4  and  N_5 
REMARK       I    between atoms: N_5  and  C_6 
REMARK    2  A    between atoms: C_6  and  C_7 
ROOT
HETATM    1  C   UNL     1     -39.874  54.209 -55.087  1.00  0.00     0.158 C 
HETATM    2  N   UNL     1     -41.232  54.423 -54.594  1.00  0.00    -0.329 N 
HETATM    3  C   UNL     1     -42.310  54.790 -55.300  1.00  0.00     0.166 A 
HETATM    4  N   UNL     1     -42.325  55.033 -56.613  1.00  0.00    -0.277 N 
HETATM    5  S   UNL     1     -43.733  54.924 -54.315  1.00  0.00    -0.050 SA
HETATM    6  C   UNL     1     -42.842  54.477 -52.912  1.00  0.00     0.035 A 
HETATM    7  C   UNL     1     -41.510  54.241 -53.241  1.00  0.00     0.053 A 
HETATM    8  C   UNL     1     -43.313  54.344 -51.595  1.00  0.00     0.021 A 
HETATM    9  C   UNL     1     -42.406  53.967 -50.603  1.00  0.00     0.002 A 
HETATM   10  C   UNL     1     -41.072  53.727 -50.912  1.00  0.00     0.002 A 
HETATM   11  C   UNL     1     -40.609  53.861 -52.227  1.00  0.00     0.031 A 
HETATM   12  H   UNL     1     -41.439  54.929 -57.107  1.00  0.00     0.189 HD
ENDROOT
BRANCH   4  13
HETATM   13  N   UNL     1     -43.384  55.397 -57.335  1.00  0.00    -0.263 N 
HETATM   14  C   UNL     1     -43.322  56.634 -57.957  1.00  0.00     0.286 C 
HETATM   15  O   UNL     1     -42.318  57.334 -57.826  1.00  0.00    -0.264 OA
HETATM   16  H   UNL     1     -44.191  54.785 -57.415  1.00  0.00     0.190 HD
BRANCH  14  17
HETATM   17  C   UNL     1     -44.472  57.020 -58.737  1.00  0.00     0.103 A 
HETATM   18  N   UNL     1     -45.371  56.083 -59.213  1.00  0.00    -0.360 N 
HETATM   19  H   UNL     1     -45.295  55.083 -59.056  1.00  0.00     0.165 HD
HETATM   20  C   UNL     1     -46.367  56.699 -59.921  1.00  0.00     0.112 A 
HETATM   21  C   UNL     1     -46.119  58.048 -59.908  1.00  0.00     0.051 A 
HETATM   22 CL   UNL     1     -47.042  59.270 -60.632  1.00  0.00    -0.083 Cl
HETATM   23  C   UNL     1     -44.932  58.257 -59.167  1.00  0.00     0.060 A 
ENDBRANCH  14  17
ENDBRANCH   4  13
TORSDOF 2
ENDMDL
MODEL 10
REMARK VINA RESULT:      -6.7      3.826      8.208
REMARK  2 active torsions:
REMARK  status: ('A' for Active; 'I' for Inactive)
REMARK    1  A    between atoms: N_4  and  N_5 
REMARK       I    between atoms: N_5  and  C_6 
REMARK    2  A    between atoms: C_6  and  C_7 
ROOT
HETATM    1  C   UNL     1     -43.588  55.423 -59.629  1.00  0.00     0.158 C 
HETATM    2  N   UNL     1     -43.188  56.403 -58.624  1.00  0.00    -0.329 N 
HETATM    3  C   UNL     1     -43.170  56.249 -57.293  1.00  0.00     0.166 A 
HETATM    4  N   UNL     1     -43.529  55.140 -56.641  1.00  0.00    -0.277 N 
HETATM    5  S   UNL     1     -42.617  57.673 -56.468  1.00  0.00    -0.050 SA
HETATM    6  C   UNL     1     -42.411  58.498 -57.964  1.00  0.00     0.035 A 
HETATM    7  C   UNL     1     -42.763  57.668 -59.025  1.00  0.00     0.053 A 
HETATM    8  C   UNL     1     -41.958  59.811 -58.171  1.00  0.00     0.021 A 
HETATM    9  C   UNL     1     -41.867  60.281 -59.483  1.00  0.00     0.002 A 
HETATM   10  C   UNL     1     -42.215  59.467 -60.556  1.00  0.00     0.002 A 
HETATM   11  C   UNL     1     -42.665  58.158 -60.343  1.00  0.00     0.031 A 
HETATM   12  H   UNL     1     -43.842  54.355 -57.211  1.00  0.00     0.189 HD
ENDROOT
BRANCH   4  13
HETATM   13  N   UNL     1     -43.518  54.964 -55.320  1.00  0.00    -0.263 N 
HETATM   14  C   UNL     1     -42.348  54.472 -54.765  1.00  0.00     0.286 C 
HETATM   15  O   UNL     1     -41.384  54.224 -55.489  1.00  0.00    -0.264 OA
HETATM   16  H   UNL     1     -44.338  55.183 -54.762  1.00  0.00     0.190 HD
BRANCH  14  17
HETATM   17  C   UNL     1     -42.344  54.285 -53.335  1.00  0.00     0.103 A 
HETATM   18  N   UNL     1     -43.506  54.374 -52.590  1.00  0.00    -0.360 N 
HETATM   19  H   UNL     1     -44.423  54.571 -52.978  1.00  0.00     0.165 HD
HETATM   20  C   UNL     1     -43.238  54.159 -51.265  1.00  0.00     0.112 A 
HETATM   21  C   UNL     1     -41.892  53.928 -51.141  1.00  0.00     0.051 A 
HETATM   22 CL   UNL     1     -41.030  53.604 -49.719  1.00  0.00    -0.083 Cl
HETATM   23  C   UNL     1     -41.324  54.005 -52.436  1.00  0.00     0.060 A 
ENDBRANCH  14  17
ENDBRANCH   4  13
TORSDOF 2
ENDMDL
