MODEL 1
REMARK VINA RESULT:      -9.2      0.000      0.000
REMARK  7 active torsions:
REMARK  status: ('A' for Active; 'I' for Inactive)
REMARK    1  A    between atoms: C_6  and  O_7 
REMARK    2  A    between atoms: O_7  and  C_8 
REMARK    3  A    between atoms: C_8  and  C_9 
REMARK       I    between atoms: C_9  and  N_10 
REMARK    4  A    between atoms: N_10  and  C_11 
REMARK    5  A    between atoms: C_14  and  N_15 
REMARK    6  A    between atoms: N_18  and  C_20 
REMARK    7  A    between atoms: C_20  and  C_21 
ROOT
HETATM    1  C   UNL     1     -41.930  55.982 -51.024  1.00  0.00     0.034 A 
HETATM    2  C   UNL     1     -41.315  56.913 -51.856  1.00  0.00     0.032 A 
HETATM    3  C   UNL     1     -41.685  57.003 -53.202  1.00  0.00     0.031 A 
HETATM    4  C   UNL     1     -42.686  56.185 -53.743  1.00  0.00     0.030 A 
HETATM    5  C   UNL     1     -43.272  55.231 -52.905  1.00  0.00     0.031 A 
HETATM    6  C   UNL     1     -42.877  55.110 -51.565  1.00  0.00     0.032 A 
ENDROOT
BRANCH   1   7
HETATM    7  N   UNL     1     -41.590  55.836 -49.672  1.00  0.00    -0.325 N 
HETATM    8  C   UNL     1     -40.857  54.858 -49.044  1.00  0.00     0.246 C 
HETATM    9  O   UNL     1     -40.908  54.788 -47.813  1.00  0.00    -0.271 OA
HETATM   10  H   UNL     1     -41.929  56.539 -49.025  1.00  0.00     0.169 HD
BRANCH   8  11
HETATM   11  C   UNL     1     -39.885  53.997 -49.854  1.00  0.00     0.278 C 
BRANCH  11  12
HETATM   12  O   UNL     1     -40.311  52.646 -49.956  1.00  0.00    -0.342 OA
BRANCH  12  13
HETATM   13  C   UNL     1     -40.130  52.074 -51.194  1.00  0.00     0.075 A 
HETATM   14  C   UNL     1     -39.911  50.688 -51.225  1.00  0.00    -0.028 A 
HETATM   15  C   UNL     1     -39.738  50.044 -52.464  1.00  0.00     0.016 A 
HETATM   16  C   UNL     1     -39.844  49.886 -49.955  1.00  0.00     0.051 C 
HETATM   17  C   UNL     1     -39.795  50.761 -53.665  1.00  0.00    -0.061 A 
HETATM   18  C   UNL     1     -39.567  50.075 -54.979  1.00  0.00     0.048 C 
HETATM   19  C   UNL     1     -40.013  52.139 -53.619  1.00  0.00     0.009 A 
HETATM   20  C   UNL     1     -40.190  52.789 -52.395  1.00  0.00     0.038 A 
ENDBRANCH  12  13
ENDBRANCH  11  12
ENDBRANCH   8  11
ENDBRANCH   1   7
BRANCH   4  21
HETATM   21  N   UNL     1     -43.045  56.373 -55.080  1.00  0.00    -0.378 N 
HETATM   22  C   UNL     1     -43.028  55.136 -55.881  1.00  0.00     0.150 C 
HETATM   23  C   UNL     1     -42.943  55.497 -57.379  1.00  0.00     0.255 C 
HETATM   24  N   UNL     1     -44.049  56.481 -57.785  1.00  0.00    -0.064 N 
HETATM   25  H   UNL     1     -44.939  55.979 -57.695  1.00  0.00     0.280 HD
HETATM   26  C   UNL     1     -44.096  57.693 -56.852  1.00  0.00     0.255 C 
HETATM   27  C   UNL     1     -44.179  57.260 -55.373  1.00  0.00     0.150 C 
BRANCH  24  28
HETATM   28  C   UNL     1     -43.922  56.922 -59.225  1.00  0.00     0.273 C 
BRANCH  28  29
HETATM   29  C   UNL     1     -45.245  57.192 -59.885  1.00  0.00    -0.033 A 
HETATM   30  C   UNL     1     -46.085  56.132 -60.257  1.00  0.00     0.009 A 
HETATM   31  C   UNL     1     -47.303  56.385 -60.892  1.00  0.00     0.001 A 
HETATM   32  C   UNL     1     -47.690  57.696 -61.162  1.00  0.00     0.000 A 
HETATM   33  C   UNL     1     -46.866  58.756 -60.794  1.00  0.00     0.001 A 
HETATM   34  C   UNL     1     -45.649  58.508 -60.158  1.00  0.00     0.009 A 
ENDBRANCH  28  29
ENDBRANCH  24  28
ENDBRANCH   4  21
TORSDOF 7
ENDMDL
MODEL 2
REMARK VINA RESULT:      -9.2      1.193      2.145
REMARK  7 active torsions:
REMARK  status: ('A' for Active; 'I' for Inactive)
REMARK    1  A    between atoms: C_6  and  O_7 
REMARK    2  A    between atoms: O_7  and  C_8 
REMARK    3  A    between atoms: C_8  and  C_9 
REMARK       I    between atoms: C_9  and  N_10 
REMARK    4  A    between atoms: N_10  and  C_11 
REMARK    5  A    between atoms: C_14  and  N_15 
REMARK    6  A    between atoms: N_18  and  C_20 
REMARK    7  A    between atoms: C_20  and  C_21 
ROOT
HETATM    1  C   UNL     1     -42.050  56.673 -50.968  1.00  0.00     0.034 A 
HETATM    2  C   UNL     1     -43.362  56.368 -51.318  1.00  0.00     0.032 A 
HETATM    3  C   UNL     1     -43.868  56.768 -52.559  1.00  0.00     0.031 A 
HETATM    4  C   UNL     1     -43.075  57.460 -53.485  1.00  0.00     0.030 A 
HETATM    5  C   UNL     1     -41.769  57.789 -53.108  1.00  0.00     0.031 A 
HETATM    6  C   UNL     1     -41.270  57.424 -51.849  1.00  0.00     0.032 A 
ENDROOT
BRANCH   1   7
HETATM    7  N   UNL     1     -41.494  56.312 -49.733  1.00  0.00    -0.325 N 
HETATM    8  C   UNL     1     -41.279  55.069 -49.188  1.00  0.00     0.246 C 
HETATM    9  O   UNL     1     -41.022  54.994 -47.984  1.00  0.00    -0.271 OA
HETATM   10  H   UNL     1     -41.200  57.060 -49.115  1.00  0.00     0.169 HD
BRANCH   8  11
HETATM   11  C   UNL     1     -41.202  53.841 -50.099  1.00  0.00     0.278 C 
BRANCH  11  12
HETATM   12  O   UNL     1     -40.217  53.976 -51.113  1.00  0.00    -0.342 OA
BRANCH  12  13
HETATM   13  C   UNL     1     -40.084  52.887 -51.941  1.00  0.00     0.075 A 
HETATM   14  C   UNL     1     -40.374  53.084 -53.301  1.00  0.00    -0.028 A 
HETATM   15  C   UNL     1     -40.238  52.011 -54.198  1.00  0.00     0.016 A 
HETATM   16  C   UNL     1     -40.841  54.421 -53.805  1.00  0.00     0.051 C 
HETATM   17  C   UNL     1     -39.805  50.753 -53.761  1.00  0.00    -0.061 A 
HETATM   18  C   UNL     1     -39.703  49.602 -54.717  1.00  0.00     0.048 C 
HETATM   19  C   UNL     1     -39.521  50.571 -52.407  1.00  0.00     0.009 A 
HETATM   20  C   UNL     1     -39.648  51.630 -51.505  1.00  0.00     0.038 A 
ENDBRANCH  12  13
ENDBRANCH  11  12
ENDBRANCH   8  11
ENDBRANCH   1   7
BRANCH   4  21
HETATM   21  N   UNL     1     -43.629  57.773 -54.728  1.00  0.00    -0.378 N 
HETATM   22  C   UNL     1     -42.941  57.134 -55.865  1.00  0.00     0.150 C 
HETATM   23  C   UNL     1     -43.278  57.898 -57.163  1.00  0.00     0.255 C 
HETATM   24  N   UNL     1     -44.795  58.036 -57.357  1.00  0.00    -0.064 N 
HETATM   25  H   UNL     1     -45.160  57.090 -57.517  1.00  0.00     0.280 HD
HETATM   26  C   UNL     1     -45.476  58.597 -56.107  1.00  0.00     0.255 C 
HETATM   27  C   UNL     1     -45.093  57.789 -54.849  1.00  0.00     0.150 C 
BRANCH  24  28
HETATM   28  C   UNL     1     -45.144  58.866 -58.571  1.00  0.00     0.273 C 
BRANCH  28  29
HETATM   29  C   UNL     1     -46.015  58.142 -59.558  1.00  0.00    -0.033 A 
HETATM   30  C   UNL     1     -46.959  58.844 -60.324  1.00  0.00     0.009 A 
HETATM   31  C   UNL     1     -47.784  58.165 -61.223  1.00  0.00     0.001 A 
HETATM   32  C   UNL     1     -47.676  56.783 -61.363  1.00  0.00     0.000 A 
HETATM   33  C   UNL     1     -46.742  56.077 -60.611  1.00  0.00     0.001 A 
HETATM   34  C   UNL     1     -45.913  56.751 -59.713  1.00  0.00     0.009 A 
ENDBRANCH  28  29
ENDBRANCH  24  28
ENDBRANCH   4  21
TORSDOF 7
ENDMDL
MODEL 3
REMARK VINA RESULT:      -9.0      1.296      2.239
REMARK  7 active torsions:
REMARK  status: ('A' for Active; 'I' for Inactive)
REMARK    1  A    between atoms: C_6  and  O_7 
REMARK    2  A    between atoms: O_7  and  C_8 
REMARK    3  A    between atoms: C_8  and  C_9 
REMARK       I    between atoms: C_9  and  N_10 
REMARK    4  A    between atoms: N_10  and  C_11 
REMARK    5  A    between atoms: C_14  and  N_15 
REMARK    6  A    between atoms: N_18  and  C_20 
REMARK    7  A    between atoms: C_20  and  C_21 
ROOT
HETATM    1  C   UNL     1     -41.851  55.898 -51.029  1.00  0.00     0.034 A 
HETATM    2  C   UNL     1     -42.777  55.094 -51.686  1.00  0.00     0.032 A 
HETATM    3  C   UNL     1     -43.031  55.285 -53.047  1.00  0.00     0.031 A 
HETATM    4  C   UNL     1     -42.356  56.264 -53.789  1.00  0.00     0.030 A 
HETATM    5  C   UNL     1     -41.452  57.087 -53.110  1.00  0.00     0.031 A 
HETATM    6  C   UNL     1     -41.223  56.925 -51.736  1.00  0.00     0.032 A 
ENDROOT
BRANCH   1   7
HETATM    7  N   UNL     1     -41.566  55.763 -49.663  1.00  0.00    -0.325 N 
HETATM    8  C   UNL     1     -40.853  54.795 -48.999  1.00  0.00     0.246 C 
HETATM    9  O   UNL     1     -40.954  54.733 -47.771  1.00  0.00    -0.271 OA
HETATM   10  H   UNL     1     -41.935  56.469 -49.036  1.00  0.00     0.169 HD
BRANCH   8  11
HETATM   11  C   UNL     1     -39.843  53.935 -49.762  1.00  0.00     0.278 C 
BRANCH  11  12
HETATM   12  O   UNL     1     -40.261  52.583 -49.883  1.00  0.00    -0.342 OA
BRANCH  12  13
HETATM   13  C   UNL     1     -40.089  52.033 -51.131  1.00  0.00     0.075 A 
HETATM   14  C   UNL     1     -39.877  50.646 -51.189  1.00  0.00    -0.028 A 
HETATM   15  C   UNL     1     -39.713  50.024 -52.439  1.00  0.00     0.016 A 
HETATM   16  C   UNL     1     -39.808  49.821 -49.933  1.00  0.00     0.051 C 
HETATM   17  C   UNL     1     -39.771  50.763 -53.627  1.00  0.00    -0.061 A 
HETATM   18  C   UNL     1     -39.553  50.099 -54.954  1.00  0.00     0.048 C 
HETATM   19  C   UNL     1     -39.982  52.141 -53.555  1.00  0.00     0.009 A 
HETATM   20  C   UNL     1     -40.151  52.770 -52.319  1.00  0.00     0.038 A 
ENDBRANCH  12  13
ENDBRANCH  11  12
ENDBRANCH   8  11
ENDBRANCH   1   7
BRANCH   4  21
HETATM   21  N   UNL     1     -42.617  56.357 -55.158  1.00  0.00    -0.378 N 
HETATM   22  C   UNL     1     -42.326  57.683 -55.732  1.00  0.00     0.150 C 
HETATM   23  C   UNL     1     -43.084  57.842 -57.066  1.00  0.00     0.255 C 
HETATM   24  N   UNL     1     -42.792  56.677 -58.022  1.00  0.00    -0.064 N 
HETATM   25  H   UNL     1     -41.802  56.749 -58.283  1.00  0.00     0.280 HD
HETATM   26  C   UNL     1     -43.001  55.322 -57.342  1.00  0.00     0.255 C 
HETATM   27  C   UNL     1     -42.218  55.233 -56.016  1.00  0.00     0.150 C 
BRANCH  24  28
HETATM   28  C   UNL     1     -43.602  56.764 -59.296  1.00  0.00     0.273 C 
BRANCH  28  29
HETATM   29  C   UNL     1     -43.356  58.025 -60.074  1.00  0.00    -0.033 A 
HETATM   30  C   UNL     1     -42.053  58.390 -60.445  1.00  0.00     0.009 A 
HETATM   31  C   UNL     1     -41.826  59.575 -61.148  1.00  0.00     0.001 A 
HETATM   32  C   UNL     1     -42.894  60.405 -61.483  1.00  0.00     0.000 A 
HETATM   33  C   UNL     1     -44.191  60.051 -61.123  1.00  0.00     0.001 A 
HETATM   34  C   UNL     1     -44.424  58.866 -60.423  1.00  0.00     0.009 A 
ENDBRANCH  28  29
ENDBRANCH  24  28
ENDBRANCH   4  21
TORSDOF 7
ENDMDL
MODEL 4
REMARK VINA RESULT:      -8.8      2.101      3.142
REMARK  7 active torsions:
REMARK  status: ('A' for Active; 'I' for Inactive)
REMARK    1  A    between atoms: C_6  and  O_7 
REMARK    2  A    between atoms: O_7  and  C_8 
REMARK    3  A    between atoms: C_8  and  C_9 
REMARK       I    between atoms: C_9  and  N_10 
REMARK    4  A    between atoms: N_10  and  C_11 
REMARK    5  A    between atoms: C_14  and  N_15 
REMARK    6  A    between atoms: N_18  and  C_20 
REMARK    7  A    between atoms: C_20  and  C_21 
ROOT
HETATM    1  C   UNL     1     -41.839  56.960 -50.897  1.00  0.00     0.034 A 
HETATM    2  C   UNL     1     -43.151  57.226 -51.280  1.00  0.00     0.032 A 
HETATM    3  C   UNL     1     -43.421  57.720 -52.560  1.00  0.00     0.031 A 
HETATM    4  C   UNL     1     -42.397  57.939 -53.493  1.00  0.00     0.030 A 
HETATM    5  C   UNL     1     -41.081  57.699 -53.084  1.00  0.00     0.031 A 
HETATM    6  C   UNL     1     -40.802  57.242 -51.789  1.00  0.00     0.032 A 
ENDROOT
BRANCH   1   7
HETATM    7  N   UNL     1     -41.506  56.480 -49.623  1.00  0.00    -0.325 N 
HETATM    8  C   UNL     1     -41.006  55.259 -49.240  1.00  0.00     0.246 C 
HETATM    9  O   UNL     1     -41.038  54.963 -48.043  1.00  0.00    -0.271 OA
HETATM   10  H   UNL     1     -41.653  57.101 -48.835  1.00  0.00     0.169 HD
BRANCH   8  11
HETATM   11  C   UNL     1     -40.285  54.377 -50.263  1.00  0.00     0.278 C 
BRANCH  11  12
HETATM   12  O   UNL     1     -41.155  53.441 -50.883  1.00  0.00    -0.342 OA
BRANCH  12  13
HETATM   13  C   UNL     1     -41.514  53.750 -52.173  1.00  0.00     0.075 A 
HETATM   14  C   UNL     1     -42.879  53.977 -52.415  1.00  0.00    -0.028 A 
HETATM   15  C   UNL     1     -43.303  54.315 -53.712  1.00  0.00     0.016 A 
HETATM   16  C   UNL     1     -43.891  53.848 -51.311  1.00  0.00     0.051 C 
HETATM   17  C   UNL     1     -42.387  54.443 -54.762  1.00  0.00    -0.061 A 
HETATM   18  C   UNL     1     -42.852  54.761 -56.152  1.00  0.00     0.048 C 
HETATM   19  C   UNL     1     -41.033  54.214 -54.509  1.00  0.00     0.009 A 
HETATM   20  C   UNL     1     -40.598  53.881 -53.223  1.00  0.00     0.038 A 
ENDBRANCH  12  13
ENDBRANCH  11  12
ENDBRANCH   8  11
ENDBRANCH   1   7
BRANCH   4  21
HETATM   21  N   UNL     1     -42.749  58.375 -54.772  1.00  0.00    -0.378 N 
HETATM   22  C   UNL     1     -44.202  58.368 -55.025  1.00  0.00     0.150 C 
HETATM   23  C   UNL     1     -44.456  58.374 -56.548  1.00  0.00     0.255 C 
HETATM   24  N   UNL     1     -43.714  59.526 -57.238  1.00  0.00    -0.064 N 
HETATM   25  H   UNL     1     -44.144  60.397 -56.905  1.00  0.00     0.280 HD
HETATM   26  C   UNL     1     -42.233  59.557 -56.852  1.00  0.00     0.255 C 
HETATM   27  C   UNL     1     -42.052  59.547 -55.320  1.00  0.00     0.150 C 
BRANCH  24  28
HETATM   28  C   UNL     1     -43.872  59.490 -58.741  1.00  0.00     0.273 C 
BRANCH  28  29
HETATM   29  C   UNL     1     -43.976  58.099 -59.297  1.00  0.00    -0.033 A 
HETATM   30  C   UNL     1     -45.205  57.611 -59.769  1.00  0.00     0.009 A 
HETATM   31  C   UNL     1     -45.304  56.308 -60.263  1.00  0.00     0.001 A 
HETATM   32  C   UNL     1     -44.182  55.483 -60.287  1.00  0.00     0.000 A 
HETATM   33  C   UNL     1     -42.957  55.958 -59.824  1.00  0.00     0.001 A 
HETATM   34  C   UNL     1     -42.852  57.259 -59.332  1.00  0.00     0.009 A 
ENDBRANCH  28  29
ENDBRANCH  24  28
ENDBRANCH   4  21
TORSDOF 7
ENDMDL
MODEL 5
REMARK VINA RESULT:      -8.5      1.995      2.910
REMARK  7 active torsions:
REMARK  status: ('A' for Active; 'I' for Inactive)
REMARK    1  A    between atoms: C_6  and  O_7 
REMARK    2  A    between atoms: O_7  and  C_8 
REMARK    3  A    between atoms: C_8  and  C_9 
REMARK       I    between atoms: C_9  and  N_10 
REMARK    4  A    between atoms: N_10  and  C_11 
REMARK    5  A    between atoms: C_14  and  N_15 
REMARK    6  A    between atoms: N_18  and  C_20 
REMARK    7  A    between atoms: C_20  and  C_21 
ROOT
HETATM    1  C   UNL     1     -41.878  56.804 -50.746  1.00  0.00     0.034 A 
HETATM    2  C   UNL     1     -41.152  57.628 -51.600  1.00  0.00     0.032 A 
HETATM    3  C   UNL     1     -41.722  58.075 -52.797  1.00  0.00     0.031 A 
HETATM    4  C   UNL     1     -43.031  57.729 -53.158  1.00  0.00     0.030 A 
HETATM    5  C   UNL     1     -43.738  56.873 -52.307  1.00  0.00     0.031 A 
HETATM    6  C   UNL     1     -43.157  56.391 -51.126  1.00  0.00     0.032 A 
ENDROOT
BRANCH   1   7
HETATM    7  N   UNL     1     -41.354  56.313 -49.543  1.00  0.00    -0.325 N 
HETATM    8  C   UNL     1     -41.227  55.021 -49.093  1.00  0.00     0.246 C 
HETATM    9  O   UNL     1     -40.983  54.838 -47.898  1.00  0.00    -0.271 OA
HETATM   10  H   UNL     1     -41.014  56.990 -48.869  1.00  0.00     0.169 HD
BRANCH   8  11
HETATM   11  C   UNL     1     -41.229  53.863 -50.095  1.00  0.00     0.278 C 
BRANCH  11  12
HETATM   12  O   UNL     1     -40.202  53.984 -51.068  1.00  0.00    -0.342 OA
BRANCH  12  13
HETATM   13  C   UNL     1     -40.090  52.916 -51.927  1.00  0.00     0.075 A 
HETATM   14  C   UNL     1     -40.376  53.159 -53.280  1.00  0.00    -0.028 A 
HETATM   15  C   UNL     1     -40.261  52.109 -54.209  1.00  0.00     0.016 A 
HETATM   16  C   UNL     1     -40.818  54.518 -53.746  1.00  0.00     0.051 C 
HETATM   17  C   UNL     1     -39.852  50.832 -53.809  1.00  0.00    -0.061 A 
HETATM   18  C   UNL     1     -39.773  49.707 -54.798  1.00  0.00     0.048 C 
HETATM   19  C   UNL     1     -39.572  50.604 -52.461  1.00  0.00     0.009 A 
HETATM   20  C   UNL     1     -39.679  51.639 -51.528  1.00  0.00     0.038 A 
ENDBRANCH  12  13
ENDBRANCH  11  12
ENDBRANCH   8  11
ENDBRANCH   1   7
BRANCH   4  21
HETATM   21  N   UNL     1     -43.555  58.262 -54.338  1.00  0.00    -0.378 N 
HETATM   22  C   UNL     1     -44.977  57.939 -54.558  1.00  0.00     0.150 C 
HETATM   23  C   UNL     1     -45.319  58.123 -56.052  1.00  0.00     0.255 C 
HETATM   24  N   UNL     1     -44.918  59.517 -56.554  1.00  0.00    -0.064 N 
HETATM   25  H   UNL     1     -45.521  60.191 -56.070  1.00  0.00     0.280 HD
HETATM   26  C   UNL     1     -43.466  59.848 -56.200  1.00  0.00     0.255 C 
HETATM   27  C   UNL     1     -43.193  59.641 -54.695  1.00  0.00     0.150 C 
BRANCH  24  28
HETATM   28  C   UNL     1     -45.155  59.683 -58.037  1.00  0.00     0.273 C 
BRANCH  28  29
HETATM   29  C   UNL     1     -44.031  59.155 -58.884  1.00  0.00    -0.033 A 
HETATM   30  C   UNL     1     -43.123  60.036 -59.491  1.00  0.00     0.009 A 
HETATM   31  C   UNL     1     -42.094  59.544 -60.297  1.00  0.00     0.001 A 
HETATM   32  C   UNL     1     -41.964  58.173 -60.504  1.00  0.00     0.000 A 
HETATM   33  C   UNL     1     -42.856  57.289 -59.903  1.00  0.00     0.001 A 
HETATM   34  C   UNL     1     -43.885  57.775 -59.096  1.00  0.00     0.009 A 
ENDBRANCH  28  29
ENDBRANCH  24  28
ENDBRANCH   4  21
TORSDOF 7
ENDMDL
MODEL 6
REMARK VINA RESULT:      -8.5      4.135      5.305
REMARK  7 active torsions:
REMARK  status: ('A' for Active; 'I' for Inactive)
REMARK    1  A    between atoms: C_6  and  O_7 
REMARK    2  A    between atoms: O_7  and  C_8 
REMARK    3  A    between atoms: C_8  and  C_9 
REMARK       I    between atoms: C_9  and  N_10 
REMARK    4  A    between atoms: N_10  and  C_11 
REMARK    5  A    between atoms: C_14  and  N_15 
REMARK    6  A    between atoms: N_18  and  C_20 
REMARK    7  A    between atoms: C_20  and  C_21 
ROOT
HETATM    1  C   UNL     1     -43.613  56.275 -53.945  1.00  0.00     0.034 A 
HETATM    2  C   UNL     1     -43.597  57.651 -53.737  1.00  0.00     0.032 A 
HETATM    3  C   UNL     1     -43.226  58.512 -54.775  1.00  0.00     0.031 A 
HETATM    4  C   UNL     1     -42.885  58.026 -56.044  1.00  0.00     0.030 A 
HETATM    5  C   UNL     1     -42.874  56.640 -56.230  1.00  0.00     0.031 A 
HETATM    6  C   UNL     1     -43.206  55.771 -55.181  1.00  0.00     0.032 A 
ENDROOT
BRANCH   1   7
HETATM    7  N   UNL     1     -43.961  55.363 -52.939  1.00  0.00    -0.325 N 
HETATM    8  C   UNL     1     -43.170  54.705 -52.028  1.00  0.00     0.246 C 
HETATM    9  O   UNL     1     -43.655  53.752 -51.413  1.00  0.00    -0.271 OA
HETATM   10  H   UNL     1     -44.941  55.120 -52.844  1.00  0.00     0.169 HD
BRANCH   8  11
HETATM   11  C   UNL     1     -41.784  55.257 -51.683  1.00  0.00     0.278 C 
BRANCH  11  12
HETATM   12  O   UNL     1     -40.801  54.893 -52.640  1.00  0.00    -0.342 OA
BRANCH  12  13
HETATM   13  C   UNL     1     -40.450  53.564 -52.634  1.00  0.00     0.075 A 
HETATM   14  C   UNL     1     -40.282  52.947 -53.885  1.00  0.00    -0.028 A 
HETATM   15  C   UNL     1     -39.906  51.593 -53.941  1.00  0.00     0.016 A 
HETATM   16  C   UNL     1     -40.512  53.709 -55.160  1.00  0.00     0.051 C 
HETATM   17  C   UNL     1     -39.684  50.855 -52.773  1.00  0.00    -0.061 A 
HETATM   18  C   UNL     1     -39.325  49.400 -52.841  1.00  0.00     0.048 C 
HETATM   19  C   UNL     1     -39.856  51.480 -51.537  1.00  0.00     0.009 A 
HETATM   20  C   UNL     1     -40.225  52.826 -51.467  1.00  0.00     0.038 A 
ENDBRANCH  12  13
ENDBRANCH  11  12
ENDBRANCH   8  11
ENDBRANCH   1   7
BRANCH   4  21
HETATM   21  N   UNL     1     -42.585  58.949 -57.049  1.00  0.00    -0.378 N 
HETATM   22  C   UNL     1     -42.001  60.207 -56.547  1.00  0.00     0.150 C 
HETATM   23  C   UNL     1     -42.167  61.310 -57.613  1.00  0.00     0.255 C 
HETATM   24  N   UNL     1     -41.607  60.868 -58.973  1.00  0.00    -0.064 N 
HETATM   25  H   UNL     1     -40.591  60.776 -58.858  1.00  0.00     0.280 HD
HETATM   26  C   UNL     1     -42.158  59.504 -59.394  1.00  0.00     0.255 C 
HETATM   27  C   UNL     1     -41.961  58.451 -58.283  1.00  0.00     0.150 C 
BRANCH  24  28
HETATM   28  C   UNL     1     -41.848  61.897 -60.053  1.00  0.00     0.273 C 
BRANCH  28  29
HETATM   29  C   UNL     1     -40.610  62.649 -60.448  1.00  0.00    -0.033 A 
HETATM   30  C   UNL     1     -40.212  62.711 -61.793  1.00  0.00     0.009 A 
HETATM   31  C   UNL     1     -39.047  63.392 -62.154  1.00  0.00     0.001 A 
HETATM   32  C   UNL     1     -38.269  64.011 -61.178  1.00  0.00     0.000 A 
HETATM   33  C   UNL     1     -38.656  63.959 -59.841  1.00  0.00     0.001 A 
HETATM   34  C   UNL     1     -39.820  63.283 -59.476  1.00  0.00     0.009 A 
ENDBRANCH  28  29
ENDBRANCH  24  28
ENDBRANCH   4  21
TORSDOF 7
ENDMDL
MODEL 7
REMARK VINA RESULT:      -8.4      6.165     10.311
REMARK  7 active torsions:
REMARK  status: ('A' for Active; 'I' for Inactive)
REMARK    1  A    between atoms: C_6  and  O_7 
REMARK    2  A    between atoms: O_7  and  C_8 
REMARK    3  A    between atoms: C_8  and  C_9 
REMARK       I    between atoms: C_9  and  N_10 
REMARK    4  A    between atoms: N_10  and  C_11 
REMARK    5  A    between atoms: C_14  and  N_15 
REMARK    6  A    between atoms: N_18  and  C_20 
REMARK    7  A    between atoms: C_20  and  C_21 
ROOT
HETATM    1  C   UNL     1     -45.230  60.555 -51.258  1.00  0.00     0.034 A 
HETATM    2  C   UNL     1     -43.939  60.670 -51.765  1.00  0.00     0.032 A 
HETATM    3  C   UNL     1     -43.237  59.527 -52.161  1.00  0.00     0.031 A 
HETATM    4  C   UNL     1     -43.810  58.251 -52.083  1.00  0.00     0.030 A 
HETATM    5  C   UNL     1     -45.095  58.145 -51.541  1.00  0.00     0.031 A 
HETATM    6  C   UNL     1     -45.788  59.284 -51.106  1.00  0.00     0.032 A 
ENDROOT
BRANCH   1   7
HETATM    7  N   UNL     1     -45.976  61.661 -50.831  1.00  0.00    -0.325 N 
HETATM    8  C   UNL     1     -46.291  62.081 -49.561  1.00  0.00     0.246 C 
HETATM    9  O   UNL     1     -47.178  62.928 -49.427  1.00  0.00    -0.271 OA
HETATM   10  H   UNL     1     -46.369  62.265 -51.544  1.00  0.00     0.169 HD
BRANCH   8  11
HETATM   11  C   UNL     1     -45.441  61.619 -48.375  1.00  0.00     0.278 C 
BRANCH  11  12
HETATM   12  O   UNL     1     -46.179  61.572 -47.163  1.00  0.00    -0.342 OA
BRANCH  12  13
HETATM   13  C   UNL     1     -45.456  61.868 -46.032  1.00  0.00     0.075 A 
HETATM   14  C   UNL     1     -45.568  63.176 -45.532  1.00  0.00    -0.028 A 
HETATM   15  C   UNL     1     -44.865  63.533 -44.367  1.00  0.00     0.016 A 
HETATM   16  C   UNL     1     -46.414  64.202 -46.234  1.00  0.00     0.051 C 
HETATM   17  C   UNL     1     -44.069  62.602 -43.690  1.00  0.00    -0.061 A 
HETATM   18  C   UNL     1     -43.289  63.001 -42.473  1.00  0.00     0.048 C 
HETATM   19  C   UNL     1     -43.966  61.306 -44.198  1.00  0.00     0.009 A 
HETATM   20  C   UNL     1     -44.662  60.937 -45.352  1.00  0.00     0.038 A 
ENDBRANCH  12  13
ENDBRANCH  11  12
ENDBRANCH   8  11
ENDBRANCH   1   7
BRANCH   4  21
HETATM   21  N   UNL     1     -43.071  57.163 -52.554  1.00  0.00    -0.378 N 
HETATM   22  C   UNL     1     -41.621  57.417 -52.632  1.00  0.00     0.150 C 
HETATM   23  C   UNL     1     -40.973  56.398 -53.593  1.00  0.00     0.255 C 
HETATM   24  N   UNL     1     -41.328  54.955 -53.208  1.00  0.00    -0.064 N 
HETATM   25  H   UNL     1     -40.879  54.772 -52.303  1.00  0.00     0.280 HD
HETATM   26  C   UNL     1     -42.837  54.774 -53.029  1.00  0.00     0.255 C 
HETATM   27  C   UNL     1     -43.418  55.824 -52.059  1.00  0.00     0.150 C 
BRANCH  24  28
HETATM   28  C   UNL     1     -40.784  53.948 -54.195  1.00  0.00     0.273 C 
BRANCH  28  29
HETATM   29  C   UNL     1     -40.370  52.652 -53.558  1.00  0.00    -0.033 A 
HETATM   30  C   UNL     1     -40.025  52.605 -52.199  1.00  0.00     0.009 A 
HETATM   31  C   UNL     1     -39.618  51.403 -51.615  1.00  0.00     0.001 A 
HETATM   32  C   UNL     1     -39.549  50.242 -52.382  1.00  0.00     0.000 A 
HETATM   33  C   UNL     1     -39.892  50.276 -53.731  1.00  0.00     0.001 A 
HETATM   34  C   UNL     1     -40.302  51.474 -54.318  1.00  0.00     0.009 A 
ENDBRANCH  28  29
ENDBRANCH  24  28
ENDBRANCH   4  21
TORSDOF 7
ENDMDL
MODEL 8
REMARK VINA RESULT:      -8.3      4.505      9.047
REMARK  7 active torsions:
REMARK  status: ('A' for Active; 'I' for Inactive)
REMARK    1  A    between atoms: C_6  and  O_7 
REMARK    2  A    between atoms: O_7  and  C_8 
REMARK    3  A    between atoms: C_8  and  C_9 
REMARK       I    between atoms: C_9  and  N_10 
REMARK    4  A    between atoms: N_10  and  C_11 
REMARK    5  A    between atoms: C_14  and  N_15 
REMARK    6  A    between atoms: N_18  and  C_20 
REMARK    7  A    between atoms: C_20  and  C_21 
ROOT
HETATM    1  C   UNL     1     -44.868  59.930 -50.533  1.00  0.00     0.034 A 
HETATM    2  C   UNL     1     -45.511  58.773 -50.963  1.00  0.00     0.032 A 
HETATM    3  C   UNL     1     -44.778  57.749 -51.573  1.00  0.00     0.031 A 
HETATM    4  C   UNL     1     -43.391  57.844 -51.747  1.00  0.00     0.030 A 
HETATM    5  C   UNL     1     -42.762  59.025 -51.340  1.00  0.00     0.031 A 
HETATM    6  C   UNL     1     -43.498  60.071 -50.765  1.00  0.00     0.032 A 
ENDROOT
BRANCH   1   7
HETATM    7  N   UNL     1     -45.550  60.995 -49.930  1.00  0.00    -0.325 N 
HETATM    8  C   UNL     1     -46.254  62.030 -50.497  1.00  0.00     0.246 C 
HETATM    9  O   UNL     1     -46.548  62.996 -49.789  1.00  0.00    -0.271 OA
HETATM   10  H   UNL     1     -45.537  61.048 -48.918  1.00  0.00     0.169 HD
BRANCH   8  11
HETATM   11  C   UNL     1     -46.792  61.893 -51.924  1.00  0.00     0.278 C 
BRANCH  11  12
HETATM   12  O   UNL     1     -45.965  62.541 -52.880  1.00  0.00    -0.342 OA
BRANCH  12  13
HETATM   13  C   UNL     1     -45.105  61.711 -53.560  1.00  0.00     0.075 A 
HETATM   14  C   UNL     1     -43.753  62.089 -53.592  1.00  0.00    -0.028 A 
HETATM   15  C   UNL     1     -42.823  61.269 -54.257  1.00  0.00     0.016 A 
HETATM   16  C   UNL     1     -43.290  63.362 -52.940  1.00  0.00     0.051 C 
HETATM   17  C   UNL     1     -43.221  60.078 -54.874  1.00  0.00    -0.061 A 
HETATM   18  C   UNL     1     -42.231  59.231 -55.617  1.00  0.00     0.048 C 
HETATM   19  C   UNL     1     -44.568  59.715 -54.835  1.00  0.00     0.009 A 
HETATM   20  C   UNL     1     -45.501  60.518 -54.174  1.00  0.00     0.038 A 
ENDBRANCH  12  13
ENDBRANCH  11  12
ENDBRANCH   8  11
ENDBRANCH   1   7
BRANCH   4  21
HETATM   21  N   UNL     1     -42.718  56.756 -52.308  1.00  0.00    -0.378 N 
HETATM   22  C   UNL     1     -41.316  57.042 -52.663  1.00  0.00     0.150 C 
HETATM   23  C   UNL     1     -40.825  56.000 -53.690  1.00  0.00     0.255 C 
HETATM   24  N   UNL     1     -41.057  54.566 -53.193  1.00  0.00    -0.064 N 
HETATM   25  H   UNL     1     -40.443  54.431 -52.382  1.00  0.00     0.280 HD
HETATM   26  C   UNL     1     -42.500  54.355 -52.730  1.00  0.00     0.255 C 
HETATM   27  C   UNL     1     -42.925  55.431 -51.708  1.00  0.00     0.150 C 
BRANCH  24  28
HETATM   28  C   UNL     1     -40.673  53.532 -54.227  1.00  0.00     0.273 C 
BRANCH  28  29
HETATM   29  C   UNL     1     -40.285  52.208 -53.631  1.00  0.00    -0.033 A 
HETATM   30  C   UNL     1     -39.883  52.122 -52.289  1.00  0.00     0.009 A 
HETATM   31  C   UNL     1     -39.501  50.894 -51.745  1.00  0.00     0.001 A 
HETATM   32  C   UNL     1     -39.512  49.746 -52.535  1.00  0.00     0.000 A 
HETATM   33  C   UNL     1     -39.912  49.820 -53.866  1.00  0.00     0.001 A 
HETATM   34  C   UNL     1     -40.298  51.043 -54.414  1.00  0.00     0.009 A 
ENDBRANCH  28  29
ENDBRANCH  24  28
ENDBRANCH   4  21
TORSDOF 7
ENDMDL
MODEL 9
REMARK VINA RESULT:      -8.2      3.946      9.668
REMARK  7 active torsions:
REMARK  status: ('A' for Active; 'I' for Inactive)
REMARK    1  A    between atoms: C_6  and  O_7 
REMARK    2  A    between atoms: O_7  and  C_8 
REMARK    3  A    between atoms: C_8  and  C_9 
REMARK       I    between atoms: C_9  and  N_10 
REMARK    4  A    between atoms: N_10  and  C_11 
REMARK    5  A    between atoms: C_14  and  N_15 
REMARK    6  A    between atoms: N_18  and  C_20 
REMARK    7  A    between atoms: C_20  and  C_21 
ROOT
HETATM    1  C   UNL     1     -43.207  59.844 -56.692  1.00  0.00     0.034 A 
HETATM    2  C   UNL     1     -42.255  60.020 -55.693  1.00  0.00     0.032 A 
HETATM    3  C   UNL     1     -41.848  58.933 -54.913  1.00  0.00     0.031 A 
HETATM    4  C   UNL     1     -42.362  57.646 -55.124  1.00  0.00     0.030 A 
HETATM    5  C   UNL     1     -43.341  57.489 -56.110  1.00  0.00     0.031 A 
HETATM    6  C   UNL     1     -43.781  58.584 -56.868  1.00  0.00     0.032 A 
ENDROOT
BRANCH   1   7
HETATM    7  N   UNL     1     -43.664  60.899 -57.494  1.00  0.00    -0.325 N 
HETATM    8  C   UNL     1     -43.104  61.469 -58.612  1.00  0.00     0.246 C 
HETATM    9  O   UNL     1     -43.546  62.554 -58.999  1.00  0.00    -0.271 OA
HETATM   10  H   UNL     1     -44.539  61.340 -57.234  1.00  0.00     0.169 HD
BRANCH   8  11
HETATM   11  C   UNL     1     -42.075  60.687 -59.432  1.00  0.00     0.278 C 
BRANCH  11  12
HETATM   12  O   UNL     1     -42.656  60.025 -60.545  1.00  0.00    -0.342 OA
BRANCH  12  13
HETATM   13  C   UNL     1     -42.993  58.710 -60.327  1.00  0.00     0.075 A 
HETATM   14  C   UNL     1     -44.358  58.386 -60.387  1.00  0.00    -0.028 A 
HETATM   15  C   UNL     1     -44.761  57.053 -60.190  1.00  0.00     0.016 A 
HETATM   16  C   UNL     1     -45.393  59.446 -60.642  1.00  0.00     0.051 C 
HETATM   17  C   UNL     1     -43.822  56.043 -59.949  1.00  0.00    -0.061 A 
HETATM   18  C   UNL     1     -44.263  54.631 -59.698  1.00  0.00     0.048 C 
HETATM   19  C   UNL     1     -42.469  56.378 -59.892  1.00  0.00     0.009 A 
HETATM   20  C   UNL     1     -42.055  57.698 -60.090  1.00  0.00     0.038 A 
ENDBRANCH  12  13
ENDBRANCH  11  12
ENDBRANCH   8  11
ENDBRANCH   1   7
BRANCH   4  21
HETATM   21  N   UNL     1     -41.863  56.598 -54.348  1.00  0.00    -0.378 N 
HETATM   22  C   UNL     1     -42.710  56.259 -53.189  1.00  0.00     0.150 C 
HETATM   23  C   UNL     1     -41.873  55.479 -52.154  1.00  0.00     0.255 C 
HETATM   24  N   UNL     1     -41.181  54.265 -52.788  1.00  0.00    -0.064 N 
HETATM   25  H   UNL     1     -41.923  53.610 -53.061  1.00  0.00     0.280 HD
HETATM   26  C   UNL     1     -40.408  54.652 -54.052  1.00  0.00     0.255 C 
HETATM   27  C   UNL     1     -41.303  55.429 -55.041  1.00  0.00     0.150 C 
BRANCH  24  28
HETATM   28  C   UNL     1     -40.278  53.545 -51.813  1.00  0.00     0.273 C 
BRANCH  28  29
HETATM   29  C   UNL     1     -40.046  52.103 -52.167  1.00  0.00    -0.033 A 
HETATM   30  C   UNL     1     -39.793  51.155 -51.164  1.00  0.00     0.009 A 
HETATM   31  C   UNL     1     -39.554  49.821 -51.498  1.00  0.00     0.001 A 
HETATM   32  C   UNL     1     -39.562  49.423 -52.833  1.00  0.00     0.000 A 
HETATM   33  C   UNL     1     -39.815  50.354 -53.837  1.00  0.00     0.001 A 
HETATM   34  C   UNL     1     -40.057  51.688 -53.508  1.00  0.00     0.009 A 
ENDBRANCH  28  29
ENDBRANCH  24  28
ENDBRANCH   4  21
TORSDOF 7
ENDMDL
MODEL 10
REMARK VINA RESULT:      -7.9      3.927      9.351
REMARK  7 active torsions:
REMARK  status: ('A' for Active; 'I' for Inactive)
REMARK    1  A    between atoms: C_6  and  O_7 
REMARK    2  A    between atoms: O_7  and  C_8 
REMARK    3  A    between atoms: C_8  and  C_9 
REMARK       I    between atoms: C_9  and  N_10 
REMARK    4  A    between atoms: N_10  and  C_11 
REMARK    5  A    between atoms: C_14  and  N_15 
REMARK    6  A    between atoms: N_18  and  C_20 
REMARK    7  A    between atoms: C_20  and  C_21 
ROOT
HETATM    1  C   UNL     1     -44.322  60.149 -55.119  1.00  0.00     0.034 A 
HETATM    2  C   UNL     1     -42.951  59.990 -55.298  1.00  0.00     0.032 A 
HETATM    3  C   UNL     1     -42.365  58.730 -55.140  1.00  0.00     0.031 A 
HETATM    4  C   UNL     1     -43.131  57.600 -54.823  1.00  0.00     0.030 A 
HETATM    5  C   UNL     1     -44.502  57.779 -54.615  1.00  0.00     0.031 A 
HETATM    6  C   UNL     1     -45.088  59.047 -54.733  1.00  0.00     0.032 A 
ENDROOT
BRANCH   1   7
HETATM    7  N   UNL     1     -44.963  61.389 -55.249  1.00  0.00    -0.325 N 
HETATM    8  C   UNL     1     -45.354  62.070 -56.375  1.00  0.00     0.246 C 
HETATM    9  O   UNL     1     -45.659  63.260 -56.264  1.00  0.00    -0.271 OA
HETATM   10  H   UNL     1     -45.180  61.895 -54.398  1.00  0.00     0.169 HD
BRANCH   8  11
HETATM   11  C   UNL     1     -45.556  61.313 -57.691  1.00  0.00     0.278 C 
BRANCH  11  12
HETATM   12  O   UNL     1     -44.344  61.141 -58.411  1.00  0.00    -0.342 OA
BRANCH  12  13
HETATM   13  C   UNL     1     -44.013  59.835 -58.684  1.00  0.00     0.075 A 
HETATM   14  C   UNL     1     -42.734  59.603 -59.217  1.00  0.00    -0.028 A 
HETATM   15  C   UNL     1     -42.333  58.286 -59.499  1.00  0.00     0.016 A 
HETATM   16  C   UNL     1     -41.797  60.744 -59.503  1.00  0.00     0.051 C 
HETATM   17  C   UNL     1     -43.181  57.201 -59.245  1.00  0.00    -0.061 A 
HETATM   18  C   UNL     1     -42.762  55.803 -59.589  1.00  0.00     0.048 C 
HETATM   19  C   UNL     1     -44.449  57.446 -58.717  1.00  0.00     0.009 A 
HETATM   20  C   UNL     1     -44.859  58.750 -58.427  1.00  0.00     0.038 A 
ENDBRANCH  12  13
ENDBRANCH  11  12
ENDBRANCH   8  11
ENDBRANCH   1   7
BRANCH   4  21
HETATM   21  N   UNL     1     -42.485  56.364 -54.742  1.00  0.00    -0.378 N 
HETATM   22  C   UNL     1     -41.207  56.406 -54.008  1.00  0.00     0.150 C 
HETATM   23  C   UNL     1     -40.357  55.175 -54.387  1.00  0.00     0.255 C 
HETATM   24  N   UNL     1     -41.139  53.869 -54.191  1.00  0.00    -0.064 N 
HETATM   25  H   UNL     1     -41.297  53.768 -53.182  1.00  0.00     0.280 HD
HETATM   26  C   UNL     1     -42.506  53.920 -54.878  1.00  0.00     0.255 C 
HETATM   27  C   UNL     1     -43.300  55.175 -54.456  1.00  0.00     0.150 C 
BRANCH  24  28
HETATM   28  C   UNL     1     -40.358  52.659 -54.649  1.00  0.00     0.273 C 
BRANCH  28  29
HETATM   29  C   UNL     1     -40.044  51.696 -53.540  1.00  0.00    -0.033 A 
HETATM   30  C   UNL     1     -39.876  50.329 -53.809  1.00  0.00     0.009 A 
HETATM   31  C   UNL     1     -39.607  49.433 -52.772  1.00  0.00     0.001 A 
HETATM   32  C   UNL     1     -39.507  49.892 -51.460  1.00  0.00     0.000 A 
HETATM   33  C   UNL     1     -39.669  51.247 -51.182  1.00  0.00     0.001 A 
HETATM   34  C   UNL     1     -39.935  52.147 -52.215  1.00  0.00     0.009 A 
ENDBRANCH  28  29
ENDBRANCH  24  28
ENDBRANCH   4  21
TORSDOF 7
ENDMDL
