MODEL 1
REMARK VINA RESULT:      -7.8      0.000      0.000
REMARK  5 active torsions:
REMARK  status: ('A' for Active; 'I' for Inactive)
REMARK    1  A    between atoms: C_4  and  C_5 
REMARK    2  A    between atoms: C_8  and  C_9 
REMARK    3  A    between atoms: C_9  and  N_10 
REMARK       I    between atoms: N_10  and  C_11 
REMARK    4  A    between atoms: C_11  and  C_12 
REMARK    5  A    between atoms: C_16  and  C_17 
ROOT
HETATM    1  N   UNL     1     -42.186  57.035 -53.681  1.00  0.00    -0.348 N 
HETATM    2  C   UNL     1     -43.418  57.228 -54.248  1.00  0.00     0.271 C 
HETATM    3  O   UNL     1     -44.397  57.548 -53.575  1.00  0.00    -0.266 OA
HETATM    4  H   UNL     1     -41.375  56.907 -54.273  1.00  0.00     0.163 HD
ENDROOT
BRANCH   1   5
HETATM    5  C   UNL     1     -41.965  57.121 -52.254  1.00  0.00     0.201 C 
BRANCH   5   6
HETATM    6  C   UNL     1     -41.364  55.857 -51.748  1.00  0.00     0.122 A 
HETATM    7  N   UNL     1     -41.211  54.759 -52.559  1.00  0.00    -0.341 N 
HETATM    8  C   UNL     1     -40.602  53.761 -51.839  1.00  0.00     0.061 A 
HETATM    9  H   UNL     1     -41.510  54.714 -53.526  1.00  0.00     0.167 HD
HETATM   10  C   UNL     1     -40.406  54.331 -50.595  1.00  0.00     0.149 A 
HETATM   11  N   UNL     1     -40.888  55.616 -50.545  1.00  0.00    -0.243 NA
BRANCH   8  12
HETATM   12  C   UNL     1     -40.265  52.450 -52.382  1.00  0.00    -0.008 A 
HETATM   13  C   UNL     1     -40.413  52.191 -53.750  1.00  0.00     0.014 A 
HETATM   14  C   UNL     1     -40.101  50.934 -54.276  1.00  0.00     0.001 A 
HETATM   15  C   UNL     1     -39.631  49.925 -53.438  1.00  0.00     0.000 A 
HETATM   16  C   UNL     1     -39.474  50.170 -52.076  1.00  0.00     0.001 A 
HETATM   17  C   UNL     1     -39.790  51.426 -51.550  1.00  0.00     0.014 A 
ENDBRANCH   8  12
ENDBRANCH   5   6
ENDBRANCH   1   5
BRANCH   2  18
HETATM   18  C   UNL     1     -43.499  57.061 -55.671  1.00  0.00     0.141 A 
HETATM   19  N   UNL     1     -44.179  57.968 -56.443  1.00  0.00    -0.271 N 
HETATM   20  H   UNL     1     -44.659  58.803 -56.118  1.00  0.00     0.189 HD
HETATM   21  N   UNL     1     -44.192  57.684 -57.754  1.00  0.00    -0.177 NA
HETATM   22  C   UNL     1     -43.501  56.543 -57.832  1.00  0.00     0.083 A 
HETATM   23  C   UNL     1     -43.039  56.113 -56.564  1.00  0.00     0.094 A 
HETATM   24 CL   UNL     1     -42.131  54.712 -56.246  1.00  0.00    -0.079 Cl
BRANCH  22  25
HETATM   25  C   UNL     1     -43.263  55.807 -59.148  1.00  0.00     0.041 A 
HETATM   26  C   UNL     1     -44.262  54.745 -59.571  1.00  0.00     0.011 A 
HETATM   27  C   UNL     1     -44.222  56.044 -60.299  1.00  0.00     0.011 A 
ENDBRANCH  22  25
ENDBRANCH   2  18
TORSDOF 5
ENDMDL
MODEL 2
REMARK VINA RESULT:      -7.5      1.790      2.098
REMARK  5 active torsions:
REMARK  status: ('A' for Active; 'I' for Inactive)
REMARK    1  A    between atoms: C_4  and  C_5 
REMARK    2  A    between atoms: C_8  and  C_9 
REMARK    3  A    between atoms: C_9  and  N_10 
REMARK       I    between atoms: N_10  and  C_11 
REMARK    4  A    between atoms: C_11  and  C_12 
REMARK    5  A    between atoms: C_16  and  C_17 
ROOT
HETATM    1  N   UNL     1     -43.734  56.960 -54.896  1.00  0.00    -0.348 N 
HETATM    2  C   UNL     1     -43.025  57.554 -55.908  1.00  0.00     0.271 C 
HETATM    3  O   UNL     1     -42.183  58.422 -55.685  1.00  0.00    -0.266 OA
HETATM    4  H   UNL     1     -44.319  56.159 -55.096  1.00  0.00     0.163 HD
ENDROOT
BRANCH   1   5
HETATM    5  C   UNL     1     -43.595  57.361 -53.513  1.00  0.00     0.201 C 
BRANCH   5   6
HETATM    6  C   UNL     1     -42.668  56.440 -52.800  1.00  0.00     0.122 A 
HETATM    7  N   UNL     1     -42.283  55.241 -53.349  1.00  0.00    -0.341 N 
HETATM    8  C   UNL     1     -41.405  54.626 -52.491  1.00  0.00     0.061 A 
HETATM    9  H   UNL     1     -42.610  54.887 -54.240  1.00  0.00     0.167 HD
HETATM   10  C   UNL     1     -41.297  55.520 -51.441  1.00  0.00     0.149 A 
HETATM   11  N   UNL     1     -42.086  56.627 -51.635  1.00  0.00    -0.243 NA
BRANCH   8  12
HETATM   12  C   UNL     1     -40.775  53.337 -52.751  1.00  0.00    -0.008 A 
HETATM   13  C   UNL     1     -40.923  52.715 -53.998  1.00  0.00     0.014 A 
HETATM   14  C   UNL     1     -40.329  51.475 -54.251  1.00  0.00     0.001 A 
HETATM   15  C   UNL     1     -39.577  50.848 -53.261  1.00  0.00     0.000 A 
HETATM   16  C   UNL     1     -39.417  51.457 -52.019  1.00  0.00     0.001 A 
HETATM   17  C   UNL     1     -40.014  52.694 -51.765  1.00  0.00     0.014 A 
ENDBRANCH   8  12
ENDBRANCH   5   6
ENDBRANCH   1   5
BRANCH   2  18
HETATM   18  C   UNL     1     -43.303  57.092 -57.238  1.00  0.00     0.141 A 
HETATM   19  N   UNL     1     -42.377  56.353 -57.928  1.00  0.00    -0.271 N 
HETATM   20  H   UNL     1     -41.460  56.066 -57.596  1.00  0.00     0.189 HD
HETATM   21  N   UNL     1     -42.755  56.000 -59.165  1.00  0.00    -0.177 NA
HETATM   22  C   UNL     1     -43.972  56.539 -59.284  1.00  0.00     0.083 A 
HETATM   23  C   UNL     1     -44.367  57.224 -58.109  1.00  0.00     0.094 A 
HETATM   24 CL   UNL     1     -45.836  58.043 -57.868  1.00  0.00    -0.079 Cl
BRANCH  22  25
HETATM   25  C   UNL     1     -44.810  56.421 -60.554  1.00  0.00     0.041 A 
HETATM   26  C   UNL     1     -45.056  55.039 -61.130  1.00  0.00     0.011 A 
HETATM   27  C   UNL     1     -46.175  55.765 -60.468  1.00  0.00     0.011 A 
ENDBRANCH  22  25
ENDBRANCH   2  18
TORSDOF 5
ENDMDL
MODEL 3
REMARK VINA RESULT:      -7.5      3.001      4.151
REMARK  5 active torsions:
REMARK  status: ('A' for Active; 'I' for Inactive)
REMARK    1  A    between atoms: C_4  and  C_5 
REMARK    2  A    between atoms: C_8  and  C_9 
REMARK    3  A    between atoms: C_9  and  N_10 
REMARK       I    between atoms: N_10  and  C_11 
REMARK    4  A    between atoms: C_11  and  C_12 
REMARK    5  A    between atoms: C_16  and  C_17 
ROOT
HETATM    1  N   UNL     1     -43.644  56.467 -57.491  1.00  0.00    -0.348 N 
HETATM    2  C   UNL     1     -43.554  56.861 -58.800  1.00  0.00     0.271 C 
HETATM    3  O   UNL     1     -42.544  57.406 -59.244  1.00  0.00    -0.266 OA
HETATM    4  H   UNL     1     -44.428  55.903 -57.188  1.00  0.00     0.163 HD
ENDROOT
BRANCH   1   5
HETATM    5  C   UNL     1     -42.596  56.727 -56.527  1.00  0.00     0.201 C 
BRANCH   5   6
HETATM    6  C   UNL     1     -42.651  55.730 -55.424  1.00  0.00     0.122 A 
HETATM    7  N   UNL     1     -41.589  54.904 -55.147  1.00  0.00    -0.341 N 
HETATM    8  C   UNL     1     -41.910  54.122 -54.065  1.00  0.00     0.061 A 
HETATM    9  H   UNL     1     -40.722  54.890 -55.671  1.00  0.00     0.167 HD
HETATM   10  C   UNL     1     -43.186  54.537 -53.731  1.00  0.00     0.149 A 
HETATM   11  N   UNL     1     -43.638  55.518 -54.579  1.00  0.00    -0.243 NA
BRANCH   8  12
HETATM   12  C   UNL     1     -41.014  53.134 -53.476  1.00  0.00    -0.008 A 
HETATM   13  C   UNL     1     -40.696  53.189 -52.113  1.00  0.00     0.014 A 
HETATM   14  C   UNL     1     -39.830  52.250 -51.544  1.00  0.00     0.001 A 
HETATM   15  C   UNL     1     -39.279  51.243 -52.333  1.00  0.00     0.000 A 
HETATM   16  C   UNL     1     -39.591  51.172 -53.688  1.00  0.00     0.001 A 
HETATM   17  C   UNL     1     -40.453  52.114 -54.257  1.00  0.00     0.014 A 
ENDBRANCH   8  12
ENDBRANCH   5   6
ENDBRANCH   1   5
BRANCH   2  18
HETATM   18  C   UNL     1     -44.691  56.583 -59.630  1.00  0.00     0.141 A 
HETATM   19  N   UNL     1     -44.614  55.649 -60.630  1.00  0.00    -0.271 N 
HETATM   20  H   UNL     1     -43.803  55.085 -60.873  1.00  0.00     0.189 HD
HETATM   21  N   UNL     1     -45.741  55.499 -61.341  1.00  0.00    -0.177 NA
HETATM   22  C   UNL     1     -46.579  56.378 -60.784  1.00  0.00     0.083 A 
HETATM   23  C   UNL     1     -45.979  57.075 -59.707  1.00  0.00     0.094 A 
HETATM   24 CL   UNL     1     -46.714  58.273 -58.750  1.00  0.00    -0.079 Cl
BRANCH  22  25
HETATM   25  C   UNL     1     -48.007  56.589 -61.279  1.00  0.00     0.041 A 
HETATM   26  C   UNL     1     -48.339  57.888 -61.991  1.00  0.00     0.011 A 
HETATM   27  C   UNL     1     -48.262  56.623 -62.774  1.00  0.00     0.011 A 
ENDBRANCH  22  25
ENDBRANCH   2  18
TORSDOF 5
ENDMDL
MODEL 4
REMARK VINA RESULT:      -7.4      1.774      2.197
REMARK  5 active torsions:
REMARK  status: ('A' for Active; 'I' for Inactive)
REMARK    1  A    between atoms: C_4  and  C_5 
REMARK    2  A    between atoms: C_8  and  C_9 
REMARK    3  A    between atoms: C_9  and  N_10 
REMARK       I    between atoms: N_10  and  C_11 
REMARK    4  A    between atoms: C_11  and  C_12 
REMARK    5  A    between atoms: C_16  and  C_17 
ROOT
HETATM    1  N   UNL     1     -42.523  58.168 -53.364  1.00  0.00    -0.348 N 
HETATM    2  C   UNL     1     -41.734  58.886 -54.224  1.00  0.00     0.271 C 
HETATM    3  O   UNL     1     -40.758  59.521 -53.829  1.00  0.00    -0.266 OA
HETATM    4  H   UNL     1     -43.234  57.549 -53.733  1.00  0.00     0.163 HD
ENDROOT
BRANCH   1   5
HETATM    5  C   UNL     1     -42.310  58.165 -51.933  1.00  0.00     0.201 C 
BRANCH   5   6
HETATM    6  C   UNL     1     -41.794  56.842 -51.491  1.00  0.00     0.122 A 
HETATM    7  N   UNL     1     -41.475  55.856 -52.394  1.00  0.00    -0.341 N 
HETATM    8  C   UNL     1     -40.995  54.769 -51.707  1.00  0.00     0.061 A 
HETATM    9  H   UNL     1     -41.587  55.940 -53.397  1.00  0.00     0.167 HD
HETATM   10  C   UNL     1     -41.043  55.171 -50.385  1.00  0.00     0.149 A 
HETATM   11  N   UNL     1     -41.546  56.443 -50.261  1.00  0.00    -0.243 NA
BRANCH   8  12
HETATM   12  C   UNL     1     -40.542  53.536 -52.341  1.00  0.00    -0.008 A 
HETATM   13  C   UNL     1     -39.921  52.535 -51.582  1.00  0.00     0.014 A 
HETATM   14  C   UNL     1     -39.476  51.355 -52.186  1.00  0.00     0.001 A 
HETATM   15  C   UNL     1     -39.654  51.162 -53.554  1.00  0.00     0.000 A 
HETATM   16  C   UNL     1     -40.274  52.146 -54.319  1.00  0.00     0.001 A 
HETATM   17  C   UNL     1     -40.714  53.327 -53.717  1.00  0.00     0.014 A 
ENDBRANCH   8  12
ENDBRANCH   5   6
ENDBRANCH   1   5
BRANCH   2  18
HETATM   18  C   UNL     1     -42.094  58.837 -55.613  1.00  0.00     0.141 A 
HETATM   19  N   UNL     1     -42.124  59.981 -56.368  1.00  0.00    -0.271 N 
HETATM   20  H   UNL     1     -41.903  60.922 -56.053  1.00  0.00     0.189 HD
HETATM   21  N   UNL     1     -42.493  59.797 -57.644  1.00  0.00    -0.177 NA
HETATM   22  C   UNL     1     -42.720  58.481 -57.715  1.00  0.00     0.083 A 
HETATM   23  C   UNL     1     -42.479  57.833 -56.480  1.00  0.00     0.094 A 
HETATM   24 CL   UNL     1     -42.657  56.172 -56.164  1.00  0.00    -0.079 Cl
BRANCH  22  25
HETATM   25  C   UNL     1     -43.193  57.791 -58.991  1.00  0.00     0.041 A 
HETATM   26  C   UNL     1     -42.286  57.823 -60.208  1.00  0.00     0.011 A 
HETATM   27  C   UNL     1     -42.462  56.547 -59.460  1.00  0.00     0.011 A 
ENDBRANCH  22  25
ENDBRANCH   2  18
TORSDOF 5
ENDMDL
MODEL 5
REMARK VINA RESULT:      -7.2      2.445      2.642
REMARK  5 active torsions:
REMARK  status: ('A' for Active; 'I' for Inactive)
REMARK    1  A    between atoms: C_4  and  C_5 
REMARK    2  A    between atoms: C_8  and  C_9 
REMARK    3  A    between atoms: C_9  and  N_10 
REMARK       I    between atoms: N_10  and  C_11 
REMARK    4  A    between atoms: C_11  and  C_12 
REMARK    5  A    between atoms: C_16  and  C_17 
ROOT
HETATM    1  N   UNL     1     -42.608  58.031 -53.492  1.00  0.00    -0.348 N 
HETATM    2  C   UNL     1     -41.860  58.794 -54.350  1.00  0.00     0.271 C 
HETATM    3  O   UNL     1     -40.937  59.502 -53.951  1.00  0.00    -0.266 OA
HETATM    4  H   UNL     1     -43.268  57.359 -53.861  1.00  0.00     0.163 HD
ENDROOT
BRANCH   1   5
HETATM    5  C   UNL     1     -42.415  58.061 -52.058  1.00  0.00     0.201 C 
BRANCH   5   6
HETATM    6  C   UNL     1     -41.800  56.788 -51.594  1.00  0.00     0.122 A 
HETATM    7  N   UNL     1     -41.557  55.749 -52.460  1.00  0.00    -0.341 N 
HETATM    8  C   UNL     1     -40.957  54.728 -51.765  1.00  0.00     0.061 A 
HETATM    9  H   UNL     1     -41.793  55.757 -53.445  1.00  0.00     0.167 HD
HETATM   10  C   UNL     1     -40.860  55.223 -50.478  1.00  0.00     0.149 A 
HETATM   11  N   UNL     1     -41.391  56.486 -50.379  1.00  0.00    -0.243 NA
BRANCH   8  12
HETATM   12  C   UNL     1     -40.539  53.466 -52.365  1.00  0.00    -0.008 A 
HETATM   13  C   UNL     1     -40.803  53.202 -53.715  1.00  0.00     0.014 A 
HETATM   14  C   UNL     1     -40.414  51.991 -54.294  1.00  0.00     0.001 A 
HETATM   15  C   UNL     1     -39.750  51.034 -53.530  1.00  0.00     0.000 A 
HETATM   16  C   UNL     1     -39.476  51.286 -52.188  1.00  0.00     0.001 A 
HETATM   17  C   UNL     1     -39.869  52.495 -51.608  1.00  0.00     0.014 A 
ENDBRANCH   8  12
ENDBRANCH   5   6
ENDBRANCH   1   5
BRANCH   2  18
HETATM   18  C   UNL     1     -42.196  58.702 -55.743  1.00  0.00     0.141 A 
HETATM   19  N   UNL     1     -42.283  57.482 -56.362  1.00  0.00    -0.271 N 
HETATM   20  H   UNL     1     -42.137  56.572 -55.933  1.00  0.00     0.189 HD
HETATM   21  N   UNL     1     -42.588  57.540 -57.667  1.00  0.00    -0.177 NA
HETATM   22  C   UNL     1     -42.693  58.851 -57.903  1.00  0.00     0.083 A 
HETATM   23  C   UNL     1     -42.467  59.622 -56.738  1.00  0.00     0.094 A 
HETATM   24 CL   UNL     1     -42.507  61.317 -56.629  1.00  0.00    -0.079 Cl
BRANCH  22  25
HETATM   25  C   UNL     1     -43.012  59.420 -59.283  1.00  0.00     0.041 A 
HETATM   26  C   UNL     1     -41.900  60.106 -60.055  1.00  0.00     0.011 A 
HETATM   27  C   UNL     1     -42.384  58.770 -60.502  1.00  0.00     0.011 A 
ENDBRANCH  22  25
ENDBRANCH   2  18
TORSDOF 5
ENDMDL
MODEL 6
REMARK VINA RESULT:      -7.0      5.307      7.485
REMARK  5 active torsions:
REMARK  status: ('A' for Active; 'I' for Inactive)
REMARK    1  A    between atoms: C_4  and  C_5 
REMARK    2  A    between atoms: C_8  and  C_9 
REMARK    3  A    between atoms: C_9  and  N_10 
REMARK       I    between atoms: N_10  and  C_11 
REMARK    4  A    between atoms: C_11  and  C_12 
REMARK    5  A    between atoms: C_16  and  C_17 
ROOT
HETATM    1  N   UNL     1     -44.380  58.521 -50.629  1.00  0.00    -0.348 N 
HETATM    2  C   UNL     1     -45.497  59.250 -50.316  1.00  0.00     0.271 C 
HETATM    3  O   UNL     1     -46.630  58.805 -50.491  1.00  0.00    -0.266 OA
HETATM    4  H   UNL     1     -43.467  58.856 -50.349  1.00  0.00     0.163 HD
ENDROOT
BRANCH   1   5
HETATM    5  C   UNL     1     -44.453  57.217 -51.252  1.00  0.00     0.201 C 
BRANCH   5   6
HETATM    6  C   UNL     1     -43.117  56.562 -51.234  1.00  0.00     0.122 A 
HETATM    7  N   UNL     1     -42.877  55.397 -51.921  1.00  0.00    -0.341 N 
HETATM    8  C   UNL     1     -41.560  55.049 -51.752  1.00  0.00     0.061 A 
HETATM    9  H   UNL     1     -43.575  54.892 -52.454  1.00  0.00     0.167 HD
HETATM   10  C   UNL     1     -41.056  56.060 -50.955  1.00  0.00     0.149 A 
HETATM   11  N   UNL     1     -42.023  56.980 -50.631  1.00  0.00    -0.243 NA
BRANCH   8  12
HETATM   12  C   UNL     1     -40.942  53.872 -52.352  1.00  0.00    -0.008 A 
HETATM   13  C   UNL     1     -40.272  52.938 -51.551  1.00  0.00     0.014 A 
HETATM   14  C   UNL     1     -39.669  51.813 -52.120  1.00  0.00     0.001 A 
HETATM   15  C   UNL     1     -39.737  51.607 -53.496  1.00  0.00     0.000 A 
HETATM   16  C   UNL     1     -40.404  52.524 -54.304  1.00  0.00     0.001 A 
HETATM   17  C   UNL     1     -41.002  53.651 -53.735  1.00  0.00     0.014 A 
ENDBRANCH   8  12
ENDBRANCH   5   6
ENDBRANCH   1   5
BRANCH   2  18
HETATM   18  C   UNL     1     -45.273  60.549 -49.750  1.00  0.00     0.141 A 
HETATM   19  N   UNL     1     -44.834  61.586 -50.532  1.00  0.00    -0.271 N 
HETATM   20  H   UNL     1     -44.639  61.554 -51.529  1.00  0.00     0.189 HD
HETATM   21  N   UNL     1     -44.649  62.741 -49.875  1.00  0.00    -0.177 NA
HETATM   22  C   UNL     1     -44.973  62.436 -48.614  1.00  0.00     0.083 A 
HETATM   23  C   UNL     1     -45.378  61.086 -48.481  1.00  0.00     0.094 A 
HETATM   24 CL   UNL     1     -45.861  60.318 -47.044  1.00  0.00    -0.079 Cl
BRANCH  22  25
HETATM   25  C   UNL     1     -44.897  63.446 -47.473  1.00  0.00     0.041 A 
HETATM   26  C   UNL     1     -45.682  64.739 -47.599  1.00  0.00     0.011 A 
HETATM   27  C   UNL     1     -46.138  63.697 -46.638  1.00  0.00     0.011 A 
ENDBRANCH  22  25
ENDBRANCH   2  18
TORSDOF 5
ENDMDL
MODEL 7
REMARK VINA RESULT:      -6.9     14.866     17.580
REMARK  5 active torsions:
REMARK  status: ('A' for Active; 'I' for Inactive)
REMARK    1  A    between atoms: C_4  and  C_5 
REMARK    2  A    between atoms: C_8  and  C_9 
REMARK    3  A    between atoms: C_9  and  N_10 
REMARK       I    between atoms: N_10  and  C_11 
REMARK    4  A    between atoms: C_11  and  C_12 
REMARK    5  A    between atoms: C_16  and  C_17 
ROOT
HETATM    1  N   UNL     1     -34.814  41.516 -54.328  1.00  0.00    -0.348 N 
HETATM    2  C   UNL     1     -35.212  41.813 -53.051  1.00  0.00     0.271 C 
HETATM    3  O   UNL     1     -35.990  42.736 -52.814  1.00  0.00    -0.266 OA
HETATM    4  H   UNL     1     -34.285  40.672 -54.506  1.00  0.00     0.163 HD
ENDROOT
BRANCH   1   5
HETATM    5  C   UNL     1     -35.220  42.305 -55.472  1.00  0.00     0.201 C 
BRANCH   5   6
HETATM    6  C   UNL     1     -36.404  41.690 -56.128  1.00  0.00     0.122 A 
HETATM    7  N   UNL     1     -36.314  41.092 -57.362  1.00  0.00    -0.341 N 
HETATM    8  C   UNL     1     -37.545  40.586 -57.697  1.00  0.00     0.061 A 
HETATM    9  H   UNL     1     -35.467  41.047 -57.916  1.00  0.00     0.167 HD
HETATM   10  C   UNL     1     -38.337  40.908 -56.610  1.00  0.00     0.149 A 
HETATM   11  N   UNL     1     -37.630  41.597 -55.655  1.00  0.00    -0.243 NA
BRANCH   8  12
HETATM   12  C   UNL     1     -37.824  39.867 -58.935  1.00  0.00    -0.008 A 
HETATM   13  C   UNL     1     -37.253  40.289 -60.143  1.00  0.00     0.014 A 
HETATM   14  C   UNL     1     -37.524  39.610 -61.335  1.00  0.00     0.001 A 
HETATM   15  C   UNL     1     -38.362  38.498 -61.329  1.00  0.00     0.000 A 
HETATM   16  C   UNL     1     -38.932  38.064 -60.134  1.00  0.00     0.001 A 
HETATM   17  C   UNL     1     -38.666  38.746 -58.944  1.00  0.00     0.014 A 
ENDBRANCH   8  12
ENDBRANCH   5   6
ENDBRANCH   1   5
BRANCH   2  18
HETATM   18  C   UNL     1     -34.691  40.975 -52.009  1.00  0.00     0.141 A 
HETATM   19  N   UNL     1     -35.523  40.446 -51.056  1.00  0.00    -0.271 N 
HETATM   20  H   UNL     1     -36.529  40.574 -50.990  1.00  0.00     0.189 HD
HETATM   21  N   UNL     1     -34.905  39.696 -50.131  1.00  0.00    -0.177 NA
HETATM   22  C   UNL     1     -33.621  39.749 -50.496  1.00  0.00     0.083 A 
HETATM   23  C   UNL     1     -33.431  40.526 -51.664  1.00  0.00     0.094 A 
HETATM   24 CL   UNL     1     -31.949  40.836 -52.437  1.00  0.00    -0.079 Cl
BRANCH  22  25
HETATM   25  C   UNL     1     -32.509  39.051 -49.716  1.00  0.00     0.041 A 
HETATM   26  C   UNL     1     -31.811  39.820 -48.610  1.00  0.00     0.011 A 
HETATM   27  C   UNL     1     -32.744  38.715 -48.256  1.00  0.00     0.011 A 
ENDBRANCH  22  25
ENDBRANCH   2  18
TORSDOF 5
ENDMDL
MODEL 8
REMARK VINA RESULT:      -6.8      2.687      7.254
REMARK  5 active torsions:
REMARK  status: ('A' for Active; 'I' for Inactive)
REMARK    1  A    between atoms: C_4  and  C_5 
REMARK    2  A    between atoms: C_8  and  C_9 
REMARK    3  A    between atoms: C_9  and  N_10 
REMARK       I    between atoms: N_10  and  C_11 
REMARK    4  A    between atoms: C_11  and  C_12 
REMARK    5  A    between atoms: C_16  and  C_17 
ROOT
HETATM    1  N   UNL     1     -41.362  56.416 -52.624  1.00  0.00    -0.348 N 
HETATM    2  C   UNL     1     -42.034  55.231 -52.475  1.00  0.00     0.271 C 
HETATM    3  O   UNL     1     -43.132  55.174 -51.924  1.00  0.00    -0.266 OA
HETATM    4  H   UNL     1     -40.530  56.453 -53.199  1.00  0.00     0.163 HD
ENDROOT
BRANCH   1   5
HETATM    5  C   UNL     1     -41.858  57.663 -52.084  1.00  0.00     0.201 C 
BRANCH   5   6
HETATM    6  C   UNL     1     -41.993  58.676 -53.165  1.00  0.00     0.122 A 
HETATM    7  N   UNL     1     -41.914  58.327 -54.491  1.00  0.00    -0.341 N 
HETATM    8  C   UNL     1     -42.109  59.452 -55.254  1.00  0.00     0.061 A 
HETATM    9  H   UNL     1     -41.736  57.389 -54.827  1.00  0.00     0.167 HD
HETATM   10  C   UNL     1     -42.310  60.450 -54.319  1.00  0.00     0.149 A 
HETATM   11  N   UNL     1     -42.226  59.966 -53.036  1.00  0.00    -0.243 NA
BRANCH   8  12
HETATM   12  C   UNL     1     -42.108  59.461 -56.713  1.00  0.00    -0.008 A 
HETATM   13  C   UNL     1     -42.398  58.291 -57.428  1.00  0.00     0.014 A 
HETATM   14  C   UNL     1     -42.389  58.290 -58.826  1.00  0.00     0.001 A 
HETATM   15  C   UNL     1     -42.097  59.460 -59.522  1.00  0.00     0.000 A 
HETATM   16  C   UNL     1     -41.812  60.631 -58.824  1.00  0.00     0.001 A 
HETATM   17  C   UNL     1     -41.816  60.631 -57.427  1.00  0.00     0.014 A 
ENDBRANCH   8  12
ENDBRANCH   5   6
ENDBRANCH   1   5
BRANCH   2  18
HETATM   18  C   UNL     1     -41.399  54.064 -53.018  1.00  0.00     0.141 A 
HETATM   19  N   UNL     1     -41.748  53.591 -54.256  1.00  0.00    -0.271 N 
HETATM   20  H   UNL     1     -42.441  53.989 -54.885  1.00  0.00     0.189 HD
HETATM   21  N   UNL     1     -41.091  52.485 -54.636  1.00  0.00    -0.177 NA
HETATM   22  C   UNL     1     -40.290  52.228 -53.598  1.00  0.00     0.083 A 
HETATM   23  C   UNL     1     -40.435  53.185 -52.564  1.00  0.00     0.094 A 
HETATM   24 CL   UNL     1     -39.598  53.203 -51.085  1.00  0.00    -0.079 Cl
BRANCH  22  25
HETATM   25  C   UNL     1     -39.347  51.028 -53.557  1.00  0.00     0.041 A 
HETATM   26  C   UNL     1     -39.851  49.735 -52.943  1.00  0.00     0.011 A 
HETATM   27  C   UNL     1     -39.666  49.821 -54.418  1.00  0.00     0.011 A 
ENDBRANCH  22  25
ENDBRANCH   2  18
TORSDOF 5
ENDMDL
MODEL 9
REMARK VINA RESULT:      -6.8      3.263      5.625
REMARK  5 active torsions:
REMARK  status: ('A' for Active; 'I' for Inactive)
REMARK    1  A    between atoms: C_4  and  C_5 
REMARK    2  A    between atoms: C_8  and  C_9 
REMARK    3  A    between atoms: C_9  and  N_10 
REMARK       I    between atoms: N_10  and  C_11 
REMARK    4  A    between atoms: C_11  and  C_12 
REMARK    5  A    between atoms: C_16  and  C_17 
ROOT
HETATM    1  N   UNL     1     -43.559  56.954 -53.431  1.00  0.00    -0.348 N 
HETATM    2  C   UNL     1     -43.268  58.261 -53.720  1.00  0.00     0.271 C 
HETATM    3  O   UNL     1     -43.067  58.640 -54.872  1.00  0.00    -0.266 OA
HETATM    4  H   UNL     1     -43.852  56.698 -52.497  1.00  0.00     0.163 HD
ENDROOT
BRANCH   1   5
HETATM    5  C   UNL     1     -43.576  55.920 -54.444  1.00  0.00     0.201 C 
BRANCH   5   6
HETATM    6  C   UNL     1     -42.287  55.177 -54.444  1.00  0.00     0.122 A 
HETATM    7  N   UNL     1     -42.162  53.953 -53.831  1.00  0.00    -0.341 N 
HETATM    8  C   UNL     1     -40.882  53.494 -54.022  1.00  0.00     0.061 A 
HETATM    9  H   UNL     1     -42.906  53.487 -53.325  1.00  0.00     0.167 HD
HETATM   10  C   UNL     1     -40.286  54.493 -54.770  1.00  0.00     0.149 A 
HETATM   11  N   UNL     1     -41.154  55.529 -55.015  1.00  0.00    -0.243 NA
BRANCH   8  12
HETATM   12  C   UNL     1     -40.390  52.215 -53.523  1.00  0.00    -0.008 A 
HETATM   13  C   UNL     1     -40.357  51.094 -54.361  1.00  0.00     0.014 A 
HETATM   14  C   UNL     1     -39.895  49.862 -53.887  1.00  0.00     0.001 A 
HETATM   15  C   UNL     1     -39.456  49.743 -52.571  1.00  0.00     0.000 A 
HETATM   16  C   UNL     1     -39.478  50.851 -51.728  1.00  0.00     0.001 A 
HETATM   17  C   UNL     1     -39.944  52.081 -52.201  1.00  0.00     0.014 A 
ENDBRANCH   8  12
ENDBRANCH   5   6
ENDBRANCH   1   5
BRANCH   2  18
HETATM   18  C   UNL     1     -43.237  59.168 -52.608  1.00  0.00     0.141 A 
HETATM   19  N   UNL     1     -42.214  60.071 -52.472  1.00  0.00    -0.271 N 
HETATM   20  H   UNL     1     -41.425  60.195 -53.101  1.00  0.00     0.189 HD
HETATM   21  N   UNL     1     -42.297  60.847 -51.381  1.00  0.00    -0.177 NA
HETATM   22  C   UNL     1     -43.413  60.422 -50.782  1.00  0.00     0.083 A 
HETATM   23  C   UNL     1     -44.044  59.383 -51.508  1.00  0.00     0.094 A 
HETATM   24 CL   UNL     1     -45.478  58.579 -51.075  1.00  0.00    -0.079 Cl
BRANCH  22  25
HETATM   25  C   UNL     1     -43.919  61.003 -49.464  1.00  0.00     0.041 A 
HETATM   26  C   UNL     1     -44.229  62.488 -49.402  1.00  0.00     0.011 A 
HETATM   27  C   UNL     1     -45.348  61.505 -49.390  1.00  0.00     0.011 A 
ENDBRANCH  22  25
ENDBRANCH   2  18
TORSDOF 5
ENDMDL
MODEL 10
REMARK VINA RESULT:      -6.8      1.986      7.446
REMARK  5 active torsions:
REMARK  status: ('A' for Active; 'I' for Inactive)
REMARK    1  A    between atoms: C_4  and  C_5 
REMARK    2  A    between atoms: C_8  and  C_9 
REMARK    3  A    between atoms: C_9  and  N_10 
REMARK       I    between atoms: N_10  and  C_11 
REMARK    4  A    between atoms: C_11  and  C_12 
REMARK    5  A    between atoms: C_16  and  C_17 
ROOT
HETATM    1  N   UNL     1     -41.529  56.271 -53.280  1.00  0.00    -0.348 N 
HETATM    2  C   UNL     1     -42.042  55.207 -52.586  1.00  0.00     0.271 C 
HETATM    3  O   UNL     1     -43.088  55.296 -51.946  1.00  0.00    -0.266 OA
HETATM    4  H   UNL     1     -40.745  56.133 -53.905  1.00  0.00     0.163 HD
ENDROOT
BRANCH   1   5
HETATM    5  C   UNL     1     -42.138  57.584 -53.250  1.00  0.00     0.201 C 
BRANCH   5   6
HETATM    6  C   UNL     1     -43.109  57.728 -54.367  1.00  0.00     0.122 A 
HETATM    7  N   UNL     1     -42.840  57.238 -55.622  1.00  0.00    -0.341 N 
HETATM    8  C   UNL     1     -43.923  57.482 -56.431  1.00  0.00     0.061 A 
HETATM    9  H   UNL     1     -41.976  56.779 -55.885  1.00  0.00     0.167 HD
HETATM   10  C   UNL     1     -44.819  58.118 -55.593  1.00  0.00     0.149 A 
HETATM   11  N   UNL     1     -44.306  58.275 -54.328  1.00  0.00    -0.243 NA
BRANCH   8  12
HETATM   12  C   UNL     1     -44.001  57.086 -57.833  1.00  0.00    -0.008 A 
HETATM   13  C   UNL     1     -43.169  56.076 -58.331  1.00  0.00     0.014 A 
HETATM   14  C   UNL     1     -43.232  55.699 -59.676  1.00  0.00     0.001 A 
HETATM   15  C   UNL     1     -44.133  56.324 -60.534  1.00  0.00     0.000 A 
HETATM   16  C   UNL     1     -44.970  57.327 -60.051  1.00  0.00     0.001 A 
HETATM   17  C   UNL     1     -44.904  57.707 -58.708  1.00  0.00     0.014 A 
ENDBRANCH   8  12
ENDBRANCH   5   6
ENDBRANCH   1   5
BRANCH   2  18
HETATM   18  C   UNL     1     -41.305  53.978 -52.667  1.00  0.00     0.141 A 
HETATM   19  N   UNL     1     -41.367  53.199 -53.793  1.00  0.00    -0.271 N 
HETATM   20  H   UNL     1     -41.897  53.395 -54.638  1.00  0.00     0.189 HD
HETATM   21  N   UNL     1     -40.646  52.070 -53.731  1.00  0.00    -0.177 NA
HETATM   22  C   UNL     1     -40.102  52.116 -52.510  1.00  0.00     0.083 A 
HETATM   23  C   UNL     1     -40.474  53.287 -51.807  1.00  0.00     0.094 A 
HETATM   24 CL   UNL     1     -39.995  53.709 -50.232  1.00  0.00    -0.079 Cl
BRANCH  22  25
HETATM   25  C   UNL     1     -39.199  51.014 -51.964  1.00  0.00     0.041 A 
HETATM   26  C   UNL     1     -39.744  50.108 -50.874  1.00  0.00     0.011 A 
HETATM   27  C   UNL     1     -39.560  49.568 -52.250  1.00  0.00     0.011 A 
ENDBRANCH  22  25
ENDBRANCH   2  18
TORSDOF 5
ENDMDL
