MODEL 1
REMARK VINA RESULT:      -8.0      0.000      0.000
REMARK  7 active torsions:
REMARK  status: ('A' for Active; 'I' for Inactive)
REMARK    1  A    between atoms: C_3  and  O_4 
REMARK    2  A    between atoms: C_5  and  C_6 
REMARK       I    between atoms: C_6  and  N_7 
REMARK    3  A    between atoms: N_7  and  C_8 
REMARK    4  A    between atoms: C_8  and  C_9 
REMARK    5  A    between atoms: C_9  and  C_10 
REMARK    6  A    between atoms: C_10  and  C_11 
REMARK    7  A    between atoms: C_15  and  C_16 
ROOT
HETATM    1  C   UNL     1     -41.653  57.928 -54.079  1.00  0.00     0.126 C 
ENDROOT
BRANCH   1   2
HETATM    2  N   UNL     1     -42.336  58.805 -53.124  1.00  0.00    -0.352 N 
HETATM    3  C   UNL     1     -42.541  58.489 -51.776  1.00  0.00     0.256 C 
HETATM    4  O   UNL     1     -42.670  59.350 -50.901  1.00  0.00    -0.267 OA
HETATM    5  C   UNL     1     -42.356  60.222 -53.464  1.00  0.00     0.152 C 
BRANCH   3   6
HETATM    6  C   UNL     1     -42.555  57.081 -51.310  1.00  0.00     0.065 A 
HETATM    7  C   UNL     1     -41.425  56.567 -50.651  1.00  0.00     0.087 A 
HETATM    8  C   UNL     1     -41.396  55.242 -50.200  1.00  0.00    -0.028 A 
HETATM    9  C   UNL     1     -40.185  54.693 -49.501  1.00  0.00     0.051 C 
HETATM   10  C   UNL     1     -42.529  54.440 -50.393  1.00  0.00     0.009 A 
HETATM   11  C   UNL     1     -43.676  54.960 -50.995  1.00  0.00     0.002 A 
HETATM   12  C   UNL     1     -43.698  56.285 -51.436  1.00  0.00     0.020 A 
BRANCH   7  13
HETATM   13  O   UNL     1     -40.320  57.346 -50.407  1.00  0.00    -0.359 OA
HETATM   14  H   UNL     1     -40.581  58.025 -49.745  1.00  0.00     0.218 HD
ENDBRANCH   7  13
ENDBRANCH   3   6
ENDBRANCH   1   2
BRANCH   1  15
HETATM   15  C   UNL     1     -42.496  57.621 -55.321  1.00  0.00     0.026 C 
BRANCH  15  16
HETATM   16  C   UNL     1     -43.076  56.209 -55.222  1.00  0.00     0.060 C 
BRANCH  16  17
HETATM   17  C   UNL     1     -42.079  55.120 -55.021  1.00  0.00     0.030 A 
HETATM   18  N   UNL     1     -40.914  54.973 -55.719  1.00  0.00    -0.282 N 
HETATM   19  H   UNL     1     -40.551  55.552 -56.469  1.00  0.00     0.189 HD
HETATM   20  N   UNL     1     -40.181  53.919 -55.336  1.00  0.00    -0.174 NA
HETATM   21  C   UNL     1     -40.874  53.357 -54.331  1.00  0.00     0.089 A 
HETATM   22  C   UNL     1     -42.079  54.080 -54.114  1.00  0.00     0.060 A 
BRANCH  21  23
HETATM   23  C   UNL     1     -40.380  52.174 -53.613  1.00  0.00    -0.006 A 
HETATM   24  C   UNL     1     -40.248  50.942 -54.273  1.00  0.00     0.014 A 
HETATM   25  C   UNL     1     -39.773  49.812 -53.602  1.00  0.00     0.001 A 
HETATM   26  C   UNL     1     -39.421  49.898 -52.257  1.00  0.00     0.000 A 
HETATM   27  C   UNL     1     -39.544  51.113 -51.585  1.00  0.00     0.001 A 
HETATM   28  C   UNL     1     -40.020  52.243 -52.257  1.00  0.00     0.014 A 
ENDBRANCH  21  23
ENDBRANCH  16  17
ENDBRANCH  15  16
ENDBRANCH   1  15
TORSDOF 7
ENDMDL
MODEL 2
REMARK VINA RESULT:      -8.0      1.448      2.155
REMARK  7 active torsions:
REMARK  status: ('A' for Active; 'I' for Inactive)
REMARK    1  A    between atoms: C_3  and  O_4 
REMARK    2  A    between atoms: C_5  and  C_6 
REMARK       I    between atoms: C_6  and  N_7 
REMARK    3  A    between atoms: N_7  and  C_8 
REMARK    4  A    between atoms: C_8  and  C_9 
REMARK    5  A    between atoms: C_9  and  C_10 
REMARK    6  A    between atoms: C_10  and  C_11 
REMARK    7  A    between atoms: C_15  and  C_16 
ROOT
HETATM    1  C   UNL     1     -43.528  58.162 -56.111  1.00  0.00     0.126 C 
ENDROOT
BRANCH   1   2
HETATM    2  N   UNL     1     -42.711  59.228 -55.524  1.00  0.00    -0.352 N 
HETATM    3  C   UNL     1     -42.147  59.170 -54.244  1.00  0.00     0.256 C 
HETATM    4  O   UNL     1     -41.128  59.794 -53.936  1.00  0.00    -0.267 OA
HETATM    5  C   UNL     1     -42.071  60.133 -56.470  1.00  0.00     0.152 C 
BRANCH   3   6
HETATM    6  C   UNL     1     -42.718  58.295 -53.192  1.00  0.00     0.065 A 
HETATM    7  C   UNL     1     -41.983  57.178 -52.757  1.00  0.00     0.087 A 
HETATM    8  C   UNL     1     -42.489  56.325 -51.769  1.00  0.00    -0.028 A 
HETATM    9  C   UNL     1     -41.705  55.129 -51.310  1.00  0.00     0.051 C 
HETATM   10  C   UNL     1     -43.733  56.619 -51.197  1.00  0.00     0.009 A 
HETATM   11  C   UNL     1     -44.442  57.760 -51.581  1.00  0.00     0.002 A 
HETATM   12  C   UNL     1     -43.928  58.608 -52.563  1.00  0.00     0.020 A 
BRANCH   7  13
HETATM   13  O   UNL     1     -40.740  56.894 -53.268  1.00  0.00    -0.359 OA
HETATM   14  H   UNL     1     -40.836  56.111 -53.854  1.00  0.00     0.218 HD
ENDBRANCH   7  13
ENDBRANCH   3   6
ENDBRANCH   1   2
BRANCH   1  15
HETATM   15  C   UNL     1     -42.693  56.997 -56.652  1.00  0.00     0.026 C 
BRANCH  15  16
HETATM   16  C   UNL     1     -43.147  55.686 -56.007  1.00  0.00     0.060 C 
BRANCH  16  17
HETATM   17  C   UNL     1     -42.056  54.829 -55.462  1.00  0.00     0.030 A 
HETATM   18  N   UNL     1     -40.721  55.110 -55.526  1.00  0.00    -0.282 N 
HETATM   19  H   UNL     1     -40.265  55.913 -55.947  1.00  0.00     0.189 HD
HETATM   20  N   UNL     1     -39.943  54.186 -54.946  1.00  0.00    -0.174 NA
HETATM   21  C   UNL     1     -40.795  53.267 -54.460  1.00  0.00     0.089 A 
HETATM   22  C   UNL     1     -42.131  53.634 -54.777  1.00  0.00     0.060 A 
BRANCH  21  23
HETATM   23  C   UNL     1     -40.325  52.090 -53.716  1.00  0.00    -0.006 A 
HETATM   24  C   UNL     1     -39.977  52.195 -52.360  1.00  0.00     0.014 A 
HETATM   25  C   UNL     1     -39.537  51.081 -51.641  1.00  0.00     0.001 A 
HETATM   26  C   UNL     1     -39.439  49.841 -52.269  1.00  0.00     0.000 A 
HETATM   27  C   UNL     1     -39.782  49.717 -53.614  1.00  0.00     0.001 A 
HETATM   28  C   UNL     1     -40.222  50.833 -54.332  1.00  0.00     0.014 A 
ENDBRANCH  21  23
ENDBRANCH  16  17
ENDBRANCH  15  16
ENDBRANCH   1  15
TORSDOF 7
ENDMDL
MODEL 3
REMARK VINA RESULT:      -7.6      2.698      4.790
REMARK  7 active torsions:
REMARK  status: ('A' for Active; 'I' for Inactive)
REMARK    1  A    between atoms: C_3  and  O_4 
REMARK    2  A    between atoms: C_5  and  C_6 
REMARK       I    between atoms: C_6  and  N_7 
REMARK    3  A    between atoms: N_7  and  C_8 
REMARK    4  A    between atoms: C_8  and  C_9 
REMARK    5  A    between atoms: C_9  and  C_10 
REMARK    6  A    between atoms: C_10  and  C_11 
REMARK    7  A    between atoms: C_15  and  C_16 
ROOT
HETATM    1  C   UNL     1     -43.693  61.294 -50.615  1.00  0.00     0.126 C 
ENDROOT
BRANCH   1   2
HETATM    2  N   UNL     1     -44.958  60.691 -50.186  1.00  0.00    -0.352 N 
HETATM    3  C   UNL     1     -45.573  59.612 -50.833  1.00  0.00     0.256 C 
HETATM    4  O   UNL     1     -46.330  58.830 -50.251  1.00  0.00    -0.267 OA
HETATM    5  C   UNL     1     -45.316  60.894 -48.788  1.00  0.00     0.152 C 
BRANCH   3   6
HETATM    6  C   UNL     1     -45.297  59.313 -52.259  1.00  0.00     0.065 A 
HETATM    7  C   UNL     1     -44.916  58.010 -52.623  1.00  0.00     0.087 A 
HETATM    8  C   UNL     1     -44.641  57.688 -53.957  1.00  0.00    -0.028 A 
HETATM    9  C   UNL     1     -44.229  56.296 -54.344  1.00  0.00     0.051 C 
HETATM   10  C   UNL     1     -44.782  58.683 -54.934  1.00  0.00     0.009 A 
HETATM   11  C   UNL     1     -45.217  59.964 -54.588  1.00  0.00     0.002 A 
HETATM   12  C   UNL     1     -45.493  60.275 -53.255  1.00  0.00     0.020 A 
BRANCH   7  13
HETATM   13  O   UNL     1     -44.818  57.004 -51.692  1.00  0.00    -0.359 OA
HETATM   14  H   UNL     1     -43.875  56.949 -51.419  1.00  0.00     0.218 HD
ENDBRANCH   7  13
ENDBRANCH   3   6
ENDBRANCH   1   2
BRANCH   1  15
HETATM   15  C   UNL     1     -42.467  60.470 -50.208  1.00  0.00     0.026 C 
BRANCH  15  16
HETATM   16  C   UNL     1     -41.731  59.978 -51.454  1.00  0.00     0.060 C 
BRANCH  16  17
HETATM   17  C   UNL     1     -41.620  58.497 -51.590  1.00  0.00     0.030 A 
HETATM   18  N   UNL     1     -42.059  57.583 -50.675  1.00  0.00    -0.282 N 
HETATM   19  H   UNL     1     -42.507  57.751 -49.780  1.00  0.00     0.189 HD
HETATM   20  N   UNL     1     -41.856  56.309 -51.040  1.00  0.00    -0.174 NA
HETATM   21  C   UNL     1     -41.281  56.380 -52.252  1.00  0.00     0.089 A 
HETATM   22  C   UNL     1     -41.107  57.742 -52.624  1.00  0.00     0.060 A 
BRANCH  21  23
HETATM   23  C   UNL     1     -40.925  55.176 -53.015  1.00  0.00    -0.006 A 
HETATM   24  C   UNL     1     -40.949  53.912 -52.404  1.00  0.00     0.014 A 
HETATM   25  C   UNL     1     -40.618  52.759 -53.121  1.00  0.00     0.001 A 
HETATM   26  C   UNL     1     -40.259  52.853 -54.464  1.00  0.00     0.000 A 
HETATM   27  C   UNL     1     -40.231  54.098 -55.088  1.00  0.00     0.001 A 
HETATM   28  C   UNL     1     -40.561  55.252 -54.369  1.00  0.00     0.014 A 
ENDBRANCH  21  23
ENDBRANCH  16  17
ENDBRANCH  15  16
ENDBRANCH   1  15
TORSDOF 7
ENDMDL
MODEL 4
REMARK VINA RESULT:      -7.6      1.698      2.450
REMARK  7 active torsions:
REMARK  status: ('A' for Active; 'I' for Inactive)
REMARK    1  A    between atoms: C_3  and  O_4 
REMARK    2  A    between atoms: C_5  and  C_6 
REMARK       I    between atoms: C_6  and  N_7 
REMARK    3  A    between atoms: N_7  and  C_8 
REMARK    4  A    between atoms: C_8  and  C_9 
REMARK    5  A    between atoms: C_9  and  C_10 
REMARK    6  A    between atoms: C_10  and  C_11 
REMARK    7  A    between atoms: C_15  and  C_16 
ROOT
HETATM    1  C   UNL     1     -41.887  59.387 -54.003  1.00  0.00     0.126 C 
ENDROOT
BRANCH   1   2
HETATM    2  N   UNL     1     -43.095  59.798 -53.281  1.00  0.00    -0.352 N 
HETATM    3  C   UNL     1     -43.384  59.427 -51.962  1.00  0.00     0.256 C 
HETATM    4  O   UNL     1     -44.099  60.107 -51.221  1.00  0.00    -0.267 OA
HETATM    5  C   UNL     1     -43.747  61.006 -53.770  1.00  0.00     0.152 C 
BRANCH   3   6
HETATM    6  C   UNL     1     -42.789  58.211 -51.357  1.00  0.00     0.065 A 
HETATM    7  C   UNL     1     -43.578  57.054 -51.230  1.00  0.00     0.087 A 
HETATM    8  C   UNL     1     -43.055  55.887 -50.660  1.00  0.00    -0.028 A 
HETATM    9  C   UNL     1     -43.901  54.654 -50.521  1.00  0.00     0.051 C 
HETATM   10  C   UNL     1     -41.717  55.881 -50.243  1.00  0.00     0.009 A 
HETATM   11  C   UNL     1     -40.911  57.008 -50.420  1.00  0.00     0.002 A 
HETATM   12  C   UNL     1     -41.440  58.166 -50.994  1.00  0.00     0.020 A 
BRANCH   7  13
HETATM   13  O   UNL     1     -44.877  57.018 -51.676  1.00  0.00    -0.359 OA
HETATM   14  H   UNL     1     -45.167  56.079 -51.657  1.00  0.00     0.218 HD
ENDBRANCH   7  13
ENDBRANCH   3   6
ENDBRANCH   1   2
BRANCH   1  15
HETATM   15  C   UNL     1     -42.193  58.652 -55.312  1.00  0.00     0.026 C 
BRANCH  15  16
HETATM   16  C   UNL     1     -43.419  57.757 -55.135  1.00  0.00     0.060 C 
BRANCH  16  17
HETATM   17  C   UNL     1     -43.140  56.379 -54.640  1.00  0.00     0.030 A 
HETATM   18  N   UNL     1     -44.082  55.421 -54.391  1.00  0.00    -0.282 N 
HETATM   19  H   UNL     1     -45.090  55.487 -54.487  1.00  0.00     0.189 HD
HETATM   20  N   UNL     1     -43.573  54.256 -53.967  1.00  0.00    -0.174 NA
HETATM   21  C   UNL     1     -42.242  54.440 -53.956  1.00  0.00     0.089 A 
HETATM   22  C   UNL     1     -41.936  55.767 -54.362  1.00  0.00     0.060 A 
BRANCH  21  23
HETATM   23  C   UNL     1     -41.313  53.367 -53.572  1.00  0.00    -0.006 A 
HETATM   24  C   UNL     1     -40.724  53.356 -52.298  1.00  0.00     0.014 A 
HETATM   25  C   UNL     1     -39.844  52.338 -51.920  1.00  0.00     0.001 A 
HETATM   26  C   UNL     1     -39.541  51.312 -52.813  1.00  0.00     0.000 A 
HETATM   27  C   UNL     1     -40.118  51.306 -54.082  1.00  0.00     0.001 A 
HETATM   28  C   UNL     1     -40.997  52.326 -54.459  1.00  0.00     0.014 A 
ENDBRANCH  21  23
ENDBRANCH  16  17
ENDBRANCH  15  16
ENDBRANCH   1  15
TORSDOF 7
ENDMDL
MODEL 5
REMARK VINA RESULT:      -7.6      2.348      4.134
REMARK  7 active torsions:
REMARK  status: ('A' for Active; 'I' for Inactive)
REMARK    1  A    between atoms: C_3  and  O_4 
REMARK    2  A    between atoms: C_5  and  C_6 
REMARK       I    between atoms: C_6  and  N_7 
REMARK    3  A    between atoms: N_7  and  C_8 
REMARK    4  A    between atoms: C_8  and  C_9 
REMARK    5  A    between atoms: C_9  and  C_10 
REMARK    6  A    between atoms: C_10  and  C_11 
REMARK    7  A    between atoms: C_15  and  C_16 
ROOT
HETATM    1  C   UNL     1     -42.802  57.267 -51.148  1.00  0.00     0.126 C 
ENDROOT
BRANCH   1   2
HETATM    2  N   UNL     1     -42.969  58.300 -52.175  1.00  0.00    -0.352 N 
HETATM    3  C   UNL     1     -43.026  58.038 -53.549  1.00  0.00     0.256 C 
HETATM    4  O   UNL     1     -43.612  58.778 -54.345  1.00  0.00    -0.267 OA
HETATM    5  C   UNL     1     -43.581  59.545 -51.730  1.00  0.00     0.152 C 
BRANCH   3   6
HETATM    6  C   UNL     1     -42.429  56.808 -54.123  1.00  0.00     0.065 A 
HETATM    7  C   UNL     1     -43.276  55.786 -54.583  1.00  0.00     0.087 A 
HETATM    8  C   UNL     1     -42.751  54.607 -55.127  1.00  0.00    -0.028 A 
HETATM    9  C   UNL     1     -43.659  53.514 -55.614  1.00  0.00     0.051 C 
HETATM   10  C   UNL     1     -41.360  54.474 -55.232  1.00  0.00     0.009 A 
HETATM   11  C   UNL     1     -40.513  55.510 -54.831  1.00  0.00     0.002 A 
HETATM   12  C   UNL     1     -41.046  56.684 -54.294  1.00  0.00     0.020 A 
BRANCH   7  13
HETATM   13  O   UNL     1     -44.643  55.911 -54.536  1.00  0.00    -0.359 OA
HETATM   14  H   UNL     1     -44.870  56.327 -53.674  1.00  0.00     0.218 HD
ENDBRANCH   7  13
ENDBRANCH   3   6
ENDBRANCH   1   2
BRANCH   1  15
HETATM   15  C   UNL     1     -41.336  57.022 -50.777  1.00  0.00     0.026 C 
BRANCH  15  16
HETATM   16  C   UNL     1     -41.250  56.030 -49.617  1.00  0.00     0.060 C 
BRANCH  16  17
HETATM   17  C   UNL     1     -40.872  54.638 -49.991  1.00  0.00     0.030 A 
HETATM   18  N   UNL     1     -40.699  53.602 -49.117  1.00  0.00    -0.282 N 
HETATM   19  H   UNL     1     -40.786  53.608 -48.106  1.00  0.00     0.189 HD
HETATM   20  N   UNL     1     -40.375  52.443 -49.706  1.00  0.00    -0.174 NA
HETATM   21  C   UNL     1     -40.354  52.713 -51.023  1.00  0.00     0.089 A 
HETATM   22  C   UNL     1     -40.650  54.087 -51.236  1.00  0.00     0.060 A 
BRANCH  21  23
HETATM   23  C   UNL     1     -40.064  51.678 -52.024  1.00  0.00    -0.006 A 
HETATM   24  C   UNL     1     -40.171  51.961 -53.395  1.00  0.00     0.014 A 
HETATM   25  C   UNL     1     -39.891  50.986 -54.356  1.00  0.00     0.001 A 
HETATM   26  C   UNL     1     -39.498  49.710 -53.959  1.00  0.00     0.000 A 
HETATM   27  C   UNL     1     -39.384  49.410 -52.603  1.00  0.00     0.001 A 
HETATM   28  C   UNL     1     -39.665  50.387 -51.642  1.00  0.00     0.014 A 
ENDBRANCH  21  23
ENDBRANCH  16  17
ENDBRANCH  15  16
ENDBRANCH   1  15
TORSDOF 7
ENDMDL
MODEL 6
REMARK VINA RESULT:      -7.4      4.010      6.224
REMARK  7 active torsions:
REMARK  status: ('A' for Active; 'I' for Inactive)
REMARK    1  A    between atoms: C_3  and  O_4 
REMARK    2  A    between atoms: C_5  and  C_6 
REMARK       I    between atoms: C_6  and  N_7 
REMARK    3  A    between atoms: N_7  and  C_8 
REMARK    4  A    between atoms: C_8  and  C_9 
REMARK    5  A    between atoms: C_9  and  C_10 
REMARK    6  A    between atoms: C_10  and  C_11 
REMARK    7  A    between atoms: C_15  and  C_16 
ROOT
HETATM    1  C   UNL     1     -43.432  58.315 -56.527  1.00  0.00     0.126 C 
ENDROOT
BRANCH   1   2
HETATM    2  N   UNL     1     -42.712  58.848 -57.688  1.00  0.00    -0.352 N 
HETATM    3  C   UNL     1     -43.035  58.549 -59.016  1.00  0.00     0.256 C 
HETATM    4  O   UNL     1     -42.776  59.309 -59.953  1.00  0.00    -0.267 OA
HETATM    5  C   UNL     1     -41.977  60.086 -57.466  1.00  0.00     0.152 C 
BRANCH   3   6
HETATM    6  C   UNL     1     -43.772  57.311 -59.368  1.00  0.00     0.065 A 
HETATM    7  C   UNL     1     -45.087  57.412 -59.854  1.00  0.00     0.087 A 
HETATM    8  C   UNL     1     -45.818  56.266 -60.192  1.00  0.00    -0.028 A 
HETATM    9  C   UNL     1     -47.225  56.376 -60.706  1.00  0.00     0.051 C 
HETATM   10  C   UNL     1     -45.204  55.013 -60.066  1.00  0.00     0.009 A 
HETATM   11  C   UNL     1     -43.878  54.909 -59.640  1.00  0.00     0.002 A 
HETATM   12  C   UNL     1     -43.155  56.057 -59.310  1.00  0.00     0.020 A 
BRANCH   7  13
HETATM   13  O   UNL     1     -45.695  58.630 -60.033  1.00  0.00    -0.359 OA
HETATM   14  H   UNL     1     -46.071  58.639 -60.941  1.00  0.00     0.218 HD
ENDBRANCH   7  13
ENDBRANCH   3   6
ENDBRANCH   1   2
BRANCH   1  15
HETATM   15  C   UNL     1     -42.528  57.540 -55.564  1.00  0.00     0.026 C 
BRANCH  15  16
HETATM   16  C   UNL     1     -43.021  56.099 -55.431  1.00  0.00     0.060 C 
BRANCH  16  17
HETATM   17  C   UNL     1     -41.973  55.092 -55.098  1.00  0.00     0.030 A 
HETATM   18  N   UNL     1     -40.651  55.185 -55.430  1.00  0.00    -0.282 N 
HETATM   19  H   UNL     1     -40.181  55.921 -55.946  1.00  0.00     0.189 HD
HETATM   20  N   UNL     1     -39.910  54.155 -55.000  1.00  0.00    -0.174 NA
HETATM   21  C   UNL     1     -40.768  53.358 -54.340  1.00  0.00     0.089 A 
HETATM   22  C   UNL     1     -42.076  53.911 -54.393  1.00  0.00     0.060 A 
BRANCH  21  23
HETATM   23  C   UNL     1     -40.328  52.118 -53.685  1.00  0.00    -0.006 A 
HETATM   24  C   UNL     1     -40.273  50.913 -54.402  1.00  0.00     0.014 A 
HETATM   25  C   UNL     1     -39.850  49.729 -53.791  1.00  0.00     0.001 A 
HETATM   26  C   UNL     1     -39.475  49.734 -52.449  1.00  0.00     0.000 A 
HETATM   27  C   UNL     1     -39.522  50.921 -51.721  1.00  0.00     0.001 A 
HETATM   28  C   UNL     1     -39.946  52.105 -52.334  1.00  0.00     0.014 A 
ENDBRANCH  21  23
ENDBRANCH  16  17
ENDBRANCH  15  16
ENDBRANCH   1  15
TORSDOF 7
ENDMDL
MODEL 7
REMARK VINA RESULT:      -7.1      1.905      2.614
REMARK  7 active torsions:
REMARK  status: ('A' for Active; 'I' for Inactive)
REMARK    1  A    between atoms: C_3  and  O_4 
REMARK    2  A    between atoms: C_5  and  C_6 
REMARK       I    between atoms: C_6  and  N_7 
REMARK    3  A    between atoms: N_7  and  C_8 
REMARK    4  A    between atoms: C_8  and  C_9 
REMARK    5  A    between atoms: C_9  and  C_10 
REMARK    6  A    between atoms: C_10  and  C_11 
REMARK    7  A    between atoms: C_15  and  C_16 
ROOT
HETATM    1  C   UNL     1     -42.333  58.595 -56.493  1.00  0.00     0.126 C 
ENDROOT
BRANCH   1   2
HETATM    2  N   UNL     1     -42.701  59.896 -55.926  1.00  0.00    -0.352 N 
HETATM    3  C   UNL     1     -42.756  60.166 -54.553  1.00  0.00     0.256 C 
HETATM    4  O   UNL     1     -42.599  61.299 -54.090  1.00  0.00    -0.267 OA
HETATM    5  C   UNL     1     -42.518  61.046 -56.802  1.00  0.00     0.152 C 
BRANCH   3   6
HETATM    6  C   UNL     1     -42.950  59.079 -53.563  1.00  0.00     0.065 A 
HETATM    7  C   UNL     1     -41.873  58.698 -52.745  1.00  0.00     0.087 A 
HETATM    8  C   UNL     1     -42.014  57.673 -51.802  1.00  0.00    -0.028 A 
HETATM    9  C   UNL     1     -40.860  57.264 -50.932  1.00  0.00     0.051 C 
HETATM   10  C   UNL     1     -43.261  57.049 -51.665  1.00  0.00     0.009 A 
HETATM   11  C   UNL     1     -44.352  57.462 -52.434  1.00  0.00     0.002 A 
HETATM   12  C   UNL     1     -44.203  58.489 -53.368  1.00  0.00     0.020 A 
BRANCH   7  13
HETATM   13  O   UNL     1     -40.654  59.326 -52.825  1.00  0.00    -0.359 OA
HETATM   14  H   UNL     1     -40.202  58.986 -53.630  1.00  0.00     0.218 HD
ENDBRANCH   7  13
ENDBRANCH   3   6
ENDBRANCH   1   2
BRANCH   1  15
HETATM   15  C   UNL     1     -43.538  57.806 -57.014  1.00  0.00     0.026 C 
BRANCH  15  16
HETATM   16  C   UNL     1     -43.137  56.354 -57.278  1.00  0.00     0.060 C 
BRANCH  16  17
HETATM   17  C   UNL     1     -42.891  55.526 -56.063  1.00  0.00     0.030 A 
HETATM   18  N   UNL     1     -43.826  55.211 -55.117  1.00  0.00    -0.282 N 
HETATM   19  H   UNL     1     -44.802  55.485 -55.079  1.00  0.00     0.189 HD
HETATM   20  N   UNL     1     -43.357  54.437 -54.128  1.00  0.00    -0.174 NA
HETATM   21  C   UNL     1     -42.070  54.212 -54.441  1.00  0.00     0.089 A 
HETATM   22  C   UNL     1     -41.741  54.891 -55.645  1.00  0.00     0.060 A 
BRANCH  21  23
HETATM   23  C   UNL     1     -41.204  53.368 -53.605  1.00  0.00    -0.006 A 
HETATM   24  C   UNL     1     -40.570  52.239 -54.148  1.00  0.00     0.014 A 
HETATM   25  C   UNL     1     -39.739  51.433 -53.364  1.00  0.00     0.001 A 
HETATM   26  C   UNL     1     -39.529  51.746 -52.023  1.00  0.00     0.000 A 
HETATM   27  C   UNL     1     -40.148  52.864 -51.468  1.00  0.00     0.001 A 
HETATM   28  C   UNL     1     -40.980  53.669 -52.252  1.00  0.00     0.014 A 
ENDBRANCH  21  23
ENDBRANCH  16  17
ENDBRANCH  15  16
ENDBRANCH   1  15
TORSDOF 7
ENDMDL
MODEL 8
REMARK VINA RESULT:      -7.1      3.137      5.358
REMARK  7 active torsions:
REMARK  status: ('A' for Active; 'I' for Inactive)
REMARK    1  A    between atoms: C_3  and  O_4 
REMARK    2  A    between atoms: C_5  and  C_6 
REMARK       I    between atoms: C_6  and  N_7 
REMARK    3  A    between atoms: N_7  and  C_8 
REMARK    4  A    between atoms: C_8  and  C_9 
REMARK    5  A    between atoms: C_9  and  C_10 
REMARK    6  A    between atoms: C_10  and  C_11 
REMARK    7  A    between atoms: C_15  and  C_16 
ROOT
HETATM    1  C   UNL     1     -44.184  59.252 -55.038  1.00  0.00     0.126 C 
ENDROOT
BRANCH   1   2
HETATM    2  N   UNL     1     -42.783  59.512 -55.381  1.00  0.00    -0.352 N 
HETATM    3  C   UNL     1     -42.305  59.627 -56.692  1.00  0.00     0.256 C 
HETATM    4  O   UNL     1     -41.299  60.281 -56.980  1.00  0.00    -0.267 OA
HETATM    5  C   UNL     1     -41.983  60.151 -54.344  1.00  0.00     0.152 C 
BRANCH   3   6
HETATM    6  C   UNL     1     -43.027  59.009 -57.830  1.00  0.00     0.065 A 
HETATM    7  C   UNL     1     -42.849  57.639 -58.091  1.00  0.00     0.087 A 
HETATM    8  C   UNL     1     -43.509  57.019 -59.159  1.00  0.00    -0.028 A 
HETATM    9  C   UNL     1     -43.313  55.557 -59.439  1.00  0.00     0.051 C 
HETATM   10  C   UNL     1     -44.377  57.783 -59.951  1.00  0.00     0.009 A 
HETATM   11  C   UNL     1     -44.604  59.131 -59.662  1.00  0.00     0.002 A 
HETATM   12  C   UNL     1     -43.945  59.740 -58.591  1.00  0.00     0.020 A 
BRANCH   7  13
HETATM   13  O   UNL     1     -42.042  56.857 -57.301  1.00  0.00    -0.359 OA
HETATM   14  H   UNL     1     -41.859  57.363 -56.478  1.00  0.00     0.218 HD
ENDBRANCH   7  13
ENDBRANCH   3   6
ENDBRANCH   1   2
BRANCH   1  15
HETATM   15  C   UNL     1     -44.344  58.272 -53.871  1.00  0.00     0.026 C 
BRANCH  15  16
HETATM   16  C   UNL     1     -44.894  56.940 -54.380  1.00  0.00     0.060 C 
BRANCH  16  17
HETATM   17  C   UNL     1     -43.906  55.825 -54.455  1.00  0.00     0.030 A 
HETATM   18  N   UNL     1     -43.550  55.158 -55.592  1.00  0.00    -0.282 N 
HETATM   19  H   UNL     1     -43.892  55.296 -56.538  1.00  0.00     0.189 HD
HETATM   20  N   UNL     1     -42.627  54.206 -55.397  1.00  0.00    -0.174 NA
HETATM   21  C   UNL     1     -42.343  54.258 -54.085  1.00  0.00     0.089 A 
HETATM   22  C   UNL     1     -43.138  55.258 -53.460  1.00  0.00     0.060 A 
BRANCH  21  23
HETATM   23  C   UNL     1     -41.339  53.378 -53.472  1.00  0.00    -0.006 A 
HETATM   24  C   UNL     1     -40.681  52.404 -54.239  1.00  0.00     0.014 A 
HETATM   25  C   UNL     1     -39.719  51.566 -53.668  1.00  0.00     0.001 A 
HETATM   26  C   UNL     1     -39.400  51.691 -52.318  1.00  0.00     0.000 A 
HETATM   27  C   UNL     1     -40.041  52.654 -51.541  1.00  0.00     0.001 A 
HETATM   28  C   UNL     1     -41.003  53.491 -52.113  1.00  0.00     0.014 A 
ENDBRANCH  21  23
ENDBRANCH  16  17
ENDBRANCH  15  16
ENDBRANCH   1  15
TORSDOF 7
ENDMDL
MODEL 9
REMARK VINA RESULT:      -6.9      1.839      3.969
REMARK  7 active torsions:
REMARK  status: ('A' for Active; 'I' for Inactive)
REMARK    1  A    between atoms: C_3  and  O_4 
REMARK    2  A    between atoms: C_5  and  C_6 
REMARK       I    between atoms: C_6  and  N_7 
REMARK    3  A    between atoms: N_7  and  C_8 
REMARK    4  A    between atoms: C_8  and  C_9 
REMARK    5  A    between atoms: C_9  and  C_10 
REMARK    6  A    between atoms: C_10  and  C_11 
REMARK    7  A    between atoms: C_15  and  C_16 
ROOT
HETATM    1  C   UNL     1     -43.007  57.333 -51.887  1.00  0.00     0.126 C 
ENDROOT
BRANCH   1   2
HETATM    2  N   UNL     1     -41.906  58.027 -51.212  1.00  0.00    -0.352 N 
HETATM    3  C   UNL     1     -41.931  59.382 -50.860  1.00  0.00     0.256 C 
HETATM    4  O   UNL     1     -41.267  59.840 -49.925  1.00  0.00    -0.267 OA
HETATM    5  C   UNL     1     -40.989  57.181 -50.459  1.00  0.00     0.152 C 
BRANCH   3   6
HETATM    6  C   UNL     1     -42.815  60.342 -51.562  1.00  0.00     0.065 A 
HETATM    7  C   UNL     1     -43.964  60.819 -50.908  1.00  0.00     0.087 A 
HETATM    8  C   UNL     1     -44.827  61.724 -51.539  1.00  0.00    -0.028 A 
HETATM    9  C   UNL     1     -46.057  62.228 -50.841  1.00  0.00     0.051 C 
HETATM   10  C   UNL     1     -44.510  62.170 -52.829  1.00  0.00     0.009 A 
HETATM   11  C   UNL     1     -43.340  61.746 -53.462  1.00  0.00     0.002 A 
HETATM   12  C   UNL     1     -42.482  60.848 -52.823  1.00  0.00     0.020 A 
BRANCH   7  13
HETATM   13  O   UNL     1     -44.272  60.435 -49.626  1.00  0.00    -0.359 OA
HETATM   14  H   UNL     1     -44.592  59.506 -49.668  1.00  0.00     0.218 HD
ENDBRANCH   7  13
ENDBRANCH   3   6
ENDBRANCH   1   2
BRANCH   1  15
HETATM   15  C   UNL     1     -42.837  57.276 -53.408  1.00  0.00     0.026 C 
BRANCH  15  16
HETATM   16  C   UNL     1     -41.364  57.068 -53.761  1.00  0.00     0.060 C 
BRANCH  16  17
HETATM   17  C   UNL     1     -40.960  55.656 -54.020  1.00  0.00     0.030 A 
HETATM   18  N   UNL     1     -40.564  55.155 -55.228  1.00  0.00    -0.282 N 
HETATM   19  H   UNL     1     -40.489  55.638 -56.117  1.00  0.00     0.189 HD
HETATM   20  N   UNL     1     -40.236  53.856 -55.196  1.00  0.00    -0.174 NA
HETATM   21  C   UNL     1     -40.400  53.486 -53.914  1.00  0.00     0.089 A 
HETATM   22  C   UNL     1     -40.866  54.591 -53.150  1.00  0.00     0.060 A 
BRANCH  21  23
HETATM   23  C   UNL     1     -40.109  52.120 -53.457  1.00  0.00    -0.006 A 
HETATM   24  C   UNL     1     -40.136  51.045 -54.359  1.00  0.00     0.014 A 
HETATM   25  C   UNL     1     -39.855  49.743 -53.936  1.00  0.00     0.001 A 
HETATM   26  C   UNL     1     -39.540  49.496 -52.602  1.00  0.00     0.000 A 
HETATM   27  C   UNL     1     -39.506  50.551 -51.692  1.00  0.00     0.001 A 
HETATM   28  C   UNL     1     -39.789  51.854 -52.116  1.00  0.00     0.014 A 
ENDBRANCH  21  23
ENDBRANCH  16  17
ENDBRANCH  15  16
ENDBRANCH   1  15
TORSDOF 7
ENDMDL
MODEL 10
REMARK VINA RESULT:      -6.9     14.919     17.192
REMARK  7 active torsions:
REMARK  status: ('A' for Active; 'I' for Inactive)
REMARK    1  A    between atoms: C_3  and  O_4 
REMARK    2  A    between atoms: C_5  and  C_6 
REMARK       I    between atoms: C_6  and  N_7 
REMARK    3  A    between atoms: N_7  and  C_8 
REMARK    4  A    between atoms: C_8  and  C_9 
REMARK    5  A    between atoms: C_9  and  C_10 
REMARK    6  A    between atoms: C_10  and  C_11 
REMARK    7  A    between atoms: C_15  and  C_16 
ROOT
HETATM    1  C   UNL     1     -34.990  39.872 -50.757  1.00  0.00     0.126 C 
ENDROOT
BRANCH   1   2
HETATM    2  N   UNL     1     -33.647  39.286 -50.700  1.00  0.00    -0.352 N 
HETATM    3  C   UNL     1     -32.846  39.050 -51.823  1.00  0.00     0.256 C 
HETATM    4  O   UNL     1     -31.614  39.013 -51.767  1.00  0.00    -0.267 OA
HETATM    5  C   UNL     1     -32.950  39.417 -49.426  1.00  0.00     0.152 C 
BRANCH   3   6
HETATM    6  C   UNL     1     -33.442  38.887 -53.171  1.00  0.00     0.065 A 
HETATM    7  C   UNL     1     -33.027  39.739 -54.209  1.00  0.00     0.087 A 
HETATM    8  C   UNL     1     -33.569  39.622 -55.495  1.00  0.00    -0.028 A 
HETATM    9  C   UNL     1     -33.129  40.537 -56.602  1.00  0.00     0.051 C 
HETATM   10  C   UNL     1     -34.514  38.617 -55.739  1.00  0.00     0.009 A 
HETATM   11  C   UNL     1     -34.887  37.729 -54.728  1.00  0.00     0.002 A 
HETATM   12  C   UNL     1     -34.338  37.851 -53.450  1.00  0.00     0.020 A 
BRANCH   7  13
HETATM   13  O   UNL     1     -32.067  40.701 -54.009  1.00  0.00    -0.359 OA
HETATM   14  H   UNL     1     -32.146  41.351 -54.743  1.00  0.00     0.218 HD
ENDBRANCH   7  13
ENDBRANCH   3   6
ENDBRANCH   1   2
BRANCH   1  15
HETATM   15  C   UNL     1     -34.998  41.298 -51.316  1.00  0.00     0.026 C 
BRANCH  15  16
HETATM   16  C   UNL     1     -36.345  41.592 -51.977  1.00  0.00     0.060 C 
BRANCH  16  17
HETATM   17  C   UNL     1     -36.307  41.769 -53.457  1.00  0.00     0.030 A 
HETATM   18  N   UNL     1     -35.465  42.605 -54.134  1.00  0.00    -0.282 N 
HETATM   19  H   UNL     1     -34.759  43.229 -53.757  1.00  0.00     0.189 HD
HETATM   20  N   UNL     1     -35.619  42.570 -55.464  1.00  0.00    -0.174 NA
HETATM   21  C   UNL     1     -36.584  41.659 -55.681  1.00  0.00     0.089 A 
HETATM   22  C   UNL     1     -37.047  41.145 -54.439  1.00  0.00     0.060 A 
BRANCH  21  23
HETATM   23  C   UNL     1     -37.027  41.305 -57.036  1.00  0.00    -0.006 A 
HETATM   24  C   UNL     1     -36.714  42.131 -58.128  1.00  0.00     0.014 A 
HETATM   25  C   UNL     1     -37.125  41.800 -59.422  1.00  0.00     0.001 A 
HETATM   26  C   UNL     1     -37.856  40.635 -59.644  1.00  0.00     0.000 A 
HETATM   27  C   UNL     1     -38.174  39.802 -58.574  1.00  0.00     0.001 A 
HETATM   28  C   UNL     1     -37.763  40.135 -57.279  1.00  0.00     0.014 A 
ENDBRANCH  21  23
ENDBRANCH  16  17
ENDBRANCH  15  16
ENDBRANCH   1  15
TORSDOF 7
ENDMDL
