MODEL 1
REMARK VINA RESULT:      -9.2      0.000      0.000
REMARK  9 active torsions:
REMARK  status: ('A' for Active; 'I' for Inactive)
REMARK    1  A    between atoms: C_4  and  C_5 
REMARK    2  A    between atoms: C_5  and  N_6 
REMARK    3  A    between atoms: C_10  and  C_11 
REMARK    4  A    between atoms: C_11  and  N_12 
REMARK       I    between atoms: N_12  and  C_13 
REMARK    5  A    between atoms: C_13  and  C_14 
REMARK    6  A    between atoms: C_14  and  C_15 
REMARK    7  A    between atoms: C_15  and  C_16 
REMARK       I    between atoms: C_16  and  N_17 
REMARK    8  A    between atoms: N_17  and  C_18 
REMARK    9  A    between atoms: C_24  and  N_25 
ROOT
HETATM    1  C   UNL     1     -42.569  61.297 -50.202  1.00  0.00     0.112 C 
ENDROOT
BRANCH   1   2
HETATM    2  C   UNL     1     -43.863  61.309 -51.008  1.00  0.00     0.112 C 
BRANCH   2   3
HETATM    3  C   UNL     1     -43.738  62.016 -52.337  1.00  0.00     0.218 C 
HETATM    4  N   UNL     1     -43.408  61.207 -53.404  1.00  0.00    -0.361 N 
HETATM    5  H   UNL     1     -43.423  60.204 -53.255  1.00  0.00     0.162 HD
HETATM    6  O   UNL     1     -43.941  63.221 -52.459  1.00  0.00    -0.274 OA
BRANCH   4   7
HETATM    7  C   UNL     1     -43.542  61.672 -54.773  1.00  0.00     0.127 C 
BRANCH   7   8
HETATM    8  C   UNL     1     -44.825  61.195 -55.485  1.00  0.00     0.006 C 
HETATM    9  C   UNL     1     -45.240  59.754 -55.156  1.00  0.00     0.034 C 
HETATM   10  C   UNL     1     -44.271  58.716 -55.710  1.00  0.00     0.235 C 
HETATM   11  N   UNL     1     -44.173  58.886 -57.213  1.00  0.00    -0.067 N 
HETATM   12  H   UNL     1     -45.112  58.719 -57.593  1.00  0.00     0.280 HD
HETATM   13  C   UNL     1     -43.738  60.272 -57.613  1.00  0.00     0.235 C 
HETATM   14  C   UNL     1     -44.678  61.315 -57.013  1.00  0.00     0.034 C 
BRANCH  11  15
HETATM   15  C   UNL     1     -43.279  57.835 -57.852  1.00  0.00     0.273 C 
BRANCH  15  16
HETATM   16  C   UNL     1     -44.022  56.859 -58.721  1.00  0.00    -0.032 A 
HETATM   17  C   UNL     1     -45.264  57.200 -59.282  1.00  0.00     0.015 A 
HETATM   18  C   UNL     1     -45.981  56.274 -60.051  1.00  0.00    -0.061 A 
HETATM   19  C   UNL     1     -47.296  56.643 -60.676  1.00  0.00     0.048 C 
HETATM   20  C   UNL     1     -45.432  55.008 -60.282  1.00  0.00     0.007 A 
HETATM   21  C   UNL     1     -44.197  54.664 -59.740  1.00  0.00     0.001 A 
HETATM   22  C   UNL     1     -43.495  55.582 -58.960  1.00  0.00     0.009 A 
ENDBRANCH  15  16
ENDBRANCH  11  15
ENDBRANCH   7   8
ENDBRANCH   4   7
ENDBRANCH   2   3
ENDBRANCH   1   2
BRANCH   1  23
HETATM   23  C   UNL     1     -41.770  60.035 -50.489  1.00  0.00     0.222 C 
HETATM   24  N   UNL     1     -42.557  58.991 -50.948  1.00  0.00    -0.327 N 
HETATM   25  H   UNL     1     -43.560  59.143 -50.951  1.00  0.00     0.169 HD
HETATM   26  O   UNL     1     -40.559  59.984 -50.299  1.00  0.00    -0.273 OA
BRANCH  24  27
HETATM   27  C   UNL     1     -42.115  57.699 -51.313  1.00  0.00     0.035 A 
HETATM   28  C   UNL     1     -41.688  56.731 -50.393  1.00  0.00     0.043 A 
HETATM   29  C   UNL     1     -41.277  55.437 -50.796  1.00  0.00    -0.001 A 
HETATM   30  C   UNL     1     -41.310  55.135 -52.172  1.00  0.00     0.044 A 
HETATM   31  C   UNL     1     -40.847  54.426 -49.904  1.00  0.00    -0.046 A 
HETATM   32  N   UNL     1     -40.956  53.909 -52.586  1.00  0.00    -0.346 N 
HETATM   33  C   UNL     1     -41.715  56.103 -53.101  1.00  0.00     0.033 A 
HETATM   34  H   UNL     1     -41.037  53.658 -53.564  1.00  0.00     0.167 HD
HETATM   35  C   UNL     1     -40.547  52.919 -51.784  1.00  0.00     0.083 A 
HETATM   36  C   UNL     1     -40.489  53.170 -50.414  1.00  0.00     0.050 A 
HETATM   37  C   UNL     1     -42.105  57.377 -52.673  1.00  0.00     0.032 A 
HETATM   38  C   UNL     1     -40.778  54.654 -48.415  1.00  0.00     0.049 C 
BRANCH  35  39
HETATM   39  N   UNL     1     -40.278  51.712 -52.408  1.00  0.00    -0.269 NA
HETATM   40  C   UNL     1     -39.451  50.744 -51.653  1.00  0.00     0.097 C 
HETATM   41  C   UNL     1     -39.545  49.368 -52.310  1.00  0.00     0.015 C 
HETATM   42  C   UNL     1     -39.149  49.429 -53.783  1.00  0.00     0.002 C 
HETATM   43  C   UNL     1     -39.953  50.498 -54.517  1.00  0.00     0.015 C 
HETATM   44  C   UNL     1     -39.848  51.853 -53.816  1.00  0.00     0.097 C 
ENDBRANCH  35  39
ENDBRANCH  24  27
ENDBRANCH   1  23
TORSDOF 9
ENDMDL
MODEL 2
REMARK VINA RESULT:      -8.9      2.514      3.945
REMARK  9 active torsions:
REMARK  status: ('A' for Active; 'I' for Inactive)
REMARK    1  A    between atoms: C_4  and  C_5 
REMARK    2  A    between atoms: C_5  and  N_6 
REMARK    3  A    between atoms: C_10  and  C_11 
REMARK    4  A    between atoms: C_11  and  N_12 
REMARK       I    between atoms: N_12  and  C_13 
REMARK    5  A    between atoms: C_13  and  C_14 
REMARK    6  A    between atoms: C_14  and  C_15 
REMARK    7  A    between atoms: C_15  and  C_16 
REMARK       I    between atoms: C_16  and  N_17 
REMARK    8  A    between atoms: N_17  and  C_18 
REMARK    9  A    between atoms: C_24  and  N_25 
ROOT
HETATM    1  C   UNL     1     -46.466  61.527 -56.061  1.00  0.00     0.112 C 
ENDROOT
BRANCH   1   2
HETATM    2  C   UNL     1     -45.997  62.977 -56.089  1.00  0.00     0.112 C 
BRANCH   2   3
HETATM    3  C   UNL     1     -45.058  63.283 -57.231  1.00  0.00     0.218 C 
HETATM    4  N   UNL     1     -43.733  63.435 -56.879  1.00  0.00    -0.361 N 
HETATM    5  H   UNL     1     -43.469  63.188 -55.931  1.00  0.00     0.162 HD
HETATM    6  O   UNL     1     -45.445  63.365 -58.394  1.00  0.00    -0.274 OA
BRANCH   4   7
HETATM    7  C   UNL     1     -42.681  63.434 -57.879  1.00  0.00     0.127 C 
BRANCH   7   8
HETATM    8  C   UNL     1     -41.590  62.366 -57.654  1.00  0.00     0.006 C 
HETATM    9  C   UNL     1     -40.660  62.140 -58.855  1.00  0.00     0.034 C 
HETATM   10  C   UNL     1     -41.369  61.496 -60.041  1.00  0.00     0.235 C 
HETATM   11  N   UNL     1     -41.962  60.173 -59.602  1.00  0.00    -0.067 N 
HETATM   12  H   UNL     1     -41.179  59.580 -59.304  1.00  0.00     0.280 HD
HETATM   13  C   UNL     1     -42.913  60.320 -58.443  1.00  0.00     0.235 C 
HETATM   14  C   UNL     1     -42.219  61.013 -57.273  1.00  0.00     0.034 C 
BRANCH  11  15
HETATM   15  C   UNL     1     -42.625  59.431 -60.752  1.00  0.00     0.273 C 
BRANCH  15  16
HETATM   16  C   UNL     1     -43.138  58.069 -60.375  1.00  0.00    -0.032 A 
HETATM   17  C   UNL     1     -44.517  57.799 -60.366  1.00  0.00     0.015 A 
HETATM   18  C   UNL     1     -44.998  56.545 -59.967  1.00  0.00    -0.061 A 
HETATM   19  C   UNL     1     -46.469  56.242 -59.983  1.00  0.00     0.048 C 
HETATM   20  C   UNL     1     -44.087  55.548 -59.603  1.00  0.00     0.007 A 
HETATM   21  C   UNL     1     -42.717  55.802 -59.618  1.00  0.00     0.001 A 
HETATM   22  C   UNL     1     -42.243  57.056 -59.999  1.00  0.00     0.009 A 
ENDBRANCH  15  16
ENDBRANCH  11  15
ENDBRANCH   7   8
ENDBRANCH   4   7
ENDBRANCH   2   3
ENDBRANCH   1   2
BRANCH   1  23
HETATM   23  C   UNL     1     -45.406  60.632 -55.437  1.00  0.00     0.222 C 
HETATM   24  N   UNL     1     -45.566  59.295 -55.768  1.00  0.00    -0.327 N 
HETATM   25  H   UNL     1     -46.400  59.052 -56.292  1.00  0.00     0.169 HD
HETATM   26  O   UNL     1     -44.531  61.085 -54.706  1.00  0.00    -0.273 OA
BRANCH  24  27
HETATM   27  C   UNL     1     -44.742  58.221 -55.361  1.00  0.00     0.035 A 
HETATM   28  C   UNL     1     -44.585  57.821 -54.027  1.00  0.00     0.043 A 
HETATM   29  C   UNL     1     -43.771  56.721 -53.661  1.00  0.00    -0.001 A 
HETATM   30  C   UNL     1     -43.109  56.021 -54.690  1.00  0.00     0.044 A 
HETATM   31  C   UNL     1     -43.589  56.275 -52.330  1.00  0.00    -0.046 A 
HETATM   32  N   UNL     1     -42.354  54.956 -54.381  1.00  0.00    -0.346 N 
HETATM   33  C   UNL     1     -43.243  56.427 -56.024  1.00  0.00     0.033 A 
HETATM   34  H   UNL     1     -41.925  54.405 -55.116  1.00  0.00     0.167 HD
HETATM   35  C   UNL     1     -42.153  54.493 -53.142  1.00  0.00     0.083 A 
HETATM   36  C   UNL     1     -42.779  55.156 -52.087  1.00  0.00     0.050 A 
HETATM   37  C   UNL     1     -44.047  57.525 -56.353  1.00  0.00     0.032 A 
HETATM   38  C   UNL     1     -44.255  56.958 -51.162  1.00  0.00     0.049 C 
BRANCH  35  39
HETATM   39  N   UNL     1     -41.380  53.348 -53.045  1.00  0.00    -0.269 NA
HETATM   40  C   UNL     1     -40.350  53.330 -51.983  1.00  0.00     0.097 C 
HETATM   41  C   UNL     1     -39.843  51.902 -51.785  1.00  0.00     0.015 C 
HETATM   42  C   UNL     1     -39.322  51.313 -53.093  1.00  0.00     0.002 C 
HETATM   43  C   UNL     1     -40.371  51.428 -54.196  1.00  0.00     0.015 C 
HETATM   44  C   UNL     1     -40.866  52.867 -54.346  1.00  0.00     0.097 C 
ENDBRANCH  35  39
ENDBRANCH  24  27
ENDBRANCH   1  23
TORSDOF 9
ENDMDL
MODEL 3
REMARK VINA RESULT:      -8.9      1.829      3.125
REMARK  9 active torsions:
REMARK  status: ('A' for Active; 'I' for Inactive)
REMARK    1  A    between atoms: C_4  and  C_5 
REMARK    2  A    between atoms: C_5  and  N_6 
REMARK    3  A    between atoms: C_10  and  C_11 
REMARK    4  A    between atoms: C_11  and  N_12 
REMARK       I    between atoms: N_12  and  C_13 
REMARK    5  A    between atoms: C_13  and  C_14 
REMARK    6  A    between atoms: C_14  and  C_15 
REMARK    7  A    between atoms: C_15  and  C_16 
REMARK       I    between atoms: C_16  and  N_17 
REMARK    8  A    between atoms: N_17  and  C_18 
REMARK    9  A    between atoms: C_24  and  N_25 
ROOT
HETATM    1  C   UNL     1     -44.058  61.368 -52.674  1.00  0.00     0.112 C 
ENDROOT
BRANCH   1   2
HETATM    2  C   UNL     1     -45.332  61.158 -53.486  1.00  0.00     0.112 C 
BRANCH   2   3
HETATM    3  C   UNL     1     -45.076  60.639 -54.881  1.00  0.00     0.218 C 
HETATM    4  N   UNL     1     -44.450  61.524 -55.732  1.00  0.00    -0.361 N 
HETATM    5  H   UNL     1     -44.080  62.379 -55.330  1.00  0.00     0.162 HD
HETATM    6  O   UNL     1     -45.383  59.499 -55.222  1.00  0.00    -0.274 OA
BRANCH   4   7
HETATM    7  C   UNL     1     -43.875  61.084 -56.990  1.00  0.00     0.127 C 
BRANCH   7   8
HETATM    8  C   UNL     1     -42.364  60.776 -56.927  1.00  0.00     0.006 C 
HETATM    9  C   UNL     1     -41.585  61.137 -58.199  1.00  0.00     0.034 C 
HETATM   10  C   UNL     1     -41.948  60.255 -59.388  1.00  0.00     0.235 C 
HETATM   11  N   UNL     1     -41.686  58.807 -59.025  1.00  0.00    -0.067 N 
HETATM   12  H   UNL     1     -40.682  58.726 -58.830  1.00  0.00     0.280 HD
HETATM   13  C   UNL     1     -42.445  58.370 -57.800  1.00  0.00     0.235 C 
HETATM   14  C   UNL     1     -42.122  59.286 -56.622  1.00  0.00     0.034 C 
BRANCH  11  15
HETATM   15  C   UNL     1     -41.955  57.866 -60.189  1.00  0.00     0.273 C 
BRANCH  15  16
HETATM   16  C   UNL     1     -43.284  57.168 -60.106  1.00  0.00    -0.032 A 
HETATM   17  C   UNL     1     -43.354  55.789 -59.846  1.00  0.00     0.015 A 
HETATM   18  C   UNL     1     -44.589  55.127 -59.818  1.00  0.00    -0.061 A 
HETATM   19  C   UNL     1     -44.672  53.659 -59.513  1.00  0.00     0.048 C 
HETATM   20  C   UNL     1     -45.761  55.862 -60.022  1.00  0.00     0.007 A 
HETATM   21  C   UNL     1     -45.704  57.232 -60.269  1.00  0.00     0.001 A 
HETATM   22  C   UNL     1     -44.472  57.882 -60.314  1.00  0.00     0.009 A 
ENDBRANCH  15  16
ENDBRANCH  11  15
ENDBRANCH   7   8
ENDBRANCH   4   7
ENDBRANCH   2   3
ENDBRANCH   1   2
BRANCH   1  23
HETATM   23  C   UNL     1     -43.121  60.180 -52.829  1.00  0.00     0.222 C 
HETATM   24  N   UNL     1     -43.716  58.975 -52.488  1.00  0.00    -0.327 N 
HETATM   25  H   UNL     1     -44.649  59.025 -52.092  1.00  0.00     0.169 HD
HETATM   26  O   UNL     1     -41.960  60.321 -53.199  1.00  0.00    -0.273 OA
BRANCH  24  27
HETATM   27  C   UNL     1     -43.118  57.696 -52.535  1.00  0.00     0.035 A 
HETATM   28  C   UNL     1     -43.037  56.915 -53.697  1.00  0.00     0.043 A 
HETATM   29  C   UNL     1     -42.404  55.648 -53.711  1.00  0.00    -0.001 A 
HETATM   30  C   UNL     1     -41.843  55.179 -52.505  1.00  0.00     0.044 A 
HETATM   31  C   UNL     1     -42.289  54.829 -54.859  1.00  0.00    -0.046 A 
HETATM   32  N   UNL     1     -41.210  53.997 -52.490  1.00  0.00    -0.346 N 
HETATM   33  C   UNL     1     -41.938  55.943 -51.335  1.00  0.00     0.033 A 
HETATM   34  H   UNL     1     -40.747  53.677 -51.647  1.00  0.00     0.167 HD
HETATM   35  C   UNL     1     -41.072  53.189 -53.548  1.00  0.00     0.083 A 
HETATM   36  C   UNL     1     -41.617  53.603 -54.762  1.00  0.00     0.050 A 
HETATM   37  C   UNL     1     -42.580  57.188 -51.350  1.00  0.00     0.032 A 
HETATM   38  C   UNL     1     -42.857  55.245 -56.194  1.00  0.00     0.049 C 
BRANCH  35  39
HETATM   39  N   UNL     1     -40.337  52.035 -53.331  1.00  0.00    -0.269 NA
HETATM   40  C   UNL     1     -40.607  50.895 -54.236  1.00  0.00     0.097 C 
HETATM   41  C   UNL     1     -39.495  49.856 -54.098  1.00  0.00     0.015 C 
HETATM   42  C   UNL     1     -39.335  49.406 -52.649  1.00  0.00     0.002 C 
HETATM   43  C   UNL     1     -39.150  50.607 -51.725  1.00  0.00     0.015 C 
HETATM   44  C   UNL     1     -40.272  51.630 -51.910  1.00  0.00     0.097 C 
ENDBRANCH  35  39
ENDBRANCH  24  27
ENDBRANCH   1  23
TORSDOF 9
ENDMDL
MODEL 4
REMARK VINA RESULT:      -8.7      1.423      2.214
REMARK  9 active torsions:
REMARK  status: ('A' for Active; 'I' for Inactive)
REMARK    1  A    between atoms: C_4  and  C_5 
REMARK    2  A    between atoms: C_5  and  N_6 
REMARK    3  A    between atoms: C_10  and  C_11 
REMARK    4  A    between atoms: C_11  and  N_12 
REMARK       I    between atoms: N_12  and  C_13 
REMARK    5  A    between atoms: C_13  and  C_14 
REMARK    6  A    between atoms: C_14  and  C_15 
REMARK    7  A    between atoms: C_15  and  C_16 
REMARK       I    between atoms: C_16  and  N_17 
REMARK    8  A    between atoms: N_17  and  C_18 
REMARK    9  A    between atoms: C_24  and  N_25 
ROOT
HETATM    1  C   UNL     1     -43.854  62.182 -50.161  1.00  0.00     0.112 C 
ENDROOT
BRANCH   1   2
HETATM    2  C   UNL     1     -43.225  62.915 -51.342  1.00  0.00     0.112 C 
BRANCH   2   3
HETATM    3  C   UNL     1     -43.797  62.504 -52.678  1.00  0.00     0.218 C 
HETATM    4  N   UNL     1     -42.865  62.223 -53.655  1.00  0.00    -0.361 N 
HETATM    5  H   UNL     1     -41.893  62.167 -53.373  1.00  0.00     0.162 HD
HETATM    6  O   UNL     1     -45.007  62.403 -52.870  1.00  0.00    -0.274 OA
BRANCH   4   7
HETATM    7  C   UNL     1     -43.238  61.538 -54.879  1.00  0.00     0.127 C 
BRANCH   7   8
HETATM    8  C   UNL     1     -43.389  60.009 -54.733  1.00  0.00     0.006 C 
HETATM    9  C   UNL     1     -42.236  59.193 -55.333  1.00  0.00     0.034 C 
HETATM   10  C   UNL     1     -42.183  59.273 -56.854  1.00  0.00     0.235 C 
HETATM   11  N   UNL     1     -43.501  58.784 -57.421  1.00  0.00    -0.067 N 
HETATM   12  H   UNL     1     -43.604  57.805 -57.130  1.00  0.00     0.280 HD
HETATM   13  C   UNL     1     -44.680  59.562 -56.899  1.00  0.00     0.235 C 
HETATM   14  C   UNL     1     -44.704  59.527 -55.372  1.00  0.00     0.034 C 
BRANCH  11  15
HETATM   15  C   UNL     1     -43.499  58.762 -58.941  1.00  0.00     0.273 C 
BRANCH  15  16
HETATM   16  C   UNL     1     -44.147  57.539 -59.527  1.00  0.00    -0.032 A 
HETATM   17  C   UNL     1     -45.451  57.598 -60.049  1.00  0.00     0.015 A 
HETATM   18  C   UNL     1     -46.075  56.447 -60.549  1.00  0.00    -0.061 A 
HETATM   19  C   UNL     1     -47.456  56.510 -61.133  1.00  0.00     0.048 C 
HETATM   20  C   UNL     1     -45.373  55.237 -60.553  1.00  0.00     0.007 A 
HETATM   21  C   UNL     1     -44.076  55.170 -60.049  1.00  0.00     0.001 A 
HETATM   22  C   UNL     1     -43.466  56.313 -59.535  1.00  0.00     0.009 A 
ENDBRANCH  15  16
ENDBRANCH  11  15
ENDBRANCH   7   8
ENDBRANCH   4   7
ENDBRANCH   2   3
ENDBRANCH   1   2
BRANCH   1  23
HETATM   23  C   UNL     1     -43.845  60.679 -50.397  1.00  0.00     0.222 C 
HETATM   24  N   UNL     1     -42.602  60.201 -50.780  1.00  0.00    -0.327 N 
HETATM   25  H   UNL     1     -41.880  60.893 -50.951  1.00  0.00     0.169 HD
HETATM   26  O   UNL     1     -44.861  60.003 -50.271  1.00  0.00    -0.273 OA
BRANCH  24  27
HETATM   27  C   UNL     1     -42.265  58.856 -51.059  1.00  0.00     0.035 A 
HETATM   28  C   UNL     1     -42.941  58.061 -51.995  1.00  0.00     0.043 A 
HETATM   29  C   UNL     1     -42.557  56.725 -52.267  1.00  0.00    -0.001 A 
HETATM   30  C   UNL     1     -41.453  56.202 -51.562  1.00  0.00     0.044 A 
HETATM   31  C   UNL     1     -43.202  55.887 -53.207  1.00  0.00    -0.046 A 
HETATM   32  N   UNL     1     -41.044  54.950 -51.816  1.00  0.00    -0.346 N 
HETATM   33  C   UNL     1     -40.785  56.983 -50.609  1.00  0.00     0.033 A 
HETATM   34  H   UNL     1     -40.214  54.584 -51.364  1.00  0.00     0.167 HD
HETATM   35  C   UNL     1     -41.616  54.121 -52.697  1.00  0.00     0.083 A 
HETATM   36  C   UNL     1     -42.717  54.588 -53.414  1.00  0.00     0.050 A 
HETATM   37  C   UNL     1     -41.196  58.297 -50.355  1.00  0.00     0.032 A 
HETATM   38  C   UNL     1     -44.389  56.357 -54.010  1.00  0.00     0.049 C 
BRANCH  35  39
HETATM   39  N   UNL     1     -41.005  52.887 -52.847  1.00  0.00    -0.269 NA
HETATM   40  C   UNL     1     -39.929  52.558 -51.885  1.00  0.00     0.097 C 
HETATM   41  C   UNL     1     -39.615  51.065 -51.959  1.00  0.00     0.015 C 
HETATM   42  C   UNL     1     -39.255  50.644 -53.381  1.00  0.00     0.002 C 
HETATM   43  C   UNL     1     -40.339  51.077 -54.365  1.00  0.00     0.015 C 
HETATM   44  C   UNL     1     -40.637  52.572 -54.244  1.00  0.00     0.097 C 
ENDBRANCH  35  39
ENDBRANCH  24  27
ENDBRANCH   1  23
TORSDOF 9
ENDMDL
MODEL 5
REMARK VINA RESULT:      -8.7      2.148      3.266
REMARK  9 active torsions:
REMARK  status: ('A' for Active; 'I' for Inactive)
REMARK    1  A    between atoms: C_4  and  C_5 
REMARK    2  A    between atoms: C_5  and  N_6 
REMARK    3  A    between atoms: C_10  and  C_11 
REMARK    4  A    between atoms: C_11  and  N_12 
REMARK       I    between atoms: N_12  and  C_13 
REMARK    5  A    between atoms: C_13  and  C_14 
REMARK    6  A    between atoms: C_14  and  C_15 
REMARK    7  A    between atoms: C_15  and  C_16 
REMARK       I    between atoms: C_16  and  N_17 
REMARK    8  A    between atoms: N_17  and  C_18 
REMARK    9  A    between atoms: C_24  and  N_25 
ROOT
HETATM    1  C   UNL     1     -45.110  61.111 -54.646  1.00  0.00     0.112 C 
ENDROOT
BRANCH   1   2
HETATM    2  C   UNL     1     -44.597  62.307 -55.439  1.00  0.00     0.112 C 
BRANCH   2   3
HETATM    3  C   UNL     1     -44.668  62.112 -56.935  1.00  0.00     0.218 C 
HETATM    4  N   UNL     1     -43.450  62.040 -57.578  1.00  0.00    -0.361 N 
HETATM    5  H   UNL     1     -42.619  61.973 -57.001  1.00  0.00     0.162 HD
HETATM    6  O   UNL     1     -45.737  62.000 -57.531  1.00  0.00    -0.274 OA
BRANCH   4   7
HETATM    7  C   UNL     1     -43.345  61.563 -58.945  1.00  0.00     0.127 C 
BRANCH   7   8
HETATM    8  C   UNL     1     -41.945  61.043 -59.332  1.00  0.00     0.006 C 
HETATM    9  C   UNL     1     -41.898  60.253 -60.647  1.00  0.00     0.034 C 
HETATM   10  C   UNL     1     -42.624  58.915 -60.562  1.00  0.00     0.235 C 
HETATM   11  N   UNL     1     -42.007  58.090 -59.451  1.00  0.00    -0.067 N 
HETATM   12  H   UNL     1     -41.025  57.934 -59.707  1.00  0.00     0.280 HD
HETATM   13  C   UNL     1     -42.045  58.790 -58.118  1.00  0.00     0.235 C 
HETATM   14  C   UNL     1     -41.365  60.154 -58.217  1.00  0.00     0.034 C 
BRANCH  11  15
HETATM   15  C   UNL     1     -42.629  56.706 -59.351  1.00  0.00     0.273 C 
BRANCH  15  16
HETATM   16  C   UNL     1     -44.122  56.702 -59.530  1.00  0.00    -0.032 A 
HETATM   17  C   UNL     1     -44.952  57.415 -58.649  1.00  0.00     0.015 A 
HETATM   18  C   UNL     1     -46.346  57.372 -58.785  1.00  0.00    -0.061 A 
HETATM   19  C   UNL     1     -47.236  58.154 -57.863  1.00  0.00     0.048 C 
HETATM   20  C   UNL     1     -46.907  56.632 -59.831  1.00  0.00     0.007 A 
HETATM   21  C   UNL     1     -46.093  55.930 -60.717  1.00  0.00     0.001 A 
HETATM   22  C   UNL     1     -44.708  55.962 -60.568  1.00  0.00     0.009 A 
ENDBRANCH  15  16
ENDBRANCH  11  15
ENDBRANCH   7   8
ENDBRANCH   4   7
ENDBRANCH   2   3
ENDBRANCH   1   2
BRANCH   1  23
HETATM   23  C   UNL     1     -44.064  60.007 -54.602  1.00  0.00     0.222 C 
HETATM   24  N   UNL     1     -44.585  58.786 -54.205  1.00  0.00    -0.327 N 
HETATM   25  H   UNL     1     -45.553  58.780 -53.903  1.00  0.00     0.169 HD
HETATM   26  O   UNL     1     -42.888  60.225 -54.876  1.00  0.00    -0.273 OA
BRANCH  24  27
HETATM   27  C   UNL     1     -43.878  57.568 -54.077  1.00  0.00     0.035 A 
HETATM   28  C   UNL     1     -43.053  57.256 -52.988  1.00  0.00     0.043 A 
HETATM   29  C   UNL     1     -42.381  56.014 -52.883  1.00  0.00    -0.001 A 
HETATM   30  C   UNL     1     -42.566  55.076 -53.920  1.00  0.00     0.044 A 
HETATM   31  C   UNL     1     -41.546  55.650 -51.800  1.00  0.00    -0.046 A 
HETATM   32  N   UNL     1     -41.968  53.878 -53.837  1.00  0.00    -0.346 N 
HETATM   33  C   UNL     1     -43.372  55.388 -55.023  1.00  0.00     0.033 A 
HETATM   34  H   UNL     1     -42.144  53.171 -54.543  1.00  0.00     0.167 HD
HETATM   35  C   UNL     1     -41.175  53.485 -52.834  1.00  0.00     0.083 A 
HETATM   36  C   UNL     1     -40.953  54.380 -51.788  1.00  0.00     0.050 A 
HETATM   37  C   UNL     1     -44.014  56.629 -55.103  1.00  0.00     0.032 A 
HETATM   38  C   UNL     1     -41.288  56.584 -50.644  1.00  0.00     0.049 C 
BRANCH  35  39
HETATM   39  N   UNL     1     -40.699  52.187 -52.917  1.00  0.00    -0.269 NA
HETATM   40  C   UNL     1     -39.648  51.802 -51.949  1.00  0.00     0.097 C 
HETATM   41  C   UNL     1     -39.494  50.282 -51.937  1.00  0.00     0.015 C 
HETATM   42  C   UNL     1     -39.204  49.744 -53.335  1.00  0.00     0.002 C 
HETATM   43  C   UNL     1     -40.252  50.231 -54.332  1.00  0.00     0.015 C 
HETATM   44  C   UNL     1     -40.389  51.754 -54.296  1.00  0.00     0.097 C 
ENDBRANCH  35  39
ENDBRANCH  24  27
ENDBRANCH   1  23
TORSDOF 9
ENDMDL
MODEL 6
REMARK VINA RESULT:      -8.7      1.405      1.876
REMARK  9 active torsions:
REMARK  status: ('A' for Active; 'I' for Inactive)
REMARK    1  A    between atoms: C_4  and  C_5 
REMARK    2  A    between atoms: C_5  and  N_6 
REMARK    3  A    between atoms: C_10  and  C_11 
REMARK    4  A    between atoms: C_11  and  N_12 
REMARK       I    between atoms: N_12  and  C_13 
REMARK    5  A    between atoms: C_13  and  C_14 
REMARK    6  A    between atoms: C_14  and  C_15 
REMARK    7  A    between atoms: C_15  and  C_16 
REMARK       I    between atoms: C_16  and  N_17 
REMARK    8  A    between atoms: N_17  and  C_18 
REMARK    9  A    between atoms: C_24  and  N_25 
ROOT
HETATM    1  C   UNL     1     -43.401  61.173 -50.372  1.00  0.00     0.112 C 
ENDROOT
BRANCH   1   2
HETATM    2  C   UNL     1     -42.718  62.518 -50.595  1.00  0.00     0.112 C 
BRANCH   2   3
HETATM    3  C   UNL     1     -43.253  63.272 -51.789  1.00  0.00     0.218 C 
HETATM    4  N   UNL     1     -42.858  62.785 -53.018  1.00  0.00    -0.361 N 
HETATM    5  H   UNL     1     -42.377  61.893 -53.035  1.00  0.00     0.162 HD
HETATM    6  O   UNL     1     -44.006  64.236 -51.672  1.00  0.00    -0.274 OA
BRANCH   4   7
HETATM    7  C   UNL     1     -43.514  63.206 -54.242  1.00  0.00     0.127 C 
BRANCH   7   8
HETATM    8  C   UNL     1     -44.601  62.235 -54.748  1.00  0.00     0.006 C 
HETATM    9  C   UNL     1     -44.424  60.781 -54.288  1.00  0.00     0.034 C 
HETATM   10  C   UNL     1     -43.207  60.106 -54.911  1.00  0.00     0.235 C 
HETATM   11  N   UNL     1     -43.337  60.149 -56.420  1.00  0.00    -0.067 N 
HETATM   12  H   UNL     1     -44.185  59.622 -56.660  1.00  0.00     0.280 HD
HETATM   13  C   UNL     1     -43.484  61.552 -56.949  1.00  0.00     0.235 C 
HETATM   14  C   UNL     1     -44.671  62.247 -56.287  1.00  0.00     0.034 C 
BRANCH  11  15
HETATM   15  C   UNL     1     -42.194  59.427 -57.115  1.00  0.00     0.273 C 
BRANCH  15  16
HETATM   16  C   UNL     1     -42.536  58.026 -57.540  1.00  0.00    -0.032 A 
HETATM   17  C   UNL     1     -42.582  56.983 -56.600  1.00  0.00     0.015 A 
HETATM   18  C   UNL     1     -42.851  55.668 -57.003  1.00  0.00    -0.061 A 
HETATM   19  C   UNL     1     -42.929  54.554 -55.999  1.00  0.00     0.048 C 
HETATM   20  C   UNL     1     -43.105  55.406 -58.353  1.00  0.00     0.007 A 
HETATM   21  C   UNL     1     -43.073  56.434 -59.292  1.00  0.00     0.001 A 
HETATM   22  C   UNL     1     -42.787  57.738 -58.890  1.00  0.00     0.009 A 
ENDBRANCH  15  16
ENDBRANCH  11  15
ENDBRANCH   7   8
ENDBRANCH   4   7
ENDBRANCH   2   3
ENDBRANCH   1   2
BRANCH   1  23
HETATM   23  C   UNL     1     -42.589  60.049 -50.997  1.00  0.00     0.222 C 
HETATM   24  N   UNL     1     -43.090  58.791 -50.699  1.00  0.00    -0.327 N 
HETATM   25  H   UNL     1     -43.859  58.752 -50.039  1.00  0.00     0.169 HD
HETATM   26  O   UNL     1     -41.588  60.276 -51.670  1.00  0.00    -0.273 OA
BRANCH  24  27
HETATM   27  C   UNL     1     -42.571  57.551 -51.137  1.00  0.00     0.035 A 
HETATM   28  C   UNL     1     -41.947  56.624 -50.292  1.00  0.00     0.043 A 
HETATM   29  C   UNL     1     -41.465  55.379 -50.764  1.00  0.00    -0.001 A 
HETATM   30  C   UNL     1     -41.631  55.085 -52.133  1.00  0.00     0.044 A 
HETATM   31  C   UNL     1     -40.836  54.408 -49.949  1.00  0.00    -0.046 A 
HETATM   32  N   UNL     1     -41.212  53.903 -52.608  1.00  0.00    -0.346 N 
HETATM   33  C   UNL     1     -42.234  56.016 -52.990  1.00  0.00     0.033 A 
HETATM   34  H   UNL     1     -41.383  53.652 -53.575  1.00  0.00     0.167 HD
HETATM   35  C   UNL     1     -40.617  52.952 -51.879  1.00  0.00     0.083 A 
HETATM   36  C   UNL     1     -40.422  53.197 -50.520  1.00  0.00     0.050 A 
HETATM   37  C   UNL     1     -42.692  57.243 -52.495  1.00  0.00     0.032 A 
HETATM   38  C   UNL     1     -40.614  54.630 -48.473  1.00  0.00     0.049 C 
BRANCH  35  39
HETATM   39  N   UNL     1     -40.309  51.781 -52.552  1.00  0.00    -0.269 NA
HETATM   40  C   UNL     1     -39.439  50.817 -51.844  1.00  0.00     0.097 C 
HETATM   41  C   UNL     1     -39.488  49.465 -52.554  1.00  0.00     0.015 C 
HETATM   42  C   UNL     1     -39.108  49.599 -54.027  1.00  0.00     0.002 C 
HETATM   43  C   UNL     1     -39.959  50.665 -54.711  1.00  0.00     0.015 C 
HETATM   44  C   UNL     1     -39.898  51.995 -53.957  1.00  0.00     0.097 C 
ENDBRANCH  35  39
ENDBRANCH  24  27
ENDBRANCH   1  23
TORSDOF 9
ENDMDL
MODEL 7
REMARK VINA RESULT:      -8.7      1.317      2.003
REMARK  9 active torsions:
REMARK  status: ('A' for Active; 'I' for Inactive)
REMARK    1  A    between atoms: C_4  and  C_5 
REMARK    2  A    between atoms: C_5  and  N_6 
REMARK    3  A    between atoms: C_10  and  C_11 
REMARK    4  A    between atoms: C_11  and  N_12 
REMARK       I    between atoms: N_12  and  C_13 
REMARK    5  A    between atoms: C_13  and  C_14 
REMARK    6  A    between atoms: C_14  and  C_15 
REMARK    7  A    between atoms: C_15  and  C_16 
REMARK       I    between atoms: C_16  and  N_17 
REMARK    8  A    between atoms: N_17  and  C_18 
REMARK    9  A    between atoms: C_24  and  N_25 
ROOT
HETATM    1  C   UNL     1     -44.142  60.997 -50.954  1.00  0.00     0.112 C 
ENDROOT
BRANCH   1   2
HETATM    2  C   UNL     1     -43.199  61.779 -51.861  1.00  0.00     0.112 C 
BRANCH   2   3
HETATM    3  C   UNL     1     -43.659  61.839 -53.299  1.00  0.00     0.218 C 
HETATM    4  N   UNL     1     -42.653  61.976 -54.233  1.00  0.00    -0.361 N 
HETATM    5  H   UNL     1     -41.697  61.876 -53.910  1.00  0.00     0.162 HD
HETATM    6  O   UNL     1     -44.843  61.747 -53.612  1.00  0.00    -0.274 OA
BRANCH   4   7
HETATM    7  C   UNL     1     -42.900  61.751 -55.645  1.00  0.00     0.127 C 
BRANCH   7   8
HETATM    8  C   UNL     1     -42.307  60.436 -56.194  1.00  0.00     0.006 C 
HETATM    9  C   UNL     1     -41.802  60.518 -57.641  1.00  0.00     0.034 C 
HETATM   10  C   UNL     1     -42.928  60.702 -58.653  1.00  0.00     0.235 C 
HETATM   11  N   UNL     1     -43.903  59.550 -58.519  1.00  0.00    -0.067 N 
HETATM   12  H   UNL     1     -43.382  58.692 -58.735  1.00  0.00     0.280 HD
HETATM   13  C   UNL     1     -44.467  59.426 -57.128  1.00  0.00     0.235 C 
HETATM   14  C   UNL     1     -43.338  59.295 -56.109  1.00  0.00     0.034 C 
BRANCH  11  15
HETATM   15  C   UNL     1     -45.020  59.621 -59.549  1.00  0.00     0.273 C 
BRANCH  15  16
HETATM   16  C   UNL     1     -45.570  58.276 -59.936  1.00  0.00    -0.032 A 
HETATM   17  C   UNL     1     -44.794  57.115 -59.788  1.00  0.00     0.015 A 
HETATM   18  C   UNL     1     -45.287  55.867 -60.194  1.00  0.00    -0.061 A 
HETATM   19  C   UNL     1     -44.473  54.619 -60.012  1.00  0.00     0.048 C 
HETATM   20  C   UNL     1     -46.578  55.784 -60.725  1.00  0.00     0.007 A 
HETATM   21  C   UNL     1     -47.360  56.928 -60.866  1.00  0.00     0.001 A 
HETATM   22  C   UNL     1     -46.859  58.169 -60.477  1.00  0.00     0.009 A 
ENDBRANCH  15  16
ENDBRANCH  11  15
ENDBRANCH   7   8
ENDBRANCH   4   7
ENDBRANCH   2   3
ENDBRANCH   1   2
BRANCH   1  23
HETATM   23  C   UNL     1     -43.982  59.501 -51.177  1.00  0.00     0.222 C 
HETATM   24  N   UNL     1     -42.702  59.148 -51.574  1.00  0.00    -0.327 N 
HETATM   25  H   UNL     1     -42.057  59.908 -51.760  1.00  0.00     0.169 HD
HETATM   26  O   UNL     1     -44.922  58.725 -51.032  1.00  0.00    -0.273 OA
BRANCH  24  27
HETATM   27  C   UNL     1     -42.233  57.842 -51.846  1.00  0.00     0.035 A 
HETATM   28  C   UNL     1     -41.835  56.934 -50.856  1.00  0.00     0.043 A 
HETATM   29  C   UNL     1     -41.397  55.624 -51.167  1.00  0.00    -0.001 A 
HETATM   30  C   UNL     1     -41.370  55.244 -52.525  1.00  0.00     0.044 A 
HETATM   31  C   UNL     1     -40.994  54.669 -50.203  1.00  0.00    -0.046 A 
HETATM   32  N   UNL     1     -40.989  54.000 -52.853  1.00  0.00    -0.346 N 
HETATM   33  C   UNL     1     -41.746  56.153 -53.523  1.00  0.00     0.033 A 
HETATM   34  H   UNL     1     -41.027  53.694 -53.818  1.00  0.00     0.167 HD
HETATM   35  C   UNL     1     -40.604  53.062 -51.980  1.00  0.00     0.083 A 
HETATM   36  C   UNL     1     -40.604  53.391 -50.625  1.00  0.00     0.050 A 
HETATM   37  C   UNL     1     -42.164  57.445 -53.184  1.00  0.00     0.032 A 
HETATM   38  C   UNL     1     -40.988  54.982 -48.727  1.00  0.00     0.049 C 
BRANCH  35  39
HETATM   39  N   UNL     1     -40.299  51.825 -52.523  1.00  0.00    -0.269 NA
HETATM   40  C   UNL     1     -39.436  50.938 -51.710  1.00  0.00     0.097 C 
HETATM   41  C   UNL     1     -39.489  49.518 -52.272  1.00  0.00     0.015 C 
HETATM   42  C   UNL     1     -39.102  49.491 -53.748  1.00  0.00     0.002 C 
HETATM   43  C   UNL     1     -39.944  50.482 -54.547  1.00  0.00     0.015 C 
HETATM   44  C   UNL     1     -39.880  51.884 -53.940  1.00  0.00     0.097 C 
ENDBRANCH  35  39
ENDBRANCH  24  27
ENDBRANCH   1  23
TORSDOF 9
ENDMDL
MODEL 8
REMARK VINA RESULT:      -8.6      2.718      6.091
REMARK  9 active torsions:
REMARK  status: ('A' for Active; 'I' for Inactive)
REMARK    1  A    between atoms: C_4  and  C_5 
REMARK    2  A    between atoms: C_5  and  N_6 
REMARK    3  A    between atoms: C_10  and  C_11 
REMARK    4  A    between atoms: C_11  and  N_12 
REMARK       I    between atoms: N_12  and  C_13 
REMARK    5  A    between atoms: C_13  and  C_14 
REMARK    6  A    between atoms: C_14  and  C_15 
REMARK    7  A    between atoms: C_15  and  C_16 
REMARK       I    between atoms: C_16  and  N_17 
REMARK    8  A    between atoms: N_17  and  C_18 
REMARK    9  A    between atoms: C_24  and  N_25 
ROOT
HETATM    1  C   UNL     1     -47.013  60.217 -58.238  1.00  0.00     0.112 C 
ENDROOT
BRANCH   1   2
HETATM    2  C   UNL     1     -48.035  60.864 -57.309  1.00  0.00     0.112 C 
BRANCH   2   3
HETATM    3  C   UNL     1     -47.443  61.921 -56.407  1.00  0.00     0.218 C 
HETATM    4  N   UNL     1     -48.080  62.084 -55.195  1.00  0.00    -0.361 N 
HETATM    5  H   UNL     1     -48.783  61.400 -54.940  1.00  0.00     0.162 HD
HETATM    6  O   UNL     1     -46.449  62.570 -56.723  1.00  0.00    -0.274 OA
BRANCH   4   7
HETATM    7  C   UNL     1     -47.465  62.833 -54.114  1.00  0.00     0.127 C 
BRANCH   7   8
HETATM    8  C   UNL     1     -47.276  62.030 -52.810  1.00  0.00     0.006 C 
HETATM    9  C   UNL     1     -46.514  62.776 -51.705  1.00  0.00     0.034 C 
HETATM   10  C   UNL     1     -45.047  63.006 -52.047  1.00  0.00     0.235 C 
HETATM   11  N   UNL     1     -44.386  61.667 -52.305  1.00  0.00    -0.067 N 
HETATM   12  H   UNL     1     -44.457  61.127 -51.435  1.00  0.00     0.280 HD
HETATM   13  C   UNL     1     -45.061  60.888 -53.403  1.00  0.00     0.235 C 
HETATM   14  C   UNL     1     -46.544  60.704 -53.086  1.00  0.00     0.034 C 
BRANCH  11  15
HETATM   15  C   UNL     1     -42.897  61.806 -52.581  1.00  0.00     0.273 C 
BRANCH  15  16
HETATM   16  C   UNL     1     -42.171  60.490 -52.650  1.00  0.00    -0.032 A 
HETATM   17  C   UNL     1     -41.917  59.749 -51.484  1.00  0.00     0.015 A 
HETATM   18  C   UNL     1     -41.198  58.548 -51.541  1.00  0.00    -0.061 A 
HETATM   19  C   UNL     1     -40.948  57.738 -50.301  1.00  0.00     0.048 C 
HETATM   20  C   UNL     1     -40.757  58.075 -52.781  1.00  0.00     0.007 A 
HETATM   21  C   UNL     1     -41.013  58.796 -53.945  1.00  0.00     0.001 A 
HETATM   22  C   UNL     1     -41.713  59.999 -53.882  1.00  0.00     0.009 A 
ENDBRANCH  15  16
ENDBRANCH  11  15
ENDBRANCH   7   8
ENDBRANCH   4   7
ENDBRANCH   2   3
ENDBRANCH   1   2
BRANCH   1  23
HETATM   23  C   UNL     1     -46.484  58.925 -57.636  1.00  0.00     0.222 C 
HETATM   24  N   UNL     1     -45.213  59.062 -57.097  1.00  0.00    -0.327 N 
HETATM   25  H   UNL     1     -44.751  59.952 -57.244  1.00  0.00     0.169 HD
HETATM   26  O   UNL     1     -47.136  57.887 -57.665  1.00  0.00    -0.273 OA
BRANCH  24  27
HETATM   27  C   UNL     1     -44.456  58.055 -56.456  1.00  0.00     0.035 A 
HETATM   28  C   UNL     1     -44.516  57.788 -55.082  1.00  0.00     0.043 A 
HETATM   29  C   UNL     1     -43.762  56.751 -54.481  1.00  0.00    -0.001 A 
HETATM   30  C   UNL     1     -42.931  55.974 -55.314  1.00  0.00     0.044 A 
HETATM   31  C   UNL     1     -43.797  56.439 -53.101  1.00  0.00    -0.046 A 
HETATM   32  N   UNL     1     -42.226  54.965 -54.783  1.00  0.00    -0.346 N 
HETATM   33  C   UNL     1     -42.849  56.247 -56.686  1.00  0.00     0.033 A 
HETATM   34  H   UNL     1     -41.676  54.358 -55.380  1.00  0.00     0.167 HD
HETATM   35  C   UNL     1     -42.228  54.628 -53.488  1.00  0.00     0.083 A 
HETATM   36  C   UNL     1     -43.026  55.371 -52.620  1.00  0.00     0.050 A 
HETATM   37  C   UNL     1     -43.599  57.286 -57.249  1.00  0.00     0.032 A 
HETATM   38  C   UNL     1     -44.654  57.213 -52.131  1.00  0.00     0.049 C 
BRANCH  35  39
HETATM   39  N   UNL     1     -41.468  53.518 -53.155  1.00  0.00    -0.269 NA
HETATM   40  C   UNL     1     -40.550  53.664 -52.003  1.00  0.00     0.097 C 
HETATM   41  C   UNL     1     -40.067  52.285 -51.555  1.00  0.00     0.015 C 
HETATM   42  C   UNL     1     -39.416  51.526 -52.708  1.00  0.00     0.002 C 
HETATM   43  C   UNL     1     -40.348  51.470 -53.916  1.00  0.00     0.015 C 
HETATM   44  C   UNL     1     -40.825  52.867 -54.316  1.00  0.00     0.097 C 
ENDBRANCH  35  39
ENDBRANCH  24  27
ENDBRANCH   1  23
TORSDOF 9
ENDMDL
MODEL 9
REMARK VINA RESULT:      -8.3      2.425      7.921
REMARK  9 active torsions:
REMARK  status: ('A' for Active; 'I' for Inactive)
REMARK    1  A    between atoms: C_4  and  C_5 
REMARK    2  A    between atoms: C_5  and  N_6 
REMARK    3  A    between atoms: C_10  and  C_11 
REMARK    4  A    between atoms: C_11  and  N_12 
REMARK       I    between atoms: N_12  and  C_13 
REMARK    5  A    between atoms: C_13  and  C_14 
REMARK    6  A    between atoms: C_14  and  C_15 
REMARK    7  A    between atoms: C_15  and  C_16 
REMARK       I    between atoms: C_16  and  N_17 
REMARK    8  A    between atoms: N_17  and  C_18 
REMARK    9  A    between atoms: C_24  and  N_25 
ROOT
HETATM    1  C   UNL     1     -41.340  58.241 -50.817  1.00  0.00     0.112 C 
ENDROOT
BRANCH   1   2
HETATM    2  C   UNL     1     -40.823  56.829 -50.562  1.00  0.00     0.112 C 
BRANCH   2   3
HETATM    3  C   UNL     1     -41.709  55.751 -51.138  1.00  0.00     0.218 C 
HETATM    4  N   UNL     1     -41.078  54.858 -51.980  1.00  0.00    -0.361 N 
HETATM    5  H   UNL     1     -40.066  54.897 -52.030  1.00  0.00     0.162 HD
HETATM    6  O   UNL     1     -42.902  55.662 -50.856  1.00  0.00    -0.274 OA
BRANCH   4   7
HETATM    7  C   UNL     1     -41.711  53.612 -52.369  1.00  0.00     0.127 C 
BRANCH   7   8
HETATM    8  C   UNL     1     -41.332  53.119 -53.782  1.00  0.00     0.006 C 
HETATM    9  C   UNL     1     -40.166  53.877 -54.431  1.00  0.00     0.034 C 
HETATM   10  C   UNL     1     -40.516  55.319 -54.779  1.00  0.00     0.235 C 
HETATM   11  N   UNL     1     -41.709  55.325 -55.713  1.00  0.00    -0.067 N 
HETATM   12  H   UNL     1     -41.424  54.825 -56.563  1.00  0.00     0.280 HD
HETATM   13  C   UNL     1     -42.907  54.624 -55.128  1.00  0.00     0.235 C 
HETATM   14  C   UNL     1     -42.542  53.195 -54.730  1.00  0.00     0.034 C 
BRANCH  11  15
HETATM   15  C   UNL     1     -42.075  56.729 -56.167  1.00  0.00     0.273 C 
BRANCH  15  16
HETATM   16  C   UNL     1     -42.482  56.808 -57.613  1.00  0.00    -0.032 A 
HETATM   17  C   UNL     1     -42.125  57.917 -58.399  1.00  0.00     0.015 A 
HETATM   18  C   UNL     1     -42.546  58.015 -59.732  1.00  0.00    -0.061 A 
HETATM   19  C   UNL     1     -42.143  59.183 -60.584  1.00  0.00     0.048 C 
HETATM   20  C   UNL     1     -43.305  56.979 -60.286  1.00  0.00     0.007 A 
HETATM   21  C   UNL     1     -43.656  55.871 -59.518  1.00  0.00     0.001 A 
HETATM   22  C   UNL     1     -43.250  55.785 -58.188  1.00  0.00     0.009 A 
ENDBRANCH  15  16
ENDBRANCH  11  15
ENDBRANCH   7   8
ENDBRANCH   4   7
ENDBRANCH   2   3
ENDBRANCH   1   2
BRANCH   1  23
HETATM   23  C   UNL     1     -41.736  58.410 -52.276  1.00  0.00     0.222 C 
HETATM   24  N   UNL     1     -43.109  58.380 -52.469  1.00  0.00    -0.327 N 
HETATM   25  H   UNL     1     -43.677  58.159 -51.659  1.00  0.00     0.169 HD
HETATM   26  O   UNL     1     -40.895  58.536 -53.161  1.00  0.00    -0.273 OA
BRANCH  24  27
HETATM   27  C   UNL     1     -43.791  58.523 -53.699  1.00  0.00     0.035 A 
HETATM   28  C   UNL     1     -43.514  59.531 -54.632  1.00  0.00     0.043 A 
HETATM   29  C   UNL     1     -44.201  59.624 -55.867  1.00  0.00    -0.001 A 
HETATM   30  C   UNL     1     -45.190  58.658 -56.145  1.00  0.00     0.044 A 
HETATM   31  C   UNL     1     -43.951  60.618 -56.844  1.00  0.00    -0.046 A 
HETATM   32  N   UNL     1     -45.839  58.699 -57.318  1.00  0.00    -0.346 N 
HETATM   33  C   UNL     1     -45.488  57.659 -55.208  1.00  0.00     0.033 A 
HETATM   34  H   UNL     1     -46.505  57.974 -57.557  1.00  0.00     0.167 HD
HETATM   35  C   UNL     1     -45.636  59.614 -58.273  1.00  0.00     0.083 A 
HETATM   36  C   UNL     1     -44.675  60.597 -58.044  1.00  0.00     0.050 A 
HETATM   37  C   UNL     1     -44.798  57.600 -53.991  1.00  0.00     0.032 A 
HETATM   38  C   UNL     1     -42.914  61.693 -56.638  1.00  0.00     0.049 C 
BRANCH  35  39
HETATM   39  N   UNL     1     -46.376  59.446 -59.433  1.00  0.00    -0.269 NA
HETATM   40  C   UNL     1     -47.404  60.471 -59.719  1.00  0.00     0.097 C 
HETATM   41  C   UNL     1     -47.868  60.340 -61.169  1.00  0.00     0.015 C 
HETATM   42  C   UNL     1     -48.372  58.930 -61.464  1.00  0.00     0.002 C 
HETATM   43  C   UNL     1     -47.328  57.888 -61.074  1.00  0.00     0.015 C 
HETATM   44  C   UNL     1     -46.876  58.067 -59.624  1.00  0.00     0.097 C 
ENDBRANCH  35  39
ENDBRANCH  24  27
ENDBRANCH   1  23
TORSDOF 9
ENDMDL
MODEL 10
REMARK VINA RESULT:      -8.3      2.654      8.665
REMARK  9 active torsions:
REMARK  status: ('A' for Active; 'I' for Inactive)
REMARK    1  A    between atoms: C_4  and  C_5 
REMARK    2  A    between atoms: C_5  and  N_6 
REMARK    3  A    between atoms: C_10  and  C_11 
REMARK    4  A    between atoms: C_11  and  N_12 
REMARK       I    between atoms: N_12  and  C_13 
REMARK    5  A    between atoms: C_13  and  C_14 
REMARK    6  A    between atoms: C_14  and  C_15 
REMARK    7  A    between atoms: C_15  and  C_16 
REMARK       I    between atoms: C_16  and  N_17 
REMARK    8  A    between atoms: N_17  and  C_18 
REMARK    9  A    between atoms: C_24  and  N_25 
ROOT
HETATM    1  C   UNL     1     -41.040  53.099 -53.376  1.00  0.00     0.112 C 
ENDROOT
BRANCH   1   2
HETATM    2  C   UNL     1     -41.927  53.676 -52.278  1.00  0.00     0.112 C 
BRANCH   2   3
HETATM    3  C   UNL     1     -41.231  54.708 -51.423  1.00  0.00     0.218 C 
HETATM    4  N   UNL     1     -41.733  55.989 -51.523  1.00  0.00    -0.361 N 
HETATM    5  H   UNL     1     -42.601  56.114 -52.031  1.00  0.00     0.162 HD
HETATM    6  O   UNL     1     -40.301  54.419 -50.674  1.00  0.00    -0.274 OA
BRANCH   4   7
HETATM    7  C   UNL     1     -41.377  57.015 -50.560  1.00  0.00     0.127 C 
BRANCH   7   8
HETATM    8  C   UNL     1     -40.453  58.119 -51.118  1.00  0.00     0.006 C 
HETATM    9  C   UNL     1     -40.589  59.479 -50.420  1.00  0.00     0.034 C 
HETATM   10  C   UNL     1     -41.932  60.150 -50.686  1.00  0.00     0.235 C 
HETATM   11  N   UNL     1     -42.108  60.325 -52.181  1.00  0.00    -0.067 N 
HETATM   12  H   UNL     1     -41.347  60.936 -52.500  1.00  0.00     0.280 HD
HETATM   13  C   UNL     1     -42.018  59.023 -52.932  1.00  0.00     0.235 C 
HETATM   14  C   UNL     1     -40.695  58.325 -52.624  1.00  0.00     0.034 C 
BRANCH  11  15
HETATM   15  C   UNL     1     -43.395  61.058 -52.525  1.00  0.00     0.273 C 
BRANCH  15  16
HETATM   16  C   UNL     1     -43.867  60.818 -53.933  1.00  0.00    -0.032 A 
HETATM   17  C   UNL     1     -43.246  61.461 -55.017  1.00  0.00     0.015 A 
HETATM   18  C   UNL     1     -43.717  61.277 -56.324  1.00  0.00    -0.061 A 
HETATM   19  C   UNL     1     -43.039  61.939 -57.489  1.00  0.00     0.048 C 
HETATM   20  C   UNL     1     -44.799  60.419 -56.545  1.00  0.00     0.007 A 
HETATM   21  C   UNL     1     -45.415  59.768 -55.479  1.00  0.00     0.001 A 
HETATM   22  C   UNL     1     -44.955  59.968 -54.178  1.00  0.00     0.009 A 
ENDBRANCH  15  16
ENDBRANCH  11  15
ENDBRANCH   7   8
ENDBRANCH   4   7
ENDBRANCH   2   3
ENDBRANCH   1   2
BRANCH   1  23
HETATM   23  C   UNL     1     -40.950  54.060 -54.553  1.00  0.00     0.222 C 
HETATM   24  N   UNL     1     -42.182  54.577 -54.922  1.00  0.00    -0.327 N 
HETATM   25  H   UNL     1     -42.995  54.199 -54.448  1.00  0.00     0.169 HD
HETATM   26  O   UNL     1     -39.881  54.306 -55.102  1.00  0.00    -0.273 OA
BRANCH  24  27
HETATM   27  C   UNL     1     -42.431  55.501 -55.963  1.00  0.00     0.035 A 
HETATM   28  C   UNL     1     -43.053  55.164 -57.173  1.00  0.00     0.043 A 
HETATM   29  C   UNL     1     -43.310  56.123 -58.181  1.00  0.00    -0.001 A 
HETATM   30  C   UNL     1     -42.920  57.456 -57.937  1.00  0.00     0.044 A 
HETATM   31  C   UNL     1     -43.942  55.833 -59.414  1.00  0.00    -0.046 A 
HETATM   32  N   UNL     1     -43.175  58.396 -58.858  1.00  0.00    -0.346 N 
HETATM   33  C   UNL     1     -42.279  57.798 -56.739  1.00  0.00     0.033 A 
HETATM   34  H   UNL     1     -42.959  59.368 -58.668  1.00  0.00     0.167 HD
HETATM   35  C   UNL     1     -43.773  58.173 -60.035  1.00  0.00     0.083 A 
HETATM   36  C   UNL     1     -44.170  56.870 -60.329  1.00  0.00     0.050 A 
HETATM   37  C   UNL     1     -42.029  56.824 -55.765  1.00  0.00     0.032 A 
HETATM   38  C   UNL     1     -44.395  54.438 -59.767  1.00  0.00     0.049 C 
BRANCH  35  39
HETATM   39  N   UNL     1     -43.989  59.293 -60.821  1.00  0.00    -0.269 NA
HETATM   40  C   UNL     1     -42.788  60.027 -61.276  1.00  0.00     0.097 C 
HETATM   41  C   UNL     1     -43.172  60.995 -62.395  1.00  0.00     0.015 C 
HETATM   42  C   UNL     1     -44.283  61.942 -61.951  1.00  0.00     0.002 C 
HETATM   43  C   UNL     1     -45.473  61.161 -61.400  1.00  0.00     0.015 C 
HETATM   44  C   UNL     1     -45.042  60.191 -60.299  1.00  0.00     0.097 C 
ENDBRANCH  35  39
ENDBRANCH  24  27
ENDBRANCH   1  23
TORSDOF 9
ENDMDL
