MODEL 1
REMARK VINA RESULT:      -8.9      0.000      0.000
REMARK  5 active torsions:
REMARK  status: ('A' for Active; 'I' for Inactive)
REMARK    1  A    between atoms: C_4  and  N_5 
REMARK    2  A    between atoms: C_9  and  C_10 
REMARK    3  A    between atoms: C_13  and  O_14 
REMARK    4  A    between atoms: C_17  and  C_18 
REMARK       I    between atoms: C_18  and  N_19 
REMARK    5  A    between atoms: N_19  and  C_20 
ROOT
HETATM    1  N   UNL     1     -42.889  57.896 -53.096  1.00  0.00    -0.292 N 
HETATM    2  C   UNL     1     -41.529  57.834 -52.721  1.00  0.00     0.179 C 
HETATM    3  S   UNL     1     -40.807  58.408 -51.314  1.00  0.00    -0.040 SA
HETATM    4  N   UNL     1     -40.677  57.237 -53.610  1.00  0.00    -0.354 N 
HETATM    5  C   UNL     1     -41.082  56.278 -54.614  1.00  0.00     0.158 C 
HETATM    6  C   UNL     1     -42.494  56.546 -55.032  1.00  0.00     0.060 C 
HETATM    7  C   UNL     1     -43.349  57.295 -54.295  1.00  0.00     0.030 C 
HETATM    8  C   UNL     1     -44.794  57.529 -54.697  1.00  0.00     0.070 C 
HETATM    9  H   UNL     1     -39.727  57.150 -53.270  1.00  0.00     0.163 HD
ENDROOT
BRANCH   6  10
HETATM   10  C   UNL     1     -42.864  55.890 -56.325  1.00  0.00     0.257 C 
HETATM   11  N   UNL     1     -42.716  56.707 -57.424  1.00  0.00    -0.306 N 
HETATM   12  H   UNL     1     -42.351  57.640 -57.307  1.00  0.00     0.170 HD
HETATM   13  O   UNL     1     -43.221  54.720 -56.324  1.00  0.00    -0.267 OA
BRANCH  11  14
HETATM   14  C   UNL     1     -43.233  56.400 -58.672  1.00  0.00     0.160 A 
HETATM   15  N   UNL     1     -42.535  55.949 -59.718  1.00  0.00    -0.110 NA
HETATM   16  O   UNL     1     -43.449  55.688 -60.716  1.00  0.00    -0.216 OA
HETATM   17  C   UNL     1     -44.697  55.975 -60.270  1.00  0.00     0.078 A 
HETATM   18  C   UNL     1     -45.801  55.689 -61.202  1.00  0.00     0.079 C 
HETATM   19  C   UNL     1     -44.612  56.466 -58.991  1.00  0.00     0.087 A 
ENDBRANCH  11  14
ENDBRANCH   6  10
BRANCH   5  20
HETATM   20  C   UNL     1     -40.779  54.872 -54.118  1.00  0.00    -0.031 A 
HETATM   21  C   UNL     1     -41.034  54.479 -52.793  1.00  0.00     0.012 A 
HETATM   22  C   UNL     1     -40.732  53.185 -52.360  1.00  0.00     0.037 A 
HETATM   23  C   UNL     1     -40.161  52.280 -53.247  1.00  0.00     0.065 A 
HETATM   24  C   UNL     1     -39.887  52.647 -54.557  1.00  0.00     0.037 A 
HETATM   25  C   UNL     1     -40.193  53.939 -54.992  1.00  0.00     0.012 A 
BRANCH  23  26
HETATM   26  O   UNL     1     -39.854  51.008 -52.867  1.00  0.00    -0.361 OA
HETATM   27  H   UNL     1     -39.519  51.034 -51.956  1.00  0.00     0.217 HD
ENDBRANCH  23  26
ENDBRANCH   5  20
BRANCH   1  28
HETATM   28  C   UNL     1     -43.772  58.710 -52.299  1.00  0.00     0.048 A 
HETATM   29  C   UNL     1     -43.825  60.090 -52.577  1.00  0.00     0.037 A 
HETATM   30  C   UNL     1     -44.647  60.948 -51.837  1.00  0.00    -0.060 A 
HETATM   31  C   UNL     1     -44.656  62.420 -52.128  1.00  0.00     0.048 C 
HETATM   32  C   UNL     1     -45.469  60.406 -50.850  1.00  0.00     0.007 A 
HETATM   33  C   UNL     1     -45.427  59.040 -50.566  1.00  0.00     0.009 A 
HETATM   34  C   UNL     1     -44.563  58.178 -51.263  1.00  0.00    -0.035 A 
HETATM   35  C   UNL     1     -44.526  56.736 -50.840  1.00  0.00     0.050 C 
ENDBRANCH   1  28
TORSDOF 5
ENDMDL
MODEL 2
REMARK VINA RESULT:      -8.4      2.899      6.432
REMARK  5 active torsions:
REMARK  status: ('A' for Active; 'I' for Inactive)
REMARK    1  A    between atoms: C_4  and  N_5 
REMARK    2  A    between atoms: C_9  and  C_10 
REMARK    3  A    between atoms: C_13  and  O_14 
REMARK    4  A    between atoms: C_17  and  C_18 
REMARK       I    between atoms: C_18  and  N_19 
REMARK    5  A    between atoms: N_19  and  C_20 
ROOT
HETATM    1  N   UNL     1     -41.944  54.891 -53.035  1.00  0.00    -0.292 N 
HETATM    2  C   UNL     1     -43.220  54.929 -52.429  1.00  0.00     0.179 C 
HETATM    3  S   UNL     1     -43.821  53.948 -51.202  1.00  0.00    -0.040 SA
HETATM    4  N   UNL     1     -44.089  55.877 -52.896  1.00  0.00    -0.354 N 
HETATM    5  C   UNL     1     -43.690  57.095 -53.564  1.00  0.00     0.158 C 
HETATM    6  C   UNL     1     -42.398  56.878 -54.289  1.00  0.00     0.060 C 
HETATM    7  C   UNL     1     -41.568  55.843 -54.016  1.00  0.00     0.030 C 
HETATM    8  C   UNL     1     -40.238  55.649 -54.720  1.00  0.00     0.070 C 
HETATM    9  H   UNL     1     -44.963  55.915 -52.385  1.00  0.00     0.163 HD
ENDROOT
BRANCH   6  10
HETATM   10  C   UNL     1     -42.115  57.922 -55.322  1.00  0.00     0.257 C 
HETATM   11  N   UNL     1     -42.680  57.656 -56.550  1.00  0.00    -0.306 N 
HETATM   12  H   UNL     1     -43.253  56.835 -56.669  1.00  0.00     0.170 HD
HETATM   13  O   UNL     1     -41.464  58.911 -55.013  1.00  0.00    -0.267 OA
BRANCH  11  14
HETATM   14  C   UNL     1     -42.343  58.344 -57.705  1.00  0.00     0.160 A 
HETATM   15  N   UNL     1     -42.004  57.791 -58.873  1.00  0.00    -0.110 NA
HETATM   16  O   UNL     1     -41.842  58.829 -59.765  1.00  0.00    -0.216 OA
HETATM   17  C   UNL     1     -42.090  60.005 -59.138  1.00  0.00     0.078 A 
HETATM   18  C   UNL     1     -42.021  61.215 -59.974  1.00  0.00     0.079 C 
HETATM   19  C   UNL     1     -42.376  59.756 -57.818  1.00  0.00     0.087 A 
ENDBRANCH  11  14
ENDBRANCH   6  10
BRANCH   5  20
HETATM   20  C   UNL     1     -43.721  58.247 -52.570  1.00  0.00    -0.031 A 
HETATM   21  C   UNL     1     -42.613  58.570 -51.770  1.00  0.00     0.012 A 
HETATM   22  C   UNL     1     -42.674  59.624 -50.854  1.00  0.00     0.037 A 
HETATM   23  C   UNL     1     -43.850  60.354 -50.726  1.00  0.00     0.065 A 
HETATM   24  C   UNL     1     -44.964  60.047 -51.495  1.00  0.00     0.037 A 
HETATM   25  C   UNL     1     -44.902  58.997 -52.414  1.00  0.00     0.012 A 
BRANCH  23  26
HETATM   26  O   UNL     1     -43.952  61.392 -49.847  1.00  0.00    -0.361 OA
HETATM   27  H   UNL     1     -43.208  61.995 -50.000  1.00  0.00     0.217 HD
ENDBRANCH  23  26
ENDBRANCH   5  20
BRANCH   1  28
HETATM   28  C   UNL     1     -41.087  53.771 -52.734  1.00  0.00     0.048 A 
HETATM   29  C   UNL     1     -41.021  52.722 -53.671  1.00  0.00     0.037 A 
HETATM   30  C   UNL     1     -40.223  51.595 -53.443  1.00  0.00    -0.060 A 
HETATM   31  C   UNL     1     -40.200  50.474 -54.439  1.00  0.00     0.048 C 
HETATM   32  C   UNL     1     -39.436  51.550 -52.292  1.00  0.00     0.007 A 
HETATM   33  C   UNL     1     -39.492  52.585 -51.356  1.00  0.00     0.009 A 
HETATM   34  C   UNL     1     -40.334  53.694 -51.548  1.00  0.00    -0.035 A 
HETATM   35  C   UNL     1     -40.389  54.723 -50.453  1.00  0.00     0.050 C 
ENDBRANCH   1  28
TORSDOF 5
ENDMDL
MODEL 3
REMARK VINA RESULT:      -8.1      2.695      6.742
REMARK  5 active torsions:
REMARK  status: ('A' for Active; 'I' for Inactive)
REMARK    1  A    between atoms: C_4  and  N_5 
REMARK    2  A    between atoms: C_9  and  C_10 
REMARK    3  A    between atoms: C_13  and  O_14 
REMARK    4  A    between atoms: C_17  and  C_18 
REMARK       I    between atoms: C_18  and  N_19 
REMARK    5  A    between atoms: N_19  and  C_20 
ROOT
HETATM    1  N   UNL     1     -43.007  58.301 -56.652  1.00  0.00    -0.292 N 
HETATM    2  C   UNL     1     -42.567  59.381 -55.854  1.00  0.00     0.179 C 
HETATM    3  S   UNL     1     -42.686  61.028 -56.170  1.00  0.00    -0.040 SA
HETATM    4  N   UNL     1     -41.960  59.057 -54.671  1.00  0.00    -0.354 N 
HETATM    5  C   UNL     1     -42.154  57.810 -53.966  1.00  0.00     0.158 C 
HETATM    6  C   UNL     1     -42.469  56.718 -54.940  1.00  0.00     0.060 C 
HETATM    7  C   UNL     1     -42.893  56.961 -56.204  1.00  0.00     0.030 C 
HETATM    8  C   UNL     1     -43.256  55.854 -57.176  1.00  0.00     0.070 C 
HETATM    9  H   UNL     1     -41.726  59.860 -54.100  1.00  0.00     0.163 HD
ENDROOT
BRANCH   6  10
HETATM   10  C   UNL     1     -42.286  55.346 -54.373  1.00  0.00     0.257 C 
HETATM   11  N   UNL     1     -40.996  55.079 -53.969  1.00  0.00    -0.306 N 
HETATM   12  H   UNL     1     -40.292  55.797 -54.041  1.00  0.00     0.170 HD
HETATM   13  O   UNL     1     -43.254  54.603 -54.277  1.00  0.00    -0.267 OA
BRANCH  11  14
HETATM   14  C   UNL     1     -40.548  53.806 -53.656  1.00  0.00     0.160 A 
HETATM   15  N   UNL     1     -40.342  53.331 -52.425  1.00  0.00    -0.110 NA
HETATM   16  O   UNL     1     -39.993  52.005 -52.569  1.00  0.00    -0.216 OA
HETATM   17  C   UNL     1     -39.995  51.680 -53.886  1.00  0.00     0.078 A 
HETATM   18  C   UNL     1     -39.703  50.273 -54.208  1.00  0.00     0.079 C 
HETATM   19  C   UNL     1     -40.305  52.797 -54.621  1.00  0.00     0.087 A 
ENDBRANCH  11  14
ENDBRANCH   6  10
BRANCH   5  20
HETATM   20  C   UNL     1     -43.155  58.020 -52.840  1.00  0.00    -0.031 A 
HETATM   21  C   UNL     1     -43.513  56.985 -51.960  1.00  0.00     0.012 A 
HETATM   22  C   UNL     1     -44.448  57.201 -50.943  1.00  0.00     0.037 A 
HETATM   23  C   UNL     1     -45.037  58.453 -50.807  1.00  0.00     0.065 A 
HETATM   24  C   UNL     1     -44.711  59.488 -51.672  1.00  0.00     0.037 A 
HETATM   25  C   UNL     1     -43.774  59.274 -52.685  1.00  0.00     0.012 A 
BRANCH  23  26
HETATM   26  O   UNL     1     -45.951  58.708 -49.828  1.00  0.00    -0.361 OA
HETATM   27  H   UNL     1     -46.809  58.879 -50.248  1.00  0.00     0.217 HD
ENDBRANCH  23  26
ENDBRANCH   5  20
BRANCH   1  28
HETATM   28  C   UNL     1     -43.442  58.590 -57.996  1.00  0.00     0.048 A 
HETATM   29  C   UNL     1     -42.454  58.815 -58.974  1.00  0.00     0.037 A 
HETATM   30  C   UNL     1     -42.797  59.116 -60.297  1.00  0.00    -0.060 A 
HETATM   31  C   UNL     1     -41.726  59.390 -61.310  1.00  0.00     0.048 C 
HETATM   32  C   UNL     1     -44.145  59.129 -60.655  1.00  0.00     0.007 A 
HETATM   33  C   UNL     1     -45.134  58.905 -59.695  1.00  0.00     0.009 A 
HETATM   34  C   UNL     1     -44.802  58.660 -58.352  1.00  0.00    -0.035 A 
HETATM   35  C   UNL     1     -45.931  58.507 -57.371  1.00  0.00     0.050 C 
ENDBRANCH   1  28
TORSDOF 5
ENDMDL
MODEL 4
REMARK VINA RESULT:      -7.7      4.228      9.097
REMARK  5 active torsions:
REMARK  status: ('A' for Active; 'I' for Inactive)
REMARK    1  A    between atoms: C_4  and  N_5 
REMARK    2  A    between atoms: C_9  and  C_10 
REMARK    3  A    between atoms: C_13  and  O_14 
REMARK    4  A    between atoms: C_17  and  C_18 
REMARK       I    between atoms: C_18  and  N_19 
REMARK    5  A    between atoms: N_19  and  C_20 
ROOT
HETATM    1  N   UNL     1     -42.620  57.825 -52.008  1.00  0.00    -0.292 N 
HETATM    2  C   UNL     1     -41.587  58.742 -52.306  1.00  0.00     0.179 C 
HETATM    3  S   UNL     1     -40.187  58.481 -53.201  1.00  0.00    -0.040 SA
HETATM    4  N   UNL     1     -41.730  60.006 -51.803  1.00  0.00    -0.354 N 
HETATM    5  C   UNL     1     -42.995  60.603 -51.437  1.00  0.00     0.158 C 
HETATM    6  C   UNL     1     -43.952  59.538 -51.001  1.00  0.00     0.060 C 
HETATM    7  C   UNL     1     -43.777  58.228 -51.295  1.00  0.00     0.030 C 
HETATM    8  C   UNL     1     -44.771  57.154 -50.891  1.00  0.00     0.070 C 
HETATM    9  H   UNL     1     -41.005  60.647 -52.101  1.00  0.00     0.163 HD
ENDROOT
BRANCH   6  10
HETATM   10  C   UNL     1     -45.120  60.069 -50.230  1.00  0.00     0.257 C 
HETATM   11  N   UNL     1     -44.771  60.681 -49.046  1.00  0.00    -0.306 N 
HETATM   12  H   UNL     1     -43.799  60.766 -48.795  1.00  0.00     0.170 HD
HETATM   13  O   UNL     1     -46.245  59.962 -50.697  1.00  0.00    -0.267 OA
BRANCH  11  14
HETATM   14  C   UNL     1     -45.692  61.014 -48.065  1.00  0.00     0.160 A 
HETATM   15  N   UNL     1     -46.391  60.149 -47.325  1.00  0.00    -0.110 NA
HETATM   16  O   UNL     1     -47.109  60.900 -46.418  1.00  0.00    -0.216 OA
HETATM   17  C   UNL     1     -46.836  62.215 -46.607  1.00  0.00     0.078 A 
HETATM   18  C   UNL     1     -47.479  63.153 -45.671  1.00  0.00     0.079 C 
HETATM   19  C   UNL     1     -45.971  62.344 -47.665  1.00  0.00     0.087 A 
ENDBRANCH  11  14
ENDBRANCH   6  10
BRANCH   5  20
HETATM   20  C   UNL     1     -43.465  61.515 -52.560  1.00  0.00    -0.031 A 
HETATM   21  C   UNL     1     -43.977  61.008 -53.766  1.00  0.00     0.012 A 
HETATM   22  C   UNL     1     -44.387  61.869 -54.788  1.00  0.00     0.037 A 
HETATM   23  C   UNL     1     -44.277  63.244 -54.612  1.00  0.00     0.065 A 
HETATM   24  C   UNL     1     -43.762  63.770 -53.436  1.00  0.00     0.037 A 
HETATM   25  C   UNL     1     -43.356  62.910 -52.413  1.00  0.00     0.012 A 
BRANCH  23  26
HETATM   26  O   UNL     1     -44.668  64.119 -55.582  1.00  0.00    -0.361 OA
HETATM   27  H   UNL     1     -43.896  64.643 -55.850  1.00  0.00     0.217 HD
ENDBRANCH  23  26
ENDBRANCH   5  20
BRANCH   1  28
HETATM   28  C   UNL     1     -42.399  56.436 -52.324  1.00  0.00     0.048 A 
HETATM   29  C   UNL     1     -42.862  55.961 -53.566  1.00  0.00     0.037 A 
HETATM   30  C   UNL     1     -42.698  54.622 -53.939  1.00  0.00    -0.060 A 
HETATM   31  C   UNL     1     -43.236  54.134 -55.251  1.00  0.00     0.048 C 
HETATM   32  C   UNL     1     -42.007  53.766 -53.082  1.00  0.00     0.007 A 
HETATM   33  C   UNL     1     -41.541  54.225 -51.848  1.00  0.00     0.009 A 
HETATM   34  C   UNL     1     -41.752  55.553 -51.440  1.00  0.00    -0.035 A 
HETATM   35  C   UNL     1     -41.285  55.941 -50.064  1.00  0.00     0.050 C 
ENDBRANCH   1  28
TORSDOF 5
ENDMDL
MODEL 5
REMARK VINA RESULT:      -7.7      2.912      7.503
REMARK  5 active torsions:
REMARK  status: ('A' for Active; 'I' for Inactive)
REMARK    1  A    between atoms: C_4  and  N_5 
REMARK    2  A    between atoms: C_9  and  C_10 
REMARK    3  A    between atoms: C_13  and  O_14 
REMARK    4  A    between atoms: C_17  and  C_18 
REMARK       I    between atoms: C_18  and  N_19 
REMARK    5  A    between atoms: N_19  and  C_20 
ROOT
HETATM    1  N   UNL     1     -42.950  57.901 -55.486  1.00  0.00    -0.292 N 
HETATM    2  C   UNL     1     -42.343  59.146 -55.209  1.00  0.00     0.179 C 
HETATM    3  S   UNL     1     -42.319  60.531 -56.163  1.00  0.00    -0.040 SA
HETATM    4  N   UNL     1     -41.682  59.250 -54.015  1.00  0.00    -0.354 N 
HETATM    5  C   UNL     1     -41.946  58.425 -52.859  1.00  0.00     0.158 C 
HETATM    6  C   UNL     1     -42.444  57.082 -53.295  1.00  0.00     0.060 C 
HETATM    7  C   UNL     1     -42.938  56.849 -54.535  1.00  0.00     0.030 C 
HETATM    8  C   UNL     1     -43.484  55.500 -54.963  1.00  0.00     0.070 C 
HETATM    9  H   UNL     1     -41.325  60.179 -53.827  1.00  0.00     0.163 HD
ENDROOT
BRANCH   6  10
HETATM   10  C   UNL     1     -42.357  56.040 -52.225  1.00  0.00     0.257 C 
HETATM   11  N   UNL     1     -41.072  55.621 -51.961  1.00  0.00    -0.306 N 
HETATM   12  H   UNL     1     -40.299  56.043 -52.451  1.00  0.00     0.170 HD
HETATM   13  O   UNL     1     -43.379  55.675 -51.660  1.00  0.00    -0.267 OA
BRANCH  11  14
HETATM   14  C   UNL     1     -40.781  54.499 -51.202  1.00  0.00     0.160 A 
HETATM   15  N   UNL     1     -40.812  54.428 -49.868  1.00  0.00    -0.110 NA
HETATM   16  O   UNL     1     -40.550  53.115 -49.539  1.00  0.00    -0.216 OA
HETATM   17  C   UNL     1     -40.369  52.394 -50.674  1.00  0.00     0.078 A 
HETATM   18  C   UNL     1     -40.141  50.950 -50.497  1.00  0.00     0.079 C 
HETATM   19  C   UNL     1     -40.468  53.233 -51.756  1.00  0.00     0.087 A 
ENDBRANCH  11  14
ENDBRANCH   6  10
BRANCH   5  20
HETATM   20  C   UNL     1     -42.831  59.189 -51.886  1.00  0.00    -0.031 A 
HETATM   21  C   UNL     1     -44.224  59.015 -51.852  1.00  0.00     0.012 A 
HETATM   22  C   UNL     1     -45.015  59.742 -50.958  1.00  0.00     0.037 A 
HETATM   23  C   UNL     1     -44.417  60.657 -50.099  1.00  0.00     0.065 A 
HETATM   24  C   UNL     1     -43.044  60.858 -50.122  1.00  0.00     0.037 A 
HETATM   25  C   UNL     1     -42.252  60.128 -51.012  1.00  0.00     0.012 A 
BRANCH  23  26
HETATM   26  O   UNL     1     -45.150  61.385 -49.211  1.00  0.00    -0.361 OA
HETATM   27  H   UNL     1     -44.563  62.031 -48.787  1.00  0.00     0.217 HD
ENDBRANCH  23  26
ENDBRANCH   5  20
BRANCH   1  28
HETATM   28  C   UNL     1     -43.456  57.680 -56.818  1.00  0.00     0.048 A 
HETATM   29  C   UNL     1     -42.551  57.237 -57.801  1.00  0.00     0.037 A 
HETATM   30  C   UNL     1     -42.963  57.014 -59.120  1.00  0.00    -0.060 A 
HETATM   31  C   UNL     1     -41.970  56.580 -60.157  1.00  0.00     0.048 C 
HETATM   32  C   UNL     1     -44.311  57.177 -59.439  1.00  0.00     0.007 A 
HETATM   33  C   UNL     1     -45.219  57.613 -58.472  1.00  0.00     0.009 A 
HETATM   34  C   UNL     1     -44.804  57.896 -57.160  1.00  0.00    -0.035 A 
HETATM   35  C   UNL     1     -45.833  58.434 -56.205  1.00  0.00     0.050 C 
ENDBRANCH   1  28
TORSDOF 5
ENDMDL
MODEL 6
REMARK VINA RESULT:      -7.6      1.793      2.684
REMARK  5 active torsions:
REMARK  status: ('A' for Active; 'I' for Inactive)
REMARK    1  A    between atoms: C_4  and  N_5 
REMARK    2  A    between atoms: C_9  and  C_10 
REMARK    3  A    between atoms: C_13  and  O_14 
REMARK    4  A    between atoms: C_17  and  C_18 
REMARK       I    between atoms: C_18  and  N_19 
REMARK    5  A    between atoms: N_19  and  C_20 
ROOT
HETATM    1  N   UNL     1     -42.818  59.525 -51.899  1.00  0.00    -0.292 N 
HETATM    2  C   UNL     1     -41.447  59.303 -51.639  1.00  0.00     0.179 C 
HETATM    3  S   UNL     1     -40.491  59.983 -50.434  1.00  0.00    -0.040 SA
HETATM    4  N   UNL     1     -40.802  58.430 -52.472  1.00  0.00    -0.354 N 
HETATM    5  C   UNL     1     -41.456  57.394 -53.238  1.00  0.00     0.158 C 
HETATM    6  C   UNL     1     -42.853  57.816 -53.574  1.00  0.00     0.060 C 
HETATM    7  C   UNL     1     -43.497  58.811 -52.919  1.00  0.00     0.030 C 
HETATM    8  C   UNL     1     -44.929  59.208 -53.230  1.00  0.00     0.070 C 
HETATM    9  H   UNL     1     -39.842  58.247 -52.205  1.00  0.00     0.163 HD
ENDROOT
BRANCH   6  10
HETATM   10  C   UNL     1     -43.463  57.018 -54.684  1.00  0.00     0.257 C 
HETATM   11  N   UNL     1     -43.002  57.365 -55.935  1.00  0.00    -0.306 N 
HETATM   12  H   UNL     1     -42.290  58.073 -56.026  1.00  0.00     0.170 HD
HETATM   13  O   UNL     1     -44.262  56.132 -54.416  1.00  0.00    -0.267 OA
BRANCH  11  14
HETATM   14  C   UNL     1     -43.605  56.943 -57.109  1.00  0.00     0.160 A 
HETATM   15  N   UNL     1     -44.569  57.591 -57.769  1.00  0.00    -0.110 NA
HETATM   16  O   UNL     1     -44.807  56.871 -58.920  1.00  0.00    -0.216 OA
HETATM   17  C   UNL     1     -43.982  55.795 -58.957  1.00  0.00     0.078 A 
HETATM   18  C   UNL     1     -44.067  54.953 -60.162  1.00  0.00     0.079 C 
HETATM   19  C   UNL     1     -43.225  55.773 -57.812  1.00  0.00     0.087 A 
ENDBRANCH  11  14
ENDBRANCH   6  10
BRANCH   5  20
HETATM   20  C   UNL     1     -41.308  56.064 -52.515  1.00  0.00    -0.031 A 
HETATM   21  C   UNL     1     -41.559  55.932 -51.139  1.00  0.00     0.012 A 
HETATM   22  C   UNL     1     -41.400  54.701 -50.497  1.00  0.00     0.037 A 
HETATM   23  C   UNL     1     -40.977  53.596 -51.226  1.00  0.00     0.065 A 
HETATM   24  C   UNL     1     -40.708  53.702 -52.584  1.00  0.00     0.037 A 
HETATM   25  C   UNL     1     -40.872  54.931 -53.227  1.00  0.00     0.012 A 
BRANCH  23  26
HETATM   26  O   UNL     1     -40.811  52.376 -50.640  1.00  0.00    -0.361 OA
HETATM   27  H   UNL     1     -40.055  51.936 -51.059  1.00  0.00     0.217 HD
ENDBRANCH  23  26
ENDBRANCH   5  20
BRANCH   1  28
HETATM   28  C   UNL     1     -43.473  60.598 -51.195  1.00  0.00     0.048 A 
HETATM   29  C   UNL     1     -44.074  60.303 -49.956  1.00  0.00     0.037 A 
HETATM   30  C   UNL     1     -44.740  61.288 -49.219  1.00  0.00    -0.060 A 
HETATM   31  C   UNL     1     -45.406  60.939 -47.921  1.00  0.00     0.048 C 
HETATM   32  C   UNL     1     -44.750  62.597 -49.702  1.00  0.00     0.007 A 
HETATM   33  C   UNL     1     -44.156  62.903 -50.927  1.00  0.00     0.009 A 
HETATM   34  C   UNL     1     -43.534  61.909 -51.703  1.00  0.00    -0.035 A 
HETATM   35  C   UNL     1     -42.989  62.312 -53.045  1.00  0.00     0.050 C 
ENDBRANCH   1  28
TORSDOF 5
ENDMDL
MODEL 7
REMARK VINA RESULT:      -7.4      3.840      6.907
REMARK  5 active torsions:
REMARK  status: ('A' for Active; 'I' for Inactive)
REMARK    1  A    between atoms: C_4  and  N_5 
REMARK    2  A    between atoms: C_9  and  C_10 
REMARK    3  A    between atoms: C_13  and  O_14 
REMARK    4  A    between atoms: C_17  and  C_18 
REMARK       I    between atoms: C_18  and  N_19 
REMARK    5  A    between atoms: N_19  and  C_20 
ROOT
HETATM    1  N   UNL     1     -43.560  59.128 -56.640  1.00  0.00    -0.292 N 
HETATM    2  C   UNL     1     -43.890  57.875 -57.204  1.00  0.00     0.179 C 
HETATM    3  S   UNL     1     -43.799  57.399 -58.815  1.00  0.00    -0.040 SA
HETATM    4  N   UNL     1     -44.349  56.919 -56.339  1.00  0.00    -0.354 N 
HETATM    5  C   UNL     1     -44.078  56.902 -54.920  1.00  0.00     0.158 C 
HETATM    6  C   UNL     1     -43.893  58.301 -54.420  1.00  0.00     0.060 C 
HETATM    7  C   UNL     1     -43.627  59.345 -55.241  1.00  0.00     0.030 C 
HETATM    8  C   UNL     1     -43.395  60.755 -54.729  1.00  0.00     0.070 C 
HETATM    9  H   UNL     1     -44.504  56.018 -56.774  1.00  0.00     0.163 HD
ENDROOT
BRANCH   6  10
HETATM   10  C   UNL     1     -44.015  58.421 -52.933  1.00  0.00     0.257 C 
HETATM   11  N   UNL     1     -45.235  58.902 -52.512  1.00  0.00    -0.306 N 
HETATM   12  H   UNL     1     -45.954  59.102 -53.191  1.00  0.00     0.170 HD
HETATM   13  O   UNL     1     -43.082  58.067 -52.225  1.00  0.00    -0.267 OA
BRANCH  11  14
HETATM   14  C   UNL     1     -45.476  59.330 -51.217  1.00  0.00     0.160 A 
HETATM   15  N   UNL     1     -46.139  58.647 -50.279  1.00  0.00    -0.110 NA
HETATM   16  O   UNL     1     -46.062  59.393 -49.123  1.00  0.00    -0.216 OA
HETATM   17  C   UNL     1     -45.347  60.520 -49.361  1.00  0.00     0.078 A 
HETATM   18  C   UNL     1     -45.118  61.401 -48.204  1.00  0.00     0.079 C 
HETATM   19  C   UNL     1     -44.983  60.547 -50.685  1.00  0.00     0.087 A 
ENDBRANCH  11  14
ENDBRANCH   6  10
BRANCH   5  20
HETATM   20  C   UNL     1     -42.944  55.928 -54.636  1.00  0.00    -0.031 A 
HETATM   21  C   UNL     1     -41.606  56.236 -54.934  1.00  0.00     0.012 A 
HETATM   22  C   UNL     1     -40.586  55.316 -54.676  1.00  0.00     0.037 A 
HETATM   23  C   UNL     1     -40.900  54.077 -54.129  1.00  0.00     0.065 A 
HETATM   24  C   UNL     1     -42.215  53.743 -53.839  1.00  0.00     0.037 A 
HETATM   25  C   UNL     1     -43.235  54.664 -54.091  1.00  0.00     0.012 A 
BRANCH  23  26
HETATM   26  O   UNL     1     -39.936  53.152 -53.860  1.00  0.00    -0.361 OA
HETATM   27  H   UNL     1     -40.222  52.298 -54.221  1.00  0.00     0.217 HD
ENDBRANCH  23  26
ENDBRANCH   5  20
BRANCH   1  28
HETATM   28  C   UNL     1     -43.291  60.222 -57.540  1.00  0.00     0.048 A 
HETATM   29  C   UNL     1     -41.947  60.577 -57.761  1.00  0.00     0.037 A 
HETATM   30  C   UNL     1     -41.606  61.637 -58.610  1.00  0.00    -0.060 A 
HETATM   31  C   UNL     1     -40.169  62.021 -58.797  1.00  0.00     0.048 C 
HETATM   32  C   UNL     1     -42.623  62.306 -59.291  1.00  0.00     0.007 A 
HETATM   33  C   UNL     1     -43.960  61.961 -59.082  1.00  0.00     0.009 A 
HETATM   34  C   UNL     1     -44.316  60.937 -58.188  1.00  0.00    -0.035 A 
HETATM   35  C   UNL     1     -45.781  60.684 -57.965  1.00  0.00     0.050 C 
ENDBRANCH   1  28
TORSDOF 5
ENDMDL
MODEL 8
REMARK VINA RESULT:      -7.4      3.213      7.335
REMARK  5 active torsions:
REMARK  status: ('A' for Active; 'I' for Inactive)
REMARK    1  A    between atoms: C_4  and  N_5 
REMARK    2  A    between atoms: C_9  and  C_10 
REMARK    3  A    between atoms: C_13  and  O_14 
REMARK    4  A    between atoms: C_17  and  C_18 
REMARK       I    between atoms: C_18  and  N_19 
REMARK    5  A    between atoms: N_19  and  C_20 
ROOT
HETATM    1  N   UNL     1     -43.031  58.793 -56.387  1.00  0.00    -0.292 N 
HETATM    2  C   UNL     1     -42.515  60.059 -56.029  1.00  0.00     0.179 C 
HETATM    3  S   UNL     1     -42.871  61.559 -56.700  1.00  0.00    -0.040 SA
HETATM    4  N   UNL     1     -41.602  60.078 -55.010  1.00  0.00    -0.354 N 
HETATM    5  C   UNL     1     -41.490  59.058 -53.992  1.00  0.00     0.158 C 
HETATM    6  C   UNL     1     -41.929  57.738 -54.544  1.00  0.00     0.060 C 
HETATM    7  C   UNL     1     -42.677  57.624 -55.668  1.00  0.00     0.030 C 
HETATM    8  C   UNL     1     -43.160  56.289 -56.202  1.00  0.00     0.070 C 
HETATM    9  H   UNL     1     -41.314  61.011 -54.739  1.00  0.00     0.163 HD
ENDROOT
BRANCH   6  10
HETATM   10  C   UNL     1     -41.475  56.571 -53.725  1.00  0.00     0.257 C 
HETATM   11  N   UNL     1     -42.341  56.237 -52.707  1.00  0.00    -0.306 N 
HETATM   12  H   UNL     1     -43.205  56.746 -52.599  1.00  0.00     0.170 HD
HETATM   13  O   UNL     1     -40.435  55.999 -54.021  1.00  0.00    -0.267 OA
BRANCH  11  14
HETATM   14  C   UNL     1     -42.007  55.367 -51.682  1.00  0.00     0.160 A 
HETATM   15  N   UNL     1     -42.068  54.034 -51.737  1.00  0.00    -0.110 NA
HETATM   16  O   UNL     1     -41.560  53.568 -50.543  1.00  0.00    -0.216 OA
HETATM   17  C   UNL     1     -41.186  54.620 -49.773  1.00  0.00     0.078 A 
HETATM   18  C   UNL     1     -40.561  54.289 -48.481  1.00  0.00     0.079 C 
HETATM   19  C   UNL     1     -41.483  55.786 -50.434  1.00  0.00     0.087 A 
ENDBRANCH  11  14
ENDBRANCH   6  10
BRANCH   5  20
HETATM   20  C   UNL     1     -42.193  59.529 -52.728  1.00  0.00    -0.031 A 
HETATM   21  C   UNL     1     -43.578  59.763 -52.689  1.00  0.00     0.012 A 
HETATM   22  C   UNL     1     -44.196  60.211 -51.518  1.00  0.00     0.037 A 
HETATM   23  C   UNL     1     -43.429  60.437 -50.381  1.00  0.00     0.065 A 
HETATM   24  C   UNL     1     -42.057  60.227 -50.396  1.00  0.00     0.037 A 
HETATM   25  C   UNL     1     -41.440  59.775 -51.565  1.00  0.00     0.012 A 
BRANCH  23  26
HETATM   26  O   UNL     1     -43.992  60.870 -49.217  1.00  0.00    -0.361 OA
HETATM   27  H   UNL     1     -44.878  60.482 -49.144  1.00  0.00     0.217 HD
ENDBRANCH  23  26
ENDBRANCH   5  20
BRANCH   1  28
HETATM   28  C   UNL     1     -43.815  58.703 -57.594  1.00  0.00     0.048 A 
HETATM   29  C   UNL     1     -45.212  58.842 -57.483  1.00  0.00     0.037 A 
HETATM   30  C   UNL     1     -46.042  58.753 -58.606  1.00  0.00    -0.060 A 
HETATM   31  C   UNL     1     -47.530  58.866 -58.456  1.00  0.00     0.048 C 
HETATM   32  C   UNL     1     -45.458  58.583 -59.862  1.00  0.00     0.007 A 
HETATM   33  C   UNL     1     -44.074  58.446 -59.985  1.00  0.00     0.009 A 
HETATM   34  C   UNL     1     -43.237  58.477 -58.857  1.00  0.00    -0.035 A 
HETATM   35  C   UNL     1     -41.767  58.243 -59.073  1.00  0.00     0.050 C 
ENDBRANCH   1  28
TORSDOF 5
ENDMDL
MODEL 9
REMARK VINA RESULT:      -7.3     16.592     19.389
REMARK  5 active torsions:
REMARK  status: ('A' for Active; 'I' for Inactive)
REMARK    1  A    between atoms: C_4  and  N_5 
REMARK    2  A    between atoms: C_9  and  C_10 
REMARK    3  A    between atoms: C_13  and  O_14 
REMARK    4  A    between atoms: C_17  and  C_18 
REMARK       I    between atoms: C_18  and  N_19 
REMARK    5  A    between atoms: N_19  and  C_20 
ROOT
HETATM    1  N   UNL     1     -36.708  40.768 -54.836  1.00  0.00    -0.292 N 
HETATM    2  C   UNL     1     -37.937  41.137 -54.244  1.00  0.00     0.179 C 
HETATM    3  S   UNL     1     -39.477  41.079 -54.916  1.00  0.00    -0.040 SA
HETATM    4  N   UNL     1     -37.878  41.608 -52.961  1.00  0.00    -0.354 N 
HETATM    5  C   UNL     1     -36.811  41.319 -52.030  1.00  0.00     0.158 C 
HETATM    6  C   UNL     1     -35.533  41.092 -52.777  1.00  0.00     0.060 C 
HETATM    7  C   UNL     1     -35.496  40.810 -54.101  1.00  0.00     0.030 C 
HETATM    8  C   UNL     1     -34.204  40.537 -54.848  1.00  0.00     0.070 C 
HETATM    9  H   UNL     1     -38.787  41.792 -52.553  1.00  0.00     0.163 HD
ENDROOT
BRANCH   6  10
HETATM   10  C   UNL     1     -34.316  41.191 -51.912  1.00  0.00     0.257 C 
HETATM   11  N   UNL     1     -33.740  39.973 -51.623  1.00  0.00    -0.306 N 
HETATM   12  H   UNL     1     -34.128  39.131 -52.019  1.00  0.00     0.170 HD
HETATM   13  O   UNL     1     -33.913  42.293 -51.568  1.00  0.00    -0.267 OA
BRANCH  11  14
HETATM   14  C   UNL     1     -32.770  39.806 -50.648  1.00  0.00     0.160 A 
HETATM   15  N   UNL     1     -31.475  40.107 -50.773  1.00  0.00    -0.110 NA
HETATM   16  O   UNL     1     -30.897  39.873 -49.544  1.00  0.00    -0.216 OA
HETATM   17  C   UNL     1     -31.845  39.437 -48.677  1.00  0.00     0.078 A 
HETATM   18  C   UNL     1     -31.400  39.200 -47.293  1.00  0.00     0.079 C 
HETATM   19  C   UNL     1     -33.044  39.341 -49.337  1.00  0.00     0.087 A 
ENDBRANCH  11  14
ENDBRANCH   6  10
BRANCH   5  20
HETATM   20  C   UNL     1     -37.250  40.206 -51.090  1.00  0.00    -0.031 A 
HETATM   21  C   UNL     1     -38.218  39.257 -51.462  1.00  0.00     0.012 A 
HETATM   22  C   UNL     1     -38.614  38.254 -50.572  1.00  0.00     0.037 A 
HETATM   23  C   UNL     1     -38.053  38.202 -49.301  1.00  0.00     0.065 A 
HETATM   24  C   UNL     1     -37.106  39.136 -48.905  1.00  0.00     0.037 A 
HETATM   25  C   UNL     1     -36.705  40.135 -49.795  1.00  0.00     0.012 A 
BRANCH  23  26
HETATM   26  O   UNL     1     -38.409  37.239 -48.405  1.00  0.00    -0.361 OA
HETATM   27  H   UNL     1     -38.170  36.374 -48.774  1.00  0.00     0.217 HD
ENDBRANCH  23  26
ENDBRANCH   5  20
BRANCH   1  28
HETATM   28  C   UNL     1     -36.699  40.484 -56.249  1.00  0.00     0.048 A 
HETATM   29  C   UNL     1     -36.866  41.563 -57.138  1.00  0.00     0.037 A 
HETATM   30  C   UNL     1     -36.882  41.367 -58.524  1.00  0.00    -0.060 A 
HETATM   31  C   UNL     1     -37.101  42.528 -59.447  1.00  0.00     0.048 C 
HETATM   32  C   UNL     1     -36.667  40.082 -59.023  1.00  0.00     0.007 A 
HETATM   33  C   UNL     1     -36.498  39.004 -58.152  1.00  0.00     0.009 A 
HETATM   34  C   UNL     1     -36.538  39.182 -56.758  1.00  0.00    -0.035 A 
HETATM   35  C   UNL     1     -36.425  37.955 -55.896  1.00  0.00     0.050 C 
ENDBRANCH   1  28
TORSDOF 5
ENDMDL
MODEL 10
REMARK VINA RESULT:      -7.2      3.916      6.142
REMARK  5 active torsions:
REMARK  status: ('A' for Active; 'I' for Inactive)
REMARK    1  A    between atoms: C_4  and  N_5 
REMARK    2  A    between atoms: C_9  and  C_10 
REMARK    3  A    between atoms: C_13  and  O_14 
REMARK    4  A    between atoms: C_17  and  C_18 
REMARK       I    between atoms: C_18  and  N_19 
REMARK    5  A    between atoms: N_19  and  C_20 
ROOT
HETATM    1  N   UNL     1     -42.380  58.134 -55.352  1.00  0.00    -0.292 N 
HETATM    2  C   UNL     1     -42.230  56.834 -55.886  1.00  0.00     0.179 C 
HETATM    3  S   UNL     1     -42.168  55.369 -55.063  1.00  0.00    -0.040 SA
HETATM    4  N   UNL     1     -42.114  56.743 -57.246  1.00  0.00    -0.354 N 
HETATM    5  C   UNL     1     -42.596  57.738 -58.177  1.00  0.00     0.158 C 
HETATM    6  C   UNL     1     -42.566  59.091 -57.537  1.00  0.00     0.060 C 
HETATM    7  C   UNL     1     -42.485  59.268 -56.197  1.00  0.00     0.030 C 
HETATM    8  C   UNL     1     -42.499  60.638 -55.546  1.00  0.00     0.070 C 
HETATM    9  H   UNL     1     -42.081  55.791 -57.590  1.00  0.00     0.163 HD
ENDROOT
BRANCH   6  10
HETATM   10  C   UNL     1     -42.651  60.215 -58.521  1.00  0.00     0.257 C 
HETATM   11  N   UNL     1     -41.557  60.310 -59.353  1.00  0.00    -0.306 N 
HETATM   12  H   UNL     1     -40.816  59.631 -59.281  1.00  0.00     0.170 HD
HETATM   13  O   UNL     1     -43.653  60.917 -58.544  1.00  0.00    -0.267 OA
BRANCH  11  14
HETATM   14  C   UNL     1     -41.309  61.411 -60.156  1.00  0.00     0.160 A 
HETATM   15  N   UNL     1     -41.823  61.624 -61.371  1.00  0.00    -0.110 NA
HETATM   16  O   UNL     1     -41.391  62.872 -61.766  1.00  0.00    -0.216 OA
HETATM   17  C   UNL     1     -40.623  63.413 -60.787  1.00  0.00     0.078 A 
HETATM   18  C   UNL     1     -40.131  64.780 -61.028  1.00  0.00     0.079 C 
HETATM   19  C   UNL     1     -40.509  62.511 -59.759  1.00  0.00     0.087 A 
ENDBRANCH  11  14
ENDBRANCH   6  10
BRANCH   5  20
HETATM   20  C   UNL     1     -43.935  57.289 -58.744  1.00  0.00    -0.031 A 
HETATM   21  C   UNL     1     -45.151  57.841 -58.307  1.00  0.00     0.012 A 
HETATM   22  C   UNL     1     -46.368  57.399 -58.834  1.00  0.00     0.037 A 
HETATM   23  C   UNL     1     -46.375  56.393 -59.794  1.00  0.00     0.065 A 
HETATM   24  C   UNL     1     -45.189  55.822 -60.232  1.00  0.00     0.037 A 
HETATM   25  C   UNL     1     -43.972  56.266 -59.710  1.00  0.00     0.012 A 
BRANCH  23  26
HETATM   26  O   UNL     1     -47.539  55.934 -60.336  1.00  0.00    -0.361 OA
HETATM   27  H   UNL     1     -47.779  56.513 -61.077  1.00  0.00     0.217 HD
ENDBRANCH  23  26
ENDBRANCH   5  20
BRANCH   1  28
HETATM   28  C   UNL     1     -42.278  58.291 -53.923  1.00  0.00     0.048 A 
HETATM   29  C   UNL     1     -41.014  58.597 -53.383  1.00  0.00     0.037 A 
HETATM   30  C   UNL     1     -40.832  58.750 -52.004  1.00  0.00    -0.060 A 
HETATM   31  C   UNL     1     -39.467  59.037 -51.450  1.00  0.00     0.048 C 
HETATM   32  C   UNL     1     -41.942  58.658 -51.164  1.00  0.00     0.007 A 
HETATM   33  C   UNL     1     -43.201  58.357 -51.688  1.00  0.00     0.009 A 
HETATM   34  C   UNL     1     -43.384  58.144 -53.065  1.00  0.00    -0.035 A 
HETATM   35  C   UNL     1     -44.757  57.749 -53.533  1.00  0.00     0.050 C 
ENDBRANCH   1  28
TORSDOF 5
ENDMDL
