MODEL 1
REMARK VINA RESULT:      -7.1      0.000      0.000
REMARK  10 active torsions:
REMARK  status: ('A' for Active; 'I' for Inactive)
REMARK    1  A    between atoms: C_2  and  O_3 
REMARK    2  A    between atoms: O_3  and  C_4 
REMARK    3  A    between atoms: C_4  and  O_5 
REMARK    4  A    between atoms: C_4  and  C_8 
REMARK    5  A    between atoms: C_4  and  C_14 
REMARK    6  A    between atoms: O_5  and  C_6 
REMARK    7  A    between atoms: C_14  and  N_15 
REMARK       I    between atoms: N_15  and  C_16 
REMARK    8  A    between atoms: C_16  and  C_17 
REMARK    9  A    between atoms: C_19  and  N_20 
REMARK       I    between atoms: N_20  and  C_21 
REMARK   10  A    between atoms: C_21  and  C_22 
ROOT
HETATM    1  N   UNL     1     -42.732  55.042 -55.425  1.00  0.00    -0.351 N 
HETATM    2  C   UNL     1     -43.349  56.177 -55.903  1.00  0.00     0.251 C 
HETATM    3  O   UNL     1     -44.146  56.841 -55.254  1.00  0.00    -0.268 OA
HETATM    4  H   UNL     1     -41.929  54.669 -55.920  1.00  0.00     0.162 HD
ENDROOT
BRANCH   2   5
HETATM    5  C   UNL     1     -42.970  56.578 -57.284  1.00  0.00     0.034 A 
HETATM    6  C   UNL     1     -42.350  57.814 -57.523  1.00  0.00     0.046 A 
HETATM    7  C   UNL     1     -42.012  58.202 -58.819  1.00  0.00     0.035 A 
HETATM    8  C   UNL     1     -42.279  57.323 -59.877  1.00  0.00     0.029 A 
HETATM    9  C   UNL     1     -42.867  56.077 -59.640  1.00  0.00     0.003 A 
HETATM   10  C   UNL     1     -43.211  55.701 -58.342  1.00  0.00     0.017 A 
BRANCH   7  11
HETATM   11  N   UNL     1     -41.419  59.442 -59.133  1.00  0.00    -0.322 N 
HETATM   12  C   UNL     1     -42.049  60.619 -59.511  1.00  0.00     0.263 C 
HETATM   13  O   UNL     1     -43.267  60.760 -59.578  1.00  0.00    -0.267 OA
HETATM   14  H   UNL     1     -40.408  59.486 -59.089  1.00  0.00     0.169 HD
BRANCH  12  15
HETATM   15  C   UNL     1     -41.148  61.725 -59.835  1.00  0.00     0.072 A 
HETATM   16  S   UNL     1     -41.137  62.493 -61.369  1.00  0.00    -0.097 SA
HETATM   17  C   UNL     1     -39.914  63.588 -60.892  1.00  0.00     0.050 A 
HETATM   18  C   UNL     1     -39.509  63.376 -59.594  1.00  0.00     0.009 A 
HETATM   19  C   UNL     1     -40.220  62.303 -58.985  1.00  0.00     0.025 A 
ENDBRANCH  12  15
ENDBRANCH   7  11
ENDBRANCH   2   5
BRANCH   1  20
HETATM   20  C   UNL     1     -43.061  54.486 -54.117  1.00  0.00     0.198 C 
BRANCH  20  21
HETATM   21  C   UNL     1     -41.906  54.480 -53.053  1.00  0.00     0.227 C 
BRANCH  21  22
HETATM   22  O   UNL     1     -42.385  54.695 -51.709  1.00  0.00    -0.349 OA
BRANCH  22  23
HETATM   23  C   UNL     1     -43.546  53.973 -51.317  1.00  0.00     0.167 C 
HETATM   24  C   UNL     1     -44.235  54.749 -50.210  1.00  0.00     0.033 C 
ENDBRANCH  22  23
ENDBRANCH  21  22
BRANCH  21  25
HETATM   25  O   UNL     1     -40.975  55.544 -53.380  1.00  0.00    -0.349 OA
BRANCH  25  26
HETATM   26  C   UNL     1     -41.135  56.733 -52.613  1.00  0.00     0.167 C 
HETATM   27  C   UNL     1     -41.128  57.910 -53.569  1.00  0.00     0.033 C 
ENDBRANCH  25  26
ENDBRANCH  21  25
BRANCH  21  28
HETATM   28  C   UNL     1     -41.036  53.200 -53.159  1.00  0.00     0.097 A 
HETATM   29  N   UNL     1     -41.110  52.442 -54.290  1.00  0.00    -0.260 NA
HETATM   30  C   UNL     1     -40.370  51.315 -54.358  1.00  0.00     0.117 A 
HETATM   31  C   UNL     1     -39.517  50.895 -53.355  1.00  0.00     0.019 A 
HETATM   32  C   UNL     1     -39.428  51.669 -52.208  1.00  0.00     0.004 A 
HETATM   33  C   UNL     1     -40.201  52.824 -52.099  1.00  0.00     0.033 A 
ENDBRANCH  21  28
ENDBRANCH  20  21
ENDBRANCH   1  20
TORSDOF 10
ENDMDL
MODEL 2
REMARK VINA RESULT:      -7.1      3.477      8.922
REMARK  10 active torsions:
REMARK  status: ('A' for Active; 'I' for Inactive)
REMARK    1  A    between atoms: C_2  and  O_3 
REMARK    2  A    between atoms: O_3  and  C_4 
REMARK    3  A    between atoms: C_4  and  O_5 
REMARK    4  A    between atoms: C_4  and  C_8 
REMARK    5  A    between atoms: C_4  and  C_14 
REMARK    6  A    between atoms: O_5  and  C_6 
REMARK    7  A    between atoms: C_14  and  N_15 
REMARK       I    between atoms: N_15  and  C_16 
REMARK    8  A    between atoms: C_16  and  C_17 
REMARK    9  A    between atoms: C_19  and  N_20 
REMARK       I    between atoms: N_20  and  C_21 
REMARK   10  A    between atoms: C_21  and  C_22 
ROOT
HETATM    1  N   UNL     1     -45.212  57.432 -56.098  1.00  0.00    -0.351 N 
HETATM    2  C   UNL     1     -45.096  58.242 -54.991  1.00  0.00     0.251 C 
HETATM    3  O   UNL     1     -45.415  59.423 -54.977  1.00  0.00    -0.268 OA
HETATM    4  H   UNL     1     -45.142  56.426 -55.985  1.00  0.00     0.162 HD
ENDROOT
BRANCH   2   5
HETATM    5  C   UNL     1     -44.567  57.582 -53.767  1.00  0.00     0.034 A 
HETATM    6  C   UNL     1     -43.708  56.478 -53.867  1.00  0.00     0.046 A 
HETATM    7  C   UNL     1     -43.226  55.844 -52.722  1.00  0.00     0.035 A 
HETATM    8  C   UNL     1     -43.596  56.347 -51.468  1.00  0.00     0.029 A 
HETATM    9  C   UNL     1     -44.426  57.467 -51.363  1.00  0.00     0.003 A 
HETATM   10  C   UNL     1     -44.911  58.089 -52.513  1.00  0.00     0.017 A 
BRANCH   7  11
HETATM   11  N   UNL     1     -42.388  54.711 -52.752  1.00  0.00    -0.322 N 
HETATM   12  C   UNL     1     -41.131  54.592 -53.326  1.00  0.00     0.263 C 
HETATM   13  O   UNL     1     -40.528  55.515 -53.868  1.00  0.00    -0.267 OA
HETATM   14  H   UNL     1     -42.744  53.871 -52.310  1.00  0.00     0.169 HD
BRANCH  12  15
HETATM   15  C   UNL     1     -40.539  53.256 -53.246  1.00  0.00     0.072 A 
HETATM   16  S   UNL     1     -40.004  52.565 -51.771  1.00  0.00    -0.097 SA
HETATM   17  C   UNL     1     -39.532  51.113 -52.539  1.00  0.00     0.050 A 
HETATM   18  C   UNL     1     -39.765  51.147 -53.895  1.00  0.00     0.009 A 
HETATM   19  C   UNL     1     -40.346  52.382 -54.302  1.00  0.00     0.025 A 
ENDBRANCH  12  15
ENDBRANCH   7  11
ENDBRANCH   2   5
BRANCH   1  20
HETATM   20  C   UNL     1     -45.645  57.958 -57.389  1.00  0.00     0.198 C 
BRANCH  20  21
HETATM   21  C   UNL     1     -44.700  57.674 -58.609  1.00  0.00     0.227 C 
BRANCH  21  22
HETATM   22  O   UNL     1     -45.419  57.533 -59.851  1.00  0.00    -0.349 OA
BRANCH  22  23
HETATM   23  C   UNL     1     -46.819  57.296 -59.759  1.00  0.00     0.167 C 
HETATM   24  C   UNL     1     -47.237  56.458 -60.952  1.00  0.00     0.033 C 
ENDBRANCH  22  23
ENDBRANCH  21  22
BRANCH  21  25
HETATM   25  O   UNL     1     -43.983  56.437 -58.355  1.00  0.00    -0.349 OA
BRANCH  25  26
HETATM   26  C   UNL     1     -43.578  55.732 -59.524  1.00  0.00     0.167 C 
HETATM   27  C   UNL     1     -44.341  54.421 -59.566  1.00  0.00     0.033 C 
ENDBRANCH  25  26
ENDBRANCH  21  25
BRANCH  21  28
HETATM   28  C   UNL     1     -43.566  58.727 -58.714  1.00  0.00     0.097 A 
HETATM   29  N   UNL     1     -42.810  58.997 -57.611  1.00  0.00    -0.260 NA
HETATM   30  C   UNL     1     -41.846  59.937 -57.707  1.00  0.00     0.117 A 
HETATM   31  C   UNL     1     -41.560  60.627 -58.870  1.00  0.00     0.019 A 
HETATM   32  C   UNL     1     -42.317  60.348 -59.998  1.00  0.00     0.004 A 
HETATM   33  C   UNL     1     -43.336  59.400 -59.921  1.00  0.00     0.033 A 
ENDBRANCH  21  28
ENDBRANCH  20  21
ENDBRANCH   1  20
TORSDOF 10
ENDMDL
MODEL 3
REMARK VINA RESULT:      -7.0      3.387      9.197
REMARK  10 active torsions:
REMARK  status: ('A' for Active; 'I' for Inactive)
REMARK    1  A    between atoms: C_2  and  O_3 
REMARK    2  A    between atoms: O_3  and  C_4 
REMARK    3  A    between atoms: C_4  and  O_5 
REMARK    4  A    between atoms: C_4  and  C_8 
REMARK    5  A    between atoms: C_4  and  C_14 
REMARK    6  A    between atoms: O_5  and  C_6 
REMARK    7  A    between atoms: C_14  and  N_15 
REMARK       I    between atoms: N_15  and  C_16 
REMARK    8  A    between atoms: C_16  and  C_17 
REMARK    9  A    between atoms: C_19  and  N_20 
REMARK       I    between atoms: N_20  and  C_21 
REMARK   10  A    between atoms: C_21  and  C_22 
ROOT
HETATM    1  N   UNL     1     -42.260  58.840 -55.352  1.00  0.00    -0.351 N 
HETATM    2  C   UNL     1     -41.628  58.720 -54.134  1.00  0.00     0.251 C 
HETATM    3  O   UNL     1     -40.794  59.513 -53.720  1.00  0.00    -0.268 OA
HETATM    4  H   UNL     1     -43.088  58.284 -55.537  1.00  0.00     0.162 HD
ENDROOT
BRANCH   2   5
HETATM    5  C   UNL     1     -42.040  57.551 -53.311  1.00  0.00     0.034 A 
HETATM    6  C   UNL     1     -41.486  56.284 -53.545  1.00  0.00     0.046 A 
HETATM    7  C   UNL     1     -41.885  55.182 -52.789  1.00  0.00     0.035 A 
HETATM    8  C   UNL     1     -42.832  55.369 -51.774  1.00  0.00     0.029 A 
HETATM    9  C   UNL     1     -43.364  56.635 -51.516  1.00  0.00     0.003 A 
HETATM   10  C   UNL     1     -42.966  57.730 -52.283  1.00  0.00     0.017 A 
BRANCH   7  11
HETATM   11  N   UNL     1     -41.393  53.876 -52.994  1.00  0.00    -0.322 N 
HETATM   12  C   UNL     1     -40.407  53.212 -52.280  1.00  0.00     0.263 C 
HETATM   13  O   UNL     1     -39.836  53.675 -51.295  1.00  0.00    -0.267 OA
HETATM   14  H   UNL     1     -41.798  53.354 -53.762  1.00  0.00     0.169 HD
BRANCH  12  15
HETATM   15  C   UNL     1     -40.071  51.880 -52.782  1.00  0.00     0.072 A 
HETATM   16  S   UNL     1     -39.568  50.601 -51.756  1.00  0.00    -0.097 SA
HETATM   17  C   UNL     1     -39.434  49.509 -53.064  1.00  0.00     0.050 A 
HETATM   18  C   UNL     1     -39.755  50.099 -54.264  1.00  0.00     0.009 A 
HETATM   19  C   UNL     1     -40.123  51.465 -54.102  1.00  0.00     0.025 A 
ENDBRANCH  12  15
ENDBRANCH   7  11
ENDBRANCH   2   5
BRANCH   1  20
HETATM   20  C   UNL     1     -41.905  59.893 -56.297  1.00  0.00     0.198 C 
BRANCH  20  21
HETATM   21  C   UNL     1     -42.689  59.902 -57.657  1.00  0.00     0.227 C 
BRANCH  21  22
HETATM   22  O   UNL     1     -42.202  60.902 -58.575  1.00  0.00    -0.349 OA
BRANCH  22  23
HETATM   23  C   UNL     1     -40.971  61.532 -58.244  1.00  0.00     0.167 C 
HETATM   24  C   UNL     1     -40.569  62.423 -59.404  1.00  0.00     0.033 C 
ENDBRANCH  22  23
ENDBRANCH  21  22
BRANCH  21  25
HETATM   25  O   UNL     1     -44.086  60.182 -57.378  1.00  0.00    -0.349 OA
BRANCH  25  26
HETATM   26  C   UNL     1     -44.700  61.100 -58.276  1.00  0.00     0.167 C 
HETATM   27  C   UNL     1     -45.782  60.356 -59.036  1.00  0.00     0.033 C 
ENDBRANCH  25  26
ENDBRANCH  21  25
BRANCH  21  28
HETATM   28  C   UNL     1     -42.730  58.492 -58.304  1.00  0.00     0.097 A 
HETATM   29  N   UNL     1     -43.426  57.499 -57.681  1.00  0.00    -0.260 NA
HETATM   30  C   UNL     1     -43.430  56.270 -58.239  1.00  0.00     0.117 A 
HETATM   31  C   UNL     1     -42.790  55.963 -59.425  1.00  0.00     0.019 A 
HETATM   32  C   UNL     1     -42.091  56.973 -60.069  1.00  0.00     0.004 A 
HETATM   33  C   UNL     1     -42.049  58.245 -59.502  1.00  0.00     0.033 A 
ENDBRANCH  21  28
ENDBRANCH  20  21
ENDBRANCH   1  20
TORSDOF 10
ENDMDL
MODEL 4
REMARK VINA RESULT:      -6.9      3.797      5.052
REMARK  10 active torsions:
REMARK  status: ('A' for Active; 'I' for Inactive)
REMARK    1  A    between atoms: C_2  and  O_3 
REMARK    2  A    between atoms: O_3  and  C_4 
REMARK    3  A    between atoms: C_4  and  O_5 
REMARK    4  A    between atoms: C_4  and  C_8 
REMARK    5  A    between atoms: C_4  and  C_14 
REMARK    6  A    between atoms: O_5  and  C_6 
REMARK    7  A    between atoms: C_14  and  N_15 
REMARK       I    between atoms: N_15  and  C_16 
REMARK    8  A    between atoms: C_16  and  C_17 
REMARK    9  A    between atoms: C_19  and  N_20 
REMARK       I    between atoms: N_20  and  C_21 
REMARK   10  A    between atoms: C_21  and  C_22 
ROOT
HETATM    1  N   UNL     1     -43.409  56.858 -52.169  1.00  0.00    -0.351 N 
HETATM    2  C   UNL     1     -44.485  57.717 -52.136  1.00  0.00     0.251 C 
HETATM    3  O   UNL     1     -45.133  57.955 -51.126  1.00  0.00    -0.268 OA
HETATM    4  H   UNL     1     -42.788  56.873 -52.970  1.00  0.00     0.162 HD
ENDROOT
BRANCH   2   5
HETATM    5  C   UNL     1     -44.817  58.377 -53.427  1.00  0.00     0.034 A 
HETATM    6  C   UNL     1     -44.967  57.620 -54.598  1.00  0.00     0.046 A 
HETATM    7  C   UNL     1     -45.258  58.238 -55.813  1.00  0.00     0.035 A 
HETATM    8  C   UNL     1     -45.423  59.628 -55.839  1.00  0.00     0.029 A 
HETATM    9  C   UNL     1     -45.305  60.384 -54.669  1.00  0.00     0.003 A 
HETATM   10  C   UNL     1     -45.005  59.760 -53.460  1.00  0.00     0.017 A 
BRANCH   7  11
HETATM   11  N   UNL     1     -45.389  57.540 -57.031  1.00  0.00    -0.322 N 
HETATM   12  C   UNL     1     -44.430  57.352 -58.016  1.00  0.00     0.263 C 
HETATM   13  O   UNL     1     -43.268  57.744 -57.933  1.00  0.00    -0.267 OA
HETATM   14  H   UNL     1     -46.295  57.130 -57.225  1.00  0.00     0.169 HD
BRANCH  12  15
HETATM   15  C   UNL     1     -44.895  56.634 -59.202  1.00  0.00     0.072 A 
HETATM   16  S   UNL     1     -43.960  55.424 -59.980  1.00  0.00    -0.097 SA
HETATM   17  C   UNL     1     -45.178  55.130 -61.143  1.00  0.00     0.050 A 
HETATM   18  C   UNL     1     -46.276  55.937 -60.957  1.00  0.00     0.009 A 
HETATM   19  C   UNL     1     -46.113  56.804 -59.838  1.00  0.00     0.025 A 
ENDBRANCH  12  15
ENDBRANCH   7  11
ENDBRANCH   2   5
BRANCH   1  20
HETATM   20  C   UNL     1     -43.013  56.082 -50.998  1.00  0.00     0.198 C 
BRANCH  20  21
HETATM   21  C   UNL     1     -41.574  55.457 -51.030  1.00  0.00     0.227 C 
BRANCH  21  22
HETATM   22  O   UNL     1     -41.381  54.449 -50.018  1.00  0.00    -0.349 OA
BRANCH  22  23
HETATM   23  C   UNL     1     -40.111  54.416 -49.378  1.00  0.00     0.167 C 
HETATM   24  C   UNL     1     -40.307  53.914 -47.960  1.00  0.00     0.033 C 
ENDBRANCH  22  23
ENDBRANCH  21  22
BRANCH  21  25
HETATM   25  O   UNL     1     -40.609  56.519 -50.805  1.00  0.00    -0.349 OA
BRANCH  25  26
HETATM   26  C   UNL     1     -41.171  57.752 -50.370  1.00  0.00     0.167 C 
HETATM   27  C   UNL     1     -40.238  58.868 -50.802  1.00  0.00     0.033 C 
ENDBRANCH  25  26
ENDBRANCH  21  25
BRANCH  21  28
HETATM   28  C   UNL     1     -41.207  54.935 -52.444  1.00  0.00     0.097 A 
HETATM   29  N   UNL     1     -40.922  55.836 -53.428  1.00  0.00    -0.260 NA
HETATM   30  C   UNL     1     -40.633  55.371 -54.662  1.00  0.00     0.117 A 
HETATM   31  C   UNL     1     -40.581  54.027 -54.982  1.00  0.00     0.019 A 
HETATM   32  C   UNL     1     -40.858  53.106 -53.983  1.00  0.00     0.004 A 
HETATM   33  C   UNL     1     -41.185  53.560 -52.706  1.00  0.00     0.033 A 
ENDBRANCH  21  28
ENDBRANCH  20  21
ENDBRANCH   1  20
TORSDOF 10
ENDMDL
MODEL 5
REMARK VINA RESULT:      -6.8      3.401      9.601
REMARK  10 active torsions:
REMARK  status: ('A' for Active; 'I' for Inactive)
REMARK    1  A    between atoms: C_2  and  O_3 
REMARK    2  A    between atoms: O_3  and  C_4 
REMARK    3  A    between atoms: C_4  and  O_5 
REMARK    4  A    between atoms: C_4  and  C_8 
REMARK    5  A    between atoms: C_4  and  C_14 
REMARK    6  A    between atoms: O_5  and  C_6 
REMARK    7  A    between atoms: C_14  and  N_15 
REMARK       I    between atoms: N_15  and  C_16 
REMARK    8  A    between atoms: C_16  and  C_17 
REMARK    9  A    between atoms: C_19  and  N_20 
REMARK       I    between atoms: N_20  and  C_21 
REMARK   10  A    between atoms: C_21  and  C_22 
ROOT
HETATM    1  N   UNL     1     -42.279  58.855 -55.263  1.00  0.00    -0.351 N 
HETATM    2  C   UNL     1     -41.568  58.806 -54.085  1.00  0.00     0.251 C 
HETATM    3  O   UNL     1     -40.743  59.647 -53.755  1.00  0.00    -0.268 OA
HETATM    4  H   UNL     1     -43.093  58.260 -55.374  1.00  0.00     0.162 HD
ENDROOT
BRANCH   2   5
HETATM    5  C   UNL     1     -41.878  57.654 -53.197  1.00  0.00     0.034 A 
HETATM    6  C   UNL     1     -41.399  56.371 -53.499  1.00  0.00     0.046 A 
HETATM    7  C   UNL     1     -41.704  55.285 -52.680  1.00  0.00     0.035 A 
HETATM    8  C   UNL     1     -42.478  55.504 -51.533  1.00  0.00     0.029 A 
HETATM    9  C   UNL     1     -42.931  56.786 -51.210  1.00  0.00     0.003 A 
HETATM   10  C   UNL     1     -42.629  57.865 -52.040  1.00  0.00     0.017 A 
BRANCH   7  11
HETATM   11  N   UNL     1     -41.284  53.966 -52.944  1.00  0.00    -0.322 N 
HETATM   12  C   UNL     1     -40.351  53.209 -52.249  1.00  0.00     0.263 C 
HETATM   13  O   UNL     1     -39.776  53.587 -51.232  1.00  0.00    -0.267 OA
HETATM   14  H   UNL     1     -41.702  53.508 -53.746  1.00  0.00     0.169 HD
BRANCH  12  15
HETATM   15  C   UNL     1     -40.083  51.887 -52.815  1.00  0.00     0.072 A 
HETATM   16  S   UNL     1     -39.528  50.569 -51.868  1.00  0.00    -0.097 SA
HETATM   17  C   UNL     1     -39.516  49.515 -53.215  1.00  0.00     0.050 A 
HETATM   18  C   UNL     1     -39.917  50.147 -54.369  1.00  0.00     0.009 A 
HETATM   19  C   UNL     1     -40.244  51.514 -54.138  1.00  0.00     0.025 A 
ENDBRANCH  12  15
ENDBRANCH   7  11
ENDBRANCH   2   5
BRANCH   1  20
HETATM   20  C   UNL     1     -42.029  59.885 -56.266  1.00  0.00     0.198 C 
BRANCH  20  21
HETATM   21  C   UNL     1     -42.430  59.531 -57.742  1.00  0.00     0.227 C 
BRANCH  21  22
HETATM   22  O   UNL     1     -43.854  59.377 -57.912  1.00  0.00    -0.349 OA
BRANCH  22  23
HETATM   23  C   UNL     1     -44.677  60.429 -57.424  1.00  0.00     0.167 C 
HETATM   24  C   UNL     1     -45.580  60.887 -58.555  1.00  0.00     0.033 C 
ENDBRANCH  22  23
ENDBRANCH  21  22
BRANCH  21  25
HETATM   25  O   UNL     1     -41.790  58.279 -58.103  1.00  0.00    -0.349 OA
BRANCH  25  26
HETATM   26  C   UNL     1     -42.684  57.249 -58.511  1.00  0.00     0.167 C 
HETATM   27  C   UNL     1     -42.286  56.812 -59.908  1.00  0.00     0.033 C 
ENDBRANCH  25  26
ENDBRANCH  21  25
BRANCH  21  28
HETATM   28  C   UNL     1     -41.833  60.542 -58.756  1.00  0.00     0.097 A 
HETATM   29  N   UNL     1     -42.164  60.430 -60.074  1.00  0.00    -0.260 NA
HETATM   30  C   UNL     1     -41.615  61.297 -60.951  1.00  0.00     0.117 A 
HETATM   31  C   UNL     1     -40.753  62.314 -60.587  1.00  0.00     0.019 A 
HETATM   32  C   UNL     1     -40.421  62.440 -59.246  1.00  0.00     0.004 A 
HETATM   33  C   UNL     1     -40.954  61.542 -58.322  1.00  0.00     0.033 A 
ENDBRANCH  21  28
ENDBRANCH  20  21
ENDBRANCH   1  20
TORSDOF 10
ENDMDL
MODEL 6
REMARK VINA RESULT:      -6.7      3.536      8.873
REMARK  10 active torsions:
REMARK  status: ('A' for Active; 'I' for Inactive)
REMARK    1  A    between atoms: C_2  and  O_3 
REMARK    2  A    between atoms: O_3  and  C_4 
REMARK    3  A    between atoms: C_4  and  O_5 
REMARK    4  A    between atoms: C_4  and  C_8 
REMARK    5  A    between atoms: C_4  and  C_14 
REMARK    6  A    between atoms: O_5  and  C_6 
REMARK    7  A    between atoms: C_14  and  N_15 
REMARK       I    between atoms: N_15  and  C_16 
REMARK    8  A    between atoms: C_16  and  C_17 
REMARK    9  A    between atoms: C_19  and  N_20 
REMARK       I    between atoms: N_20  and  C_21 
REMARK   10  A    between atoms: C_21  and  C_22 
ROOT
HETATM    1  N   UNL     1     -44.127  57.449 -55.406  1.00  0.00    -0.351 N 
HETATM    2  C   UNL     1     -44.258  57.866 -54.100  1.00  0.00     0.251 C 
HETATM    3  O   UNL     1     -45.109  58.661 -53.723  1.00  0.00    -0.268 OA
HETATM    4  H   UNL     1     -43.557  56.636 -55.610  1.00  0.00     0.162 HD
ENDROOT
BRANCH   2   5
HETATM    5  C   UNL     1     -43.296  57.267 -53.137  1.00  0.00     0.034 A 
HETATM    6  C   UNL     1     -42.785  55.978 -53.347  1.00  0.00     0.046 A 
HETATM    7  C   UNL     1     -41.898  55.406 -52.436  1.00  0.00     0.035 A 
HETATM    8  C   UNL     1     -41.508  56.153 -51.317  1.00  0.00     0.029 A 
HETATM    9  C   UNL     1     -41.990  57.450 -51.119  1.00  0.00     0.003 A 
HETATM   10  C   UNL     1     -42.883  58.011 -52.031  1.00  0.00     0.017 A 
BRANCH   7  11
HETATM   11  N   UNL     1     -41.374  54.104 -52.569  1.00  0.00    -0.322 N 
HETATM   12  C   UNL     1     -40.522  53.622 -53.553  1.00  0.00     0.263 C 
HETATM   13  O   UNL     1     -40.047  54.310 -54.453  1.00  0.00    -0.267 OA
HETATM   14  H   UNL     1     -41.657  53.427 -51.872  1.00  0.00     0.169 HD
BRANCH  12  15
HETATM   15  C   UNL     1     -40.208  52.197 -53.453  1.00  0.00     0.072 A 
HETATM   16  S   UNL     1     -39.572  51.485 -52.028  1.00  0.00    -0.097 SA
HETATM   17  C   UNL     1     -39.545  49.928 -52.733  1.00  0.00     0.050 A 
HETATM   18  C   UNL     1     -40.001  49.940 -54.031  1.00  0.00     0.009 A 
HETATM   19  C   UNL     1     -40.384  51.248 -54.445  1.00  0.00     0.025 A 
ENDBRANCH  12  15
ENDBRANCH   7  11
ENDBRANCH   2   5
BRANCH   1  20
HETATM   20  C   UNL     1     -44.951  58.006 -56.473  1.00  0.00     0.198 C 
BRANCH  20  21
HETATM   21  C   UNL     1     -44.261  58.165 -57.875  1.00  0.00     0.227 C 
BRANCH  21  22
HETATM   22  O   UNL     1     -42.843  58.409 -57.775  1.00  0.00    -0.349 OA
BRANCH  22  23
HETATM   23  C   UNL     1     -42.272  59.282 -58.741  1.00  0.00     0.167 C 
HETATM   24  C   UNL     1     -41.562  60.403 -58.005  1.00  0.00     0.033 C 
ENDBRANCH  22  23
ENDBRANCH  21  22
BRANCH  21  25
HETATM   25  O   UNL     1     -44.870  59.291 -58.560  1.00  0.00    -0.349 OA
BRANCH  25  26
HETATM   26  C   UNL     1     -45.741  60.078 -57.754  1.00  0.00     0.167 C 
HETATM   27  C   UNL     1     -47.047  60.246 -58.507  1.00  0.00     0.033 C 
ENDBRANCH  25  26
ENDBRANCH  21  25
BRANCH  21  28
HETATM   28  C   UNL     1     -44.578  56.967 -58.808  1.00  0.00     0.097 A 
HETATM   29  N   UNL     1     -45.702  57.008 -59.579  1.00  0.00    -0.260 NA
HETATM   30  C   UNL     1     -45.982  55.947 -60.365  1.00  0.00     0.117 A 
HETATM   31  C   UNL     1     -45.178  54.827 -60.456  1.00  0.00     0.019 A 
HETATM   32  C   UNL     1     -44.028  54.784 -59.684  1.00  0.00     0.004 A 
HETATM   33  C   UNL     1     -43.727  55.855 -58.844  1.00  0.00     0.033 A 
ENDBRANCH  21  28
ENDBRANCH  20  21
ENDBRANCH   1  20
TORSDOF 10
ENDMDL
MODEL 7
REMARK VINA RESULT:      -6.6      1.698      2.118
REMARK  10 active torsions:
REMARK  status: ('A' for Active; 'I' for Inactive)
REMARK    1  A    between atoms: C_2  and  O_3 
REMARK    2  A    between atoms: O_3  and  C_4 
REMARK    3  A    between atoms: C_4  and  O_5 
REMARK    4  A    between atoms: C_4  and  C_8 
REMARK    5  A    between atoms: C_4  and  C_14 
REMARK    6  A    between atoms: O_5  and  C_6 
REMARK    7  A    between atoms: C_14  and  N_15 
REMARK       I    between atoms: N_15  and  C_16 
REMARK    8  A    between atoms: C_16  and  C_17 
REMARK    9  A    between atoms: C_19  and  N_20 
REMARK       I    between atoms: N_20  and  C_21 
REMARK   10  A    between atoms: C_21  and  C_22 
ROOT
HETATM    1  N   UNL     1     -43.345  56.327 -54.754  1.00  0.00    -0.351 N 
HETATM    2  C   UNL     1     -43.164  55.399 -55.754  1.00  0.00     0.251 C 
HETATM    3  O   UNL     1     -43.171  54.190 -55.567  1.00  0.00    -0.268 OA
HETATM    4  H   UNL     1     -43.547  57.290 -55.002  1.00  0.00     0.162 HD
ENDROOT
BRANCH   2   5
HETATM    5  C   UNL     1     -42.973  55.957 -57.119  1.00  0.00     0.034 A 
HETATM    6  C   UNL     1     -42.375  57.214 -57.299  1.00  0.00     0.046 A 
HETATM    7  C   UNL     1     -42.213  57.749 -58.576  1.00  0.00     0.035 A 
HETATM    8  C   UNL     1     -42.635  56.997 -59.680  1.00  0.00     0.029 A 
HETATM    9  C   UNL     1     -43.202  55.731 -59.508  1.00  0.00     0.003 A 
HETATM   10  C   UNL     1     -43.369  55.207 -58.227  1.00  0.00     0.017 A 
BRANCH   7  11
HETATM   11  N   UNL     1     -41.653  59.018 -58.824  1.00  0.00    -0.322 N 
HETATM   12  C   UNL     1     -42.315  60.214 -59.065  1.00  0.00     0.263 C 
HETATM   13  O   UNL     1     -43.537  60.343 -59.044  1.00  0.00    -0.267 OA
HETATM   14  H   UNL     1     -40.641  59.073 -58.841  1.00  0.00     0.169 HD
BRANCH  12  15
HETATM   15  C   UNL     1     -41.446  61.354 -59.355  1.00  0.00     0.072 A 
HETATM   16  S   UNL     1     -41.344  62.071 -60.910  1.00  0.00    -0.097 SA
HETATM   17  C   UNL     1     -40.222  63.244 -60.374  1.00  0.00     0.050 A 
HETATM   18  C   UNL     1     -39.918  63.097 -59.041  1.00  0.00     0.009 A 
HETATM   19  C   UNL     1     -40.624  62.008 -58.453  1.00  0.00     0.025 A 
ENDBRANCH  12  15
ENDBRANCH   7  11
ENDBRANCH   2   5
BRANCH   1  20
HETATM   20  C   UNL     1     -43.470  55.931 -53.355  1.00  0.00     0.198 C 
BRANCH  20  21
HETATM   21  C   UNL     1     -42.445  56.573 -52.354  1.00  0.00     0.227 C 
BRANCH  21  22
HETATM   22  O   UNL     1     -43.082  57.383 -51.346  1.00  0.00    -0.349 OA
BRANCH  22  23
HETATM   23  C   UNL     1     -44.467  57.154 -51.119  1.00  0.00     0.167 C 
HETATM   24  C   UNL     1     -45.182  58.491 -51.165  1.00  0.00     0.033 C 
ENDBRANCH  22  23
ENDBRANCH  21  22
BRANCH  21  25
HETATM   25  O   UNL     1     -41.536  57.417 -53.109  1.00  0.00    -0.349 OA
BRANCH  25  26
HETATM   26  C   UNL     1     -41.452  58.762 -52.650  1.00  0.00     0.167 C 
HETATM   27  C   UNL     1     -40.069  58.967 -52.059  1.00  0.00     0.033 C 
ENDBRANCH  25  26
ENDBRANCH  21  25
BRANCH  21  28
HETATM   28  C   UNL     1     -41.506  55.506 -51.732  1.00  0.00     0.097 A 
HETATM   29  N   UNL     1     -41.142  54.427 -52.482  1.00  0.00    -0.260 NA
HETATM   30  C   UNL     1     -40.349  53.490 -51.920  1.00  0.00     0.117 A 
HETATM   31  C   UNL     1     -39.859  53.575 -50.630  1.00  0.00     0.019 A 
HETATM   32  C   UNL     1     -40.216  54.676 -49.866  1.00  0.00     0.004 A 
HETATM   33  C   UNL     1     -41.055  55.645 -50.414  1.00  0.00     0.033 A 
ENDBRANCH  21  28
ENDBRANCH  20  21
ENDBRANCH   1  20
TORSDOF 10
ENDMDL
MODEL 8
REMARK VINA RESULT:      -6.6      3.588      5.548
REMARK  10 active torsions:
REMARK  status: ('A' for Active; 'I' for Inactive)
REMARK    1  A    between atoms: C_2  and  O_3 
REMARK    2  A    between atoms: O_3  and  C_4 
REMARK    3  A    between atoms: C_4  and  O_5 
REMARK    4  A    between atoms: C_4  and  C_8 
REMARK    5  A    between atoms: C_4  and  C_14 
REMARK    6  A    between atoms: O_5  and  C_6 
REMARK    7  A    between atoms: C_14  and  N_15 
REMARK       I    between atoms: N_15  and  C_16 
REMARK    8  A    between atoms: C_16  and  C_17 
REMARK    9  A    between atoms: C_19  and  N_20 
REMARK       I    between atoms: N_20  and  C_21 
REMARK   10  A    between atoms: C_21  and  C_22 
ROOT
HETATM    1  N   UNL     1     -43.449  55.773 -55.403  1.00  0.00    -0.351 N 
HETATM    2  C   UNL     1     -43.656  56.932 -56.116  1.00  0.00     0.251 C 
HETATM    3  O   UNL     1     -43.752  58.038 -55.602  1.00  0.00    -0.268 OA
HETATM    4  H   UNL     1     -43.162  54.934 -55.895  1.00  0.00     0.162 HD
ENDROOT
BRANCH   2   5
HETATM    5  C   UNL     1     -43.741  56.769 -57.592  1.00  0.00     0.034 A 
HETATM    6  C   UNL     1     -44.797  57.345 -58.314  1.00  0.00     0.046 A 
HETATM    7  C   UNL     1     -44.891  57.177 -59.696  1.00  0.00     0.035 A 
HETATM    8  C   UNL     1     -43.896  56.443 -60.353  1.00  0.00     0.029 A 
HETATM    9  C   UNL     1     -42.824  55.894 -59.643  1.00  0.00     0.003 A 
HETATM   10  C   UNL     1     -42.743  56.059 -58.261  1.00  0.00     0.017 A 
BRANCH   7  11
HETATM   11  N   UNL     1     -45.943  57.699 -60.475  1.00  0.00    -0.322 N 
HETATM   12  C   UNL     1     -47.159  57.104 -60.779  1.00  0.00     0.263 C 
HETATM   13  O   UNL     1     -47.520  56.011 -60.349  1.00  0.00    -0.267 OA
HETATM   14  H   UNL     1     -45.799  58.618 -60.876  1.00  0.00     0.169 HD
BRANCH  12  15
HETATM   15  C   UNL     1     -48.019  57.878 -61.673  1.00  0.00     0.072 A 
HETATM   16  S   UNL     1     -47.934  59.587 -61.792  1.00  0.00    -0.097 SA
HETATM   17  C   UNL     1     -49.159  59.637 -62.984  1.00  0.00     0.050 A 
HETATM   18  C   UNL     1     -49.636  58.382 -63.287  1.00  0.00     0.009 A 
HETATM   19  C   UNL     1     -48.979  57.369 -62.532  1.00  0.00     0.025 A 
ENDBRANCH  12  15
ENDBRANCH   7  11
ENDBRANCH   2   5
BRANCH   1  20
HETATM   20  C   UNL     1     -43.419  55.767 -53.944  1.00  0.00     0.198 C 
BRANCH  20  21
HETATM   21  C   UNL     1     -42.030  55.467 -53.277  1.00  0.00     0.227 C 
BRANCH  21  22
HETATM   22  O   UNL     1     -41.134  54.751 -54.151  1.00  0.00    -0.349 OA
BRANCH  22  23
HETATM   23  C   UNL     1     -40.336  53.733 -53.559  1.00  0.00     0.167 C 
HETATM   24  C   UNL     1     -40.377  52.514 -54.462  1.00  0.00     0.033 C 
ENDBRANCH  22  23
ENDBRANCH  21  22
BRANCH  21  25
HETATM   25  O   UNL     1     -42.257  54.655 -52.094  1.00  0.00    -0.349 OA
BRANCH  25  26
HETATM   26  C   UNL     1     -43.592  54.186 -51.941  1.00  0.00     0.167 C 
HETATM   27  C   UNL     1     -44.021  54.460 -50.512  1.00  0.00     0.033 C 
ENDBRANCH  25  26
ENDBRANCH  21  25
BRANCH  21  28
HETATM   28  C   UNL     1     -41.377  56.753 -52.707  1.00  0.00     0.097 A 
HETATM   29  N   UNL     1     -40.898  57.691 -53.574  1.00  0.00    -0.260 NA
HETATM   30  C   UNL     1     -40.305  58.792 -53.066  1.00  0.00     0.117 A 
HETATM   31  C   UNL     1     -40.179  59.041 -51.712  1.00  0.00     0.019 A 
HETATM   32  C   UNL     1     -40.675  58.096 -50.826  1.00  0.00     0.004 A 
HETATM   33  C   UNL     1     -41.269  56.937 -51.323  1.00  0.00     0.033 A 
ENDBRANCH  21  28
ENDBRANCH  20  21
ENDBRANCH   1  20
TORSDOF 10
ENDMDL
MODEL 9
REMARK VINA RESULT:      -6.5      3.834      4.786
REMARK  10 active torsions:
REMARK  status: ('A' for Active; 'I' for Inactive)
REMARK    1  A    between atoms: C_2  and  O_3 
REMARK    2  A    between atoms: O_3  and  C_4 
REMARK    3  A    between atoms: C_4  and  O_5 
REMARK    4  A    between atoms: C_4  and  C_8 
REMARK    5  A    between atoms: C_4  and  C_14 
REMARK    6  A    between atoms: O_5  and  C_6 
REMARK    7  A    between atoms: C_14  and  N_15 
REMARK       I    between atoms: N_15  and  C_16 
REMARK    8  A    between atoms: C_16  and  C_17 
REMARK    9  A    between atoms: C_19  and  N_20 
REMARK       I    between atoms: N_20  and  C_21 
REMARK   10  A    between atoms: C_21  and  C_22 
ROOT
HETATM    1  N   UNL     1     -43.124  57.004 -55.471  1.00  0.00    -0.351 N 
HETATM    2  C   UNL     1     -43.045  57.829 -56.570  1.00  0.00     0.251 C 
HETATM    3  O   UNL     1     -42.635  58.981 -56.526  1.00  0.00    -0.268 OA
HETATM    4  H   UNL     1     -43.260  56.008 -55.608  1.00  0.00     0.162 HD
ENDROOT
BRANCH   2   5
HETATM    5  C   UNL     1     -43.477  57.224 -57.858  1.00  0.00     0.034 A 
HETATM    6  C   UNL     1     -44.509  57.806 -58.609  1.00  0.00     0.046 A 
HETATM    7  C   UNL     1     -44.930  57.229 -59.807  1.00  0.00     0.035 A 
HETATM    8  C   UNL     1     -44.286  56.071 -60.260  1.00  0.00     0.029 A 
HETATM    9  C   UNL     1     -43.235  55.505 -59.532  1.00  0.00     0.003 A 
HETATM   10  C   UNL     1     -42.826  56.083 -58.331  1.00  0.00     0.017 A 
BRANCH   7  11
HETATM   11  N   UNL     1     -45.982  57.742 -60.592  1.00  0.00    -0.322 N 
HETATM   12  C   UNL     1     -47.215  57.162 -60.855  1.00  0.00     0.263 C 
HETATM   13  O   UNL     1     -47.593  56.096 -60.375  1.00  0.00    -0.267 OA
HETATM   14  H   UNL     1     -45.825  58.641 -61.032  1.00  0.00     0.169 HD
BRANCH  12  15
HETATM   15  C   UNL     1     -48.073  57.919 -61.766  1.00  0.00     0.072 A 
HETATM   16  S   UNL     1     -48.810  57.215 -63.146  1.00  0.00    -0.097 SA
HETATM   17  C   UNL     1     -49.583  58.679 -63.568  1.00  0.00     0.050 A 
HETATM   18  C   UNL     1     -49.286  59.694 -62.688  1.00  0.00     0.009 A 
HETATM   19  C   UNL     1     -48.416  59.255 -61.649  1.00  0.00     0.025 A 
ENDBRANCH  12  15
ENDBRANCH   7  11
ENDBRANCH   2   5
BRANCH   1  20
HETATM   20  C   UNL     1     -42.806  57.483 -54.130  1.00  0.00     0.198 C 
BRANCH  20  21
HETATM   21  C   UNL     1     -42.498  56.383 -53.052  1.00  0.00     0.227 C 
BRANCH  21  22
HETATM   22  O   UNL     1     -43.683  55.922 -52.372  1.00  0.00    -0.349 OA
BRANCH  22  23
HETATM   23  C   UNL     1     -43.697  56.040 -50.955  1.00  0.00     0.167 C 
HETATM   24  C   UNL     1     -43.992  54.673 -50.368  1.00  0.00     0.033 C 
ENDBRANCH  22  23
ENDBRANCH  21  22
BRANCH  21  25
HETATM   25  O   UNL     1     -41.598  56.950 -52.064  1.00  0.00    -0.349 OA
BRANCH  25  26
HETATM   26  C   UNL     1     -41.137  58.264 -52.362  1.00  0.00     0.167 C 
HETATM   27  C   UNL     1     -40.271  58.727 -51.206  1.00  0.00     0.033 C 
ENDBRANCH  25  26
ENDBRANCH  21  25
BRANCH  21  28
HETATM   28  C   UNL     1     -41.679  55.209 -53.649  1.00  0.00     0.097 A 
HETATM   29  N   UNL     1     -40.660  55.485 -54.513  1.00  0.00    -0.260 NA
HETATM   30  C   UNL     1     -39.974  54.453 -55.048  1.00  0.00     0.117 A 
HETATM   31  C   UNL     1     -40.225  53.127 -54.750  1.00  0.00     0.019 A 
HETATM   32  C   UNL     1     -41.252  52.841 -53.863  1.00  0.00     0.004 A 
HETATM   33  C   UNL     1     -41.994  53.886 -53.315  1.00  0.00     0.033 A 
ENDBRANCH  21  28
ENDBRANCH  20  21
ENDBRANCH   1  20
TORSDOF 10
ENDMDL
MODEL 10
REMARK VINA RESULT:      -6.4      5.020      7.974
REMARK  10 active torsions:
REMARK  status: ('A' for Active; 'I' for Inactive)
REMARK    1  A    between atoms: C_2  and  O_3 
REMARK    2  A    between atoms: O_3  and  C_4 
REMARK    3  A    between atoms: C_4  and  O_5 
REMARK    4  A    between atoms: C_4  and  C_8 
REMARK    5  A    between atoms: C_4  and  C_14 
REMARK    6  A    between atoms: O_5  and  C_6 
REMARK    7  A    between atoms: C_14  and  N_15 
REMARK       I    between atoms: N_15  and  C_16 
REMARK    8  A    between atoms: C_16  and  C_17 
REMARK    9  A    between atoms: C_19  and  N_20 
REMARK       I    between atoms: N_20  and  C_21 
REMARK   10  A    between atoms: C_21  and  C_22 
ROOT
HETATM    1  N   UNL     1     -41.476  57.780 -53.748  1.00  0.00    -0.351 N 
HETATM    2  C   UNL     1     -41.010  58.971 -53.238  1.00  0.00     0.251 C 
HETATM    3  O   UNL     1     -39.826  59.211 -53.047  1.00  0.00    -0.268 OA
HETATM    4  H   UNL     1     -42.431  57.725 -54.086  1.00  0.00     0.162 HD
ENDROOT
BRANCH   2   5
HETATM    5  C   UNL     1     -42.051  59.990 -52.941  1.00  0.00     0.034 A 
HETATM    6  C   UNL     1     -42.479  60.210 -51.623  1.00  0.00     0.046 A 
HETATM    7  C   UNL     1     -43.470  61.151 -51.343  1.00  0.00     0.035 A 
HETATM    8  C   UNL     1     -44.012  61.892 -52.400  1.00  0.00     0.029 A 
HETATM    9  C   UNL     1     -43.566  61.700 -53.711  1.00  0.00     0.003 A 
HETATM   10  C   UNL     1     -42.582  60.751 -53.983  1.00  0.00     0.017 A 
BRANCH   7  11
HETATM   11  N   UNL     1     -43.969  61.395 -50.048  1.00  0.00    -0.322 N 
HETATM   12  C   UNL     1     -45.100  60.857 -49.451  1.00  0.00     0.263 C 
HETATM   13  O   UNL     1     -45.826  60.017 -49.978  1.00  0.00    -0.267 OA
HETATM   14  H   UNL     1     -43.450  62.052 -49.477  1.00  0.00     0.169 HD
BRANCH  12  15
HETATM   15  C   UNL     1     -45.392  61.363 -48.110  1.00  0.00     0.072 A 
HETATM   16  S   UNL     1     -46.667  62.465 -47.791  1.00  0.00    -0.097 SA
HETATM   17  C   UNL     1     -46.327  62.484 -46.116  1.00  0.00     0.050 A 
HETATM   18  C   UNL     1     -45.260  61.677 -45.796  1.00  0.00     0.009 A 
HETATM   19  C   UNL     1     -44.722  61.030 -46.945  1.00  0.00     0.025 A 
ENDBRANCH  12  15
ENDBRANCH   7  11
ENDBRANCH   2   5
BRANCH   1  20
HETATM   20  C   UNL     1     -40.580  56.660 -54.017  1.00  0.00     0.198 C 
BRANCH  20  21
HETATM   21  C   UNL     1     -41.197  55.224 -53.874  1.00  0.00     0.227 C 
BRANCH  21  22
HETATM   22  O   UNL     1     -40.240  54.177 -54.138  1.00  0.00    -0.349 OA
BRANCH  22  23
HETATM   23  C   UNL     1     -40.742  52.846 -54.188  1.00  0.00     0.167 C 
HETATM   24  C   UNL     1     -39.873  51.979 -53.297  1.00  0.00     0.033 C 
ENDBRANCH  22  23
ENDBRANCH  21  22
BRANCH  21  25
HETATM   25  O   UNL     1     -42.286  55.096 -54.826  1.00  0.00    -0.349 OA
BRANCH  25  26
HETATM   26  C   UNL     1     -41.944  55.420 -56.169  1.00  0.00     0.167 C 
HETATM   27  C   UNL     1     -43.214  55.374 -56.997  1.00  0.00     0.033 C 
ENDBRANCH  25  26
ENDBRANCH  21  25
BRANCH  21  28
HETATM   28  C   UNL     1     -41.897  55.035 -52.503  1.00  0.00     0.097 A 
HETATM   29  N   UNL     1     -41.310  55.548 -51.384  1.00  0.00    -0.260 NA
HETATM   30  C   UNL     1     -41.914  55.351 -50.193  1.00  0.00     0.117 A 
HETATM   31  C   UNL     1     -43.113  54.681 -50.043  1.00  0.00     0.019 A 
HETATM   32  C   UNL     1     -43.721  54.167 -51.179  1.00  0.00     0.004 A 
HETATM   33  C   UNL     1     -43.106  54.333 -52.418  1.00  0.00     0.033 A 
ENDBRANCH  21  28
ENDBRANCH  20  21
ENDBRANCH   1  20
TORSDOF 10
ENDMDL
