MODEL 1
REMARK VINA RESULT:      -8.5      0.000      0.000
REMARK  5 active torsions:
REMARK  status: ('A' for Active; 'I' for Inactive)
REMARK    1  A    between atoms: C_2  and  C_3 
REMARK    2  A    between atoms: C_7  and  C_8 
REMARK    3  A    between atoms: C_8  and  N_9 
REMARK       I    between atoms: N_9  and  C_10 
REMARK       I    between atoms: C_10  and  N_11 
REMARK    4  A    between atoms: N_11  and  C_12 
REMARK    5  A    between atoms: N_18  and  C_19 
ROOT
HETATM    1  N   UNL     1     -44.076  57.523 -52.534  1.00  0.00    -0.337 N 
HETATM    2  C   UNL     1     -43.432  58.116 -51.493  1.00  0.00     0.321 C 
HETATM    3  N   UNL     1     -42.359  57.483 -50.952  1.00  0.00    -0.309 N 
HETATM    4  O   UNL     1     -43.749  59.221 -51.054  1.00  0.00    -0.247 OA
HETATM    5  H   UNL     1     -43.474  56.938 -53.091  1.00  0.00     0.164 HD
HETATM    6  H   UNL     1     -41.871  58.111 -50.322  1.00  0.00     0.170 HD
ENDROOT
BRANCH   3   7
HETATM    7  C   UNL     1     -41.826  56.187 -51.069  1.00  0.00     0.037 A 
HETATM    8  C   UNL     1     -41.396  55.613 -52.269  1.00  0.00     0.047 A 
HETATM    9  C   UNL     1     -40.892  54.322 -52.216  1.00  0.00     0.050 A 
HETATM   10  C   UNL     1     -40.824  53.601 -51.040  1.00  0.00     0.048 A 
HETATM   11  C   UNL     1     -40.346  53.479 -53.278  1.00  0.00     0.262 A 
HETATM   12  C   UNL     1     -40.239  52.298 -51.342  1.00  0.00     0.262 A 
HETATM   13  C   UNL     1     -41.262  54.126 -49.844  1.00  0.00     0.020 A 
HETATM   14  O   UNL     1     -39.999  51.457 -50.496  1.00  0.00    -0.267 OA
HETATM   15  N   UNL     1     -40.019  52.277 -52.697  1.00  0.00    -0.275 N 
HETATM   16  C   UNL     1     -41.774  55.429 -49.871  1.00  0.00     0.030 A 
HETATM   17  O   UNL     1     -40.205  53.858 -54.427  1.00  0.00    -0.267 OA
BRANCH  15  18
HETATM   18  C   UNL     1     -39.390  51.192 -53.382  1.00  0.00     0.096 A 
HETATM   19  C   UNL     1     -39.825  49.766 -53.156  1.00  0.00     0.028 A 
HETATM   20  C   UNL     1     -40.089  50.426 -54.475  1.00  0.00     0.028 A 
ENDBRANCH  15  18
ENDBRANCH   3   7
BRANCH   1  21
HETATM   21  C   UNL     1     -45.056  58.255 -53.312  1.00  0.00     0.183 C 
BRANCH  21  22
HETATM   22  C   UNL     1     -44.912  58.007 -54.765  1.00  0.00     0.047 A 
HETATM   23  N   UNL     1     -45.812  58.486 -55.678  1.00  0.00    -0.280 N 
HETATM   24  N   UNL     1     -45.458  58.268 -56.954  1.00  0.00    -0.178 NA
HETATM   25  H   UNL     1     -46.679  58.985 -55.479  1.00  0.00     0.189 HD
HETATM   26  C   UNL     1     -44.291  57.615 -56.871  1.00  0.00     0.064 A 
HETATM   27  C   UNL     1     -43.920  57.412 -55.513  1.00  0.00     0.058 A 
BRANCH  26  28
HETATM   28  C   UNL     1     -43.502  57.241 -58.118  1.00  0.00    -0.005 C 
HETATM   29  C   UNL     1     -42.206  58.070 -58.259  1.00  0.00     0.021 C 
HETATM   30  C   UNL     1     -44.350  57.477 -59.384  1.00  0.00     0.021 C 
HETATM   31  C   UNL     1     -43.112  55.750 -58.049  1.00  0.00     0.021 C 
ENDBRANCH  26  28
ENDBRANCH  21  22
ENDBRANCH   1  21
TORSDOF 5
ENDMDL
MODEL 2
REMARK VINA RESULT:      -8.3      3.342      6.106
REMARK  5 active torsions:
REMARK  status: ('A' for Active; 'I' for Inactive)
REMARK    1  A    between atoms: C_2  and  C_3 
REMARK    2  A    between atoms: C_7  and  C_8 
REMARK    3  A    between atoms: C_8  and  N_9 
REMARK       I    between atoms: N_9  and  C_10 
REMARK       I    between atoms: C_10  and  N_11 
REMARK    4  A    between atoms: N_11  and  C_12 
REMARK    5  A    between atoms: N_18  and  C_19 
ROOT
HETATM    1  N   UNL     1     -43.452  58.999 -51.708  1.00  0.00    -0.337 N 
HETATM    2  C   UNL     1     -44.472  58.430 -52.406  1.00  0.00     0.321 C 
HETATM    3  N   UNL     1     -44.504  57.077 -52.517  1.00  0.00    -0.309 N 
HETATM    4  O   UNL     1     -45.391  59.085 -52.897  1.00  0.00    -0.247 OA
HETATM    5  H   UNL     1     -43.088  58.402 -50.983  1.00  0.00     0.164 HD
HETATM    6  H   UNL     1     -45.400  56.784 -52.893  1.00  0.00     0.170 HD
ENDROOT
BRANCH   3   7
HETATM    7  C   UNL     1     -43.581  56.050 -52.246  1.00  0.00     0.037 A 
HETATM    8  C   UNL     1     -42.899  55.320 -53.224  1.00  0.00     0.047 A 
HETATM    9  C   UNL     1     -42.018  54.340 -52.792  1.00  0.00     0.050 A 
HETATM   10  C   UNL     1     -41.819  54.062 -51.454  1.00  0.00     0.048 A 
HETATM   11  C   UNL     1     -41.152  53.447 -53.559  1.00  0.00     0.262 A 
HETATM   12  C   UNL     1     -40.829  52.992 -51.359  1.00  0.00     0.262 A 
HETATM   13  C   UNL     1     -42.492  54.744 -50.465  1.00  0.00     0.020 A 
HETATM   14  O   UNL     1     -40.403  52.565 -50.303  1.00  0.00    -0.267 OA
HETATM   15  N   UNL     1     -40.509  52.645 -52.648  1.00  0.00    -0.275 N 
HETATM   16  C   UNL     1     -43.385  55.740 -50.876  1.00  0.00     0.030 A 
HETATM   17  O   UNL     1     -41.050  53.494 -54.772  1.00  0.00    -0.267 OA
BRANCH  15  18
HETATM   18  C   UNL     1     -39.517  51.673 -52.984  1.00  0.00     0.096 A 
HETATM   19  C   UNL     1     -39.711  50.212 -52.662  1.00  0.00     0.028 A 
HETATM   20  C   UNL     1     -39.726  50.669 -54.089  1.00  0.00     0.028 A 
ENDBRANCH  15  18
ENDBRANCH   3   7
BRANCH   1  21
HETATM   21  C   UNL     1     -43.496  60.399 -51.340  1.00  0.00     0.183 C 
BRANCH  21  22
HETATM   22  C   UNL     1     -44.318  60.632 -50.130  1.00  0.00     0.047 A 
HETATM   23  N   UNL     1     -45.311  59.772 -49.748  1.00  0.00    -0.280 N 
HETATM   24  N   UNL     1     -45.868  60.077 -48.566  1.00  0.00    -0.178 NA
HETATM   25  H   UNL     1     -45.635  58.948 -50.254  1.00  0.00     0.189 HD
HETATM   26  C   UNL     1     -45.223  61.181 -48.167  1.00  0.00     0.064 A 
HETATM   27  C   UNL     1     -44.254  61.577 -49.129  1.00  0.00     0.058 A 
BRANCH  26  28
HETATM   28  C   UNL     1     -45.508  61.820 -46.815  1.00  0.00    -0.005 C 
HETATM   29  C   UNL     1     -45.124  63.316 -46.784  1.00  0.00     0.021 C 
HETATM   30  C   UNL     1     -44.714  61.108 -45.702  1.00  0.00     0.021 C 
HETATM   31  C   UNL     1     -47.015  61.706 -46.503  1.00  0.00     0.021 C 
ENDBRANCH  26  28
ENDBRANCH  21  22
ENDBRANCH   1  21
TORSDOF 5
ENDMDL
MODEL 3
REMARK VINA RESULT:      -8.2      1.567      1.907
REMARK  5 active torsions:
REMARK  status: ('A' for Active; 'I' for Inactive)
REMARK    1  A    between atoms: C_2  and  C_3 
REMARK    2  A    between atoms: C_7  and  C_8 
REMARK    3  A    between atoms: C_8  and  N_9 
REMARK       I    between atoms: N_9  and  C_10 
REMARK       I    between atoms: C_10  and  N_11 
REMARK    4  A    between atoms: N_11  and  C_12 
REMARK    5  A    between atoms: N_18  and  C_19 
ROOT
HETATM    1  N   UNL     1     -41.926  58.284 -53.810  1.00  0.00    -0.337 N 
HETATM    2  C   UNL     1     -42.714  58.358 -52.704  1.00  0.00     0.321 C 
HETATM    3  N   UNL     1     -42.608  57.380 -51.767  1.00  0.00    -0.309 N 
HETATM    4  O   UNL     1     -43.481  59.297 -52.493  1.00  0.00    -0.247 OA
HETATM    5  H   UNL     1     -41.054  57.807 -53.644  1.00  0.00     0.164 HD
HETATM    6  H   UNL     1     -43.105  57.654 -50.926  1.00  0.00     0.170 HD
ENDROOT
BRANCH   3   7
HETATM    7  C   UNL     1     -41.992  56.115 -51.739  1.00  0.00     0.037 A 
HETATM    8  C   UNL     1     -41.573  55.413 -52.872  1.00  0.00     0.047 A 
HETATM    9  C   UNL     1     -40.979  54.175 -52.674  1.00  0.00     0.050 A 
HETATM   10  C   UNL     1     -40.815  53.626 -51.418  1.00  0.00     0.048 A 
HETATM   11  C   UNL     1     -40.420  53.232 -53.641  1.00  0.00     0.262 A 
HETATM   12  C   UNL     1     -40.154  52.333 -51.574  1.00  0.00     0.262 A 
HETATM   13  C   UNL     1     -41.239  54.278 -50.281  1.00  0.00     0.020 A 
HETATM   14  O   UNL     1     -39.824  51.630 -50.637  1.00  0.00    -0.267 OA
HETATM   15  N   UNL     1     -39.989  52.143 -52.923  1.00  0.00    -0.275 N 
HETATM   16  C   UNL     1     -41.840  55.531 -50.455  1.00  0.00     0.030 A 
HETATM   17  O   UNL     1     -40.353  53.461 -54.835  1.00  0.00    -0.267 OA
BRANCH  15  18
HETATM   18  C   UNL     1     -39.315  51.017 -53.489  1.00  0.00     0.096 A 
HETATM   19  C   UNL     1     -39.747  49.607 -53.175  1.00  0.00     0.028 A 
HETATM   20  C   UNL     1     -39.950  50.159 -54.553  1.00  0.00     0.028 A 
ENDBRANCH  15  18
ENDBRANCH   3   7
BRANCH   1  21
HETATM   21  C   UNL     1     -41.807  59.412 -54.712  1.00  0.00     0.183 C 
BRANCH  21  22
HETATM   22  C   UNL     1     -42.163  59.053 -56.104  1.00  0.00     0.047 A 
HETATM   23  N   UNL     1     -41.807  59.832 -57.171  1.00  0.00    -0.280 N 
HETATM   24  N   UNL     1     -42.108  59.292 -58.361  1.00  0.00    -0.178 NA
HETATM   25  H   UNL     1     -41.339  60.738 -57.138  1.00  0.00     0.189 HD
HETATM   26  C   UNL     1     -42.691  58.123 -58.061  1.00  0.00     0.064 A 
HETATM   27  C   UNL     1     -42.764  57.942 -56.653  1.00  0.00     0.058 A 
BRANCH  26  28
HETATM   28  C   UNL     1     -43.123  57.151 -59.150  1.00  0.00    -0.005 C 
HETATM   29  C   UNL     1     -44.451  57.575 -59.816  1.00  0.00     0.021 C 
HETATM   30  C   UNL     1     -43.320  55.738 -58.567  1.00  0.00     0.021 C 
HETATM   31  C   UNL     1     -42.036  57.092 -60.244  1.00  0.00     0.021 C 
ENDBRANCH  26  28
ENDBRANCH  21  22
ENDBRANCH   1  21
TORSDOF 5
ENDMDL
MODEL 4
REMARK VINA RESULT:      -7.7      3.292      5.280
REMARK  5 active torsions:
REMARK  status: ('A' for Active; 'I' for Inactive)
REMARK    1  A    between atoms: C_2  and  C_3 
REMARK    2  A    between atoms: C_7  and  C_8 
REMARK    3  A    between atoms: C_8  and  N_9 
REMARK       I    between atoms: N_9  and  C_10 
REMARK       I    between atoms: C_10  and  N_11 
REMARK    4  A    between atoms: N_11  and  C_12 
REMARK    5  A    between atoms: N_18  and  C_19 
ROOT
HETATM    1  N   UNL     1     -42.339  56.865 -58.385  1.00  0.00    -0.337 N 
HETATM    2  C   UNL     1     -43.273  55.876 -58.394  1.00  0.00     0.321 C 
HETATM    3  N   UNL     1     -43.572  55.258 -57.222  1.00  0.00    -0.309 N 
HETATM    4  O   UNL     1     -43.894  55.554 -59.406  1.00  0.00    -0.247 OA
HETATM    5  H   UNL     1     -42.286  57.351 -57.504  1.00  0.00     0.164 HD
HETATM    6  H   UNL     1     -44.402  54.685 -57.337  1.00  0.00     0.170 HD
ENDROOT
BRANCH   3   7
HETATM    7  C   UNL     1     -42.978  55.239 -55.947  1.00  0.00     0.037 A 
HETATM    8  C   UNL     1     -42.295  54.145 -55.408  1.00  0.00     0.047 A 
HETATM    9  C   UNL     1     -41.764  54.287 -54.134  1.00  0.00     0.050 A 
HETATM   10  C   UNL     1     -41.907  55.446 -53.398  1.00  0.00     0.048 A 
HETATM   11  C   UNL     1     -40.985  53.349 -53.328  1.00  0.00     0.262 A 
HETATM   12  C   UNL     1     -41.224  55.256 -52.121  1.00  0.00     0.262 A 
HETATM   13  C   UNL     1     -42.595  56.534 -53.887  1.00  0.00     0.020 A 
HETATM   14  O   UNL     1     -41.128  56.125 -51.275  1.00  0.00    -0.267 OA
HETATM   15  N   UNL     1     -40.737  53.973 -52.129  1.00  0.00    -0.275 N 
HETATM   16  C   UNL     1     -43.140  56.416 -55.171  1.00  0.00     0.030 A 
HETATM   17  O   UNL     1     -40.631  52.256 -53.731  1.00  0.00    -0.267 OA
BRANCH  15  18
HETATM   18  C   UNL     1     -39.943  53.419 -51.079  1.00  0.00     0.096 A 
HETATM   19  C   UNL     1     -40.493  53.254 -49.685  1.00  0.00     0.028 A 
HETATM   20  C   UNL     1     -40.205  52.044 -50.520  1.00  0.00     0.028 A 
ENDBRANCH  15  18
ENDBRANCH   3   7
BRANCH   1  21
HETATM   21  C   UNL     1     -42.161  57.727 -59.536  1.00  0.00     0.183 C 
BRANCH  21  22
HETATM   22  C   UNL     1     -41.919  59.135 -59.146  1.00  0.00     0.047 A 
HETATM   23  N   UNL     1     -41.618  59.493 -57.861  1.00  0.00    -0.280 N 
HETATM   24  N   UNL     1     -41.313  60.792 -57.716  1.00  0.00    -0.178 NA
HETATM   25  H   UNL     1     -41.590  58.881 -57.045  1.00  0.00     0.189 HD
HETATM   26  C   UNL     1     -41.430  61.302 -58.950  1.00  0.00     0.064 A 
HETATM   27  C   UNL     1     -41.829  60.300 -59.876  1.00  0.00     0.058 A 
BRANCH  26  28
HETATM   28  C   UNL     1     -41.092  62.758 -59.239  1.00  0.00    -0.005 C 
HETATM   29  C   UNL     1     -41.488  63.691 -58.073  1.00  0.00     0.021 C 
HETATM   30  C   UNL     1     -41.832  63.244 -60.501  1.00  0.00     0.021 C 
HETATM   31  C   UNL     1     -39.573  62.896 -59.467  1.00  0.00     0.021 C 
ENDBRANCH  26  28
ENDBRANCH  21  22
ENDBRANCH   1  21
TORSDOF 5
ENDMDL
MODEL 5
REMARK VINA RESULT:      -7.7      3.552      9.216
REMARK  5 active torsions:
REMARK  status: ('A' for Active; 'I' for Inactive)
REMARK    1  A    between atoms: C_2  and  C_3 
REMARK    2  A    between atoms: C_7  and  C_8 
REMARK    3  A    between atoms: C_8  and  N_9 
REMARK       I    between atoms: N_9  and  C_10 
REMARK       I    between atoms: C_10  and  N_11 
REMARK    4  A    between atoms: N_11  and  C_12 
REMARK    5  A    between atoms: N_18  and  C_19 
ROOT
HETATM    1  N   UNL     1     -41.422  55.188 -56.150  1.00  0.00    -0.337 N 
HETATM    2  C   UNL     1     -42.731  54.936 -56.423  1.00  0.00     0.321 C 
HETATM    3  N   UNL     1     -43.330  55.634 -57.422  1.00  0.00    -0.309 N 
HETATM    4  O   UNL     1     -43.379  54.069 -55.838  1.00  0.00    -0.247 OA
HETATM    5  H   UNL     1     -40.905  55.506 -56.954  1.00  0.00     0.164 HD
HETATM    6  H   UNL     1     -44.231  55.220 -57.639  1.00  0.00     0.170 HD
ENDROOT
BRANCH   3   7
HETATM    7  C   UNL     1     -42.976  56.772 -58.169  1.00  0.00     0.037 A 
HETATM    8  C   UNL     1     -42.556  57.984 -57.613  1.00  0.00     0.047 A 
HETATM    9  C   UNL     1     -42.241  59.014 -58.487  1.00  0.00     0.050 A 
HETATM   10  C   UNL     1     -42.348  58.879 -59.858  1.00  0.00     0.048 A 
HETATM   11  C   UNL     1     -41.752  60.365 -58.217  1.00  0.00     0.262 A 
HETATM   12  C   UNL     1     -41.931  60.139 -60.468  1.00  0.00     0.262 A 
HETATM   13  C   UNL     1     -42.782  57.708 -60.439  1.00  0.00     0.020 A 
HETATM   14  O   UNL     1     -41.864  60.312 -61.671  1.00  0.00    -0.267 OA
HETATM   15  N   UNL     1     -41.633  60.991 -59.434  1.00  0.00    -0.275 N 
HETATM   16  C   UNL     1     -43.105  56.654 -59.577  1.00  0.00     0.030 A 
HETATM   17  O   UNL     1     -41.490  60.768 -57.098  1.00  0.00    -0.267 OA
BRANCH  15  18
HETATM   18  C   UNL     1     -41.120  62.311 -59.617  1.00  0.00     0.096 A 
HETATM   19  C   UNL     1     -39.688  62.648 -59.282  1.00  0.00     0.028 A 
HETATM   20  C   UNL     1     -40.138  62.642 -60.711  1.00  0.00     0.028 A 
ENDBRANCH  15  18
ENDBRANCH   3   7
BRANCH   1  21
HETATM   21  C   UNL     1     -40.664  54.311 -55.281  1.00  0.00     0.183 C 
BRANCH  21  22
HETATM   22  C   UNL     1     -40.808  54.680 -53.853  1.00  0.00     0.047 A 
HETATM   23  N   UNL     1     -40.936  55.980 -53.447  1.00  0.00    -0.280 N 
HETATM   24  N   UNL     1     -41.176  56.117 -52.134  1.00  0.00    -0.178 NA
HETATM   25  H   UNL     1     -40.883  56.813 -54.033  1.00  0.00     0.189 HD
HETATM   26  C   UNL     1     -41.195  54.862 -51.665  1.00  0.00     0.064 A 
HETATM   27  C   UNL     1     -40.948  53.928 -52.708  1.00  0.00     0.058 A 
BRANCH  26  28
HETATM   28  C   UNL     1     -41.516  54.567 -50.207  1.00  0.00    -0.005 C 
HETATM   29  C   UNL     1     -40.696  53.378 -49.658  1.00  0.00     0.021 C 
HETATM   30  C   UNL     1     -43.010  54.222 -50.040  1.00  0.00     0.021 C 
HETATM   31  C   UNL     1     -41.192  55.808 -49.349  1.00  0.00     0.021 C 
ENDBRANCH  26  28
ENDBRANCH  21  22
ENDBRANCH   1  21
TORSDOF 5
ENDMDL
MODEL 6
REMARK VINA RESULT:      -7.6      2.627      3.671
REMARK  5 active torsions:
REMARK  status: ('A' for Active; 'I' for Inactive)
REMARK    1  A    between atoms: C_2  and  C_3 
REMARK    2  A    between atoms: C_7  and  C_8 
REMARK    3  A    between atoms: C_8  and  N_9 
REMARK       I    between atoms: N_9  and  C_10 
REMARK       I    between atoms: C_10  and  N_11 
REMARK    4  A    between atoms: N_11  and  C_12 
REMARK    5  A    between atoms: N_18  and  C_19 
ROOT
HETATM    1  N   UNL     1     -43.417  58.091 -55.000  1.00  0.00    -0.337 N 
HETATM    2  C   UNL     1     -44.600  57.425 -54.919  1.00  0.00     0.321 C 
HETATM    3  N   UNL     1     -44.594  56.152 -54.444  1.00  0.00    -0.309 N 
HETATM    4  O   UNL     1     -45.678  57.942 -55.210  1.00  0.00    -0.247 OA
HETATM    5  H   UNL     1     -42.744  57.788 -54.315  1.00  0.00     0.164 HD
HETATM    6  H   UNL     1     -45.545  55.848 -54.263  1.00  0.00     0.170 HD
ENDROOT
BRANCH   3   7
HETATM    7  C   UNL     1     -43.583  55.210 -54.183  1.00  0.00     0.037 A 
HETATM    8  C   UNL     1     -43.083  54.916 -52.911  1.00  0.00     0.047 A 
HETATM    9  C   UNL     1     -42.084  53.958 -52.822  1.00  0.00     0.050 A 
HETATM   10  C   UNL     1     -41.572  53.318 -53.933  1.00  0.00     0.048 A 
HETATM   11  C   UNL     1     -41.393  53.422 -51.650  1.00  0.00     0.262 A 
HETATM   12  C   UNL     1     -40.554  52.374 -53.480  1.00  0.00     0.262 A 
HETATM   13  C   UNL     1     -42.023  53.600 -55.203  1.00  0.00     0.020 A 
HETATM   14  O   UNL     1     -39.958  51.619 -54.226  1.00  0.00    -0.267 OA
HETATM   15  N   UNL     1     -40.469  52.520 -52.118  1.00  0.00    -0.275 N 
HETATM   16  C   UNL     1     -43.033  54.563 -55.319  1.00  0.00     0.030 A 
HETATM   17  O   UNL     1     -41.671  53.740 -50.508  1.00  0.00    -0.267 OA
BRANCH  15  18
HETATM   18  C   UNL     1     -39.627  51.720 -51.285  1.00  0.00     0.096 A 
HETATM   19  C   UNL     1     -40.206  50.731 -50.305  1.00  0.00     0.028 A 
HETATM   20  C   UNL     1     -39.459  50.239 -51.507  1.00  0.00     0.028 A 
ENDBRANCH  15  18
ENDBRANCH   3   7
BRANCH   1  21
HETATM   21  C   UNL     1     -43.386  59.518 -55.254  1.00  0.00     0.183 C 
BRANCH  21  22
HETATM   22  C   UNL     1     -43.258  59.825 -56.697  1.00  0.00     0.047 A 
HETATM   23  N   UNL     1     -44.270  59.583 -57.585  1.00  0.00    -0.280 N 
HETATM   24  N   UNL     1     -44.023  60.034 -58.824  1.00  0.00    -0.178 NA
HETATM   25  H   UNL     1     -45.160  59.125 -57.389  1.00  0.00     0.189 HD
HETATM   26  C   UNL     1     -42.802  60.580 -58.745  1.00  0.00     0.064 A 
HETATM   27  C   UNL     1     -42.276  60.453 -57.430  1.00  0.00     0.058 A 
BRANCH  26  28
HETATM   28  C   UNL     1     -42.171  61.284 -59.938  1.00  0.00    -0.005 C 
HETATM   29  C   UNL     1     -40.845  61.985 -59.567  1.00  0.00     0.021 C 
HETATM   30  C   UNL     1     -43.126  62.353 -60.503  1.00  0.00     0.021 C 
HETATM   31  C   UNL     1     -41.871  60.249 -61.043  1.00  0.00     0.021 C 
ENDBRANCH  26  28
ENDBRANCH  21  22
ENDBRANCH   1  21
TORSDOF 5
ENDMDL
MODEL 7
REMARK VINA RESULT:      -7.5      3.462      6.065
REMARK  5 active torsions:
REMARK  status: ('A' for Active; 'I' for Inactive)
REMARK    1  A    between atoms: C_2  and  C_3 
REMARK    2  A    between atoms: C_7  and  C_8 
REMARK    3  A    between atoms: C_8  and  N_9 
REMARK       I    between atoms: N_9  and  C_10 
REMARK       I    between atoms: C_10  and  N_11 
REMARK    4  A    between atoms: N_11  and  C_12 
REMARK    5  A    between atoms: N_18  and  C_19 
ROOT
HETATM    1  N   UNL     1     -44.833  55.669 -59.186  1.00  0.00    -0.337 N 
HETATM    2  C   UNL     1     -43.529  55.988 -59.408  1.00  0.00     0.321 C 
HETATM    3  N   UNL     1     -42.675  55.990 -58.351  1.00  0.00    -0.309 N 
HETATM    4  O   UNL     1     -43.082  56.224 -60.529  1.00  0.00    -0.247 OA
HETATM    5  H   UNL     1     -44.961  55.047 -58.404  1.00  0.00     0.164 HD
HETATM    6  H   UNL     1     -41.719  56.059 -58.682  1.00  0.00     0.170 HD
ENDROOT
BRANCH   3   7
HETATM    7  C   UNL     1     -42.845  55.939 -56.956  1.00  0.00     0.037 A 
HETATM    8  C   UNL     1     -42.443  54.872 -56.147  1.00  0.00     0.047 A 
HETATM    9  C   UNL     1     -42.681  54.976 -54.785  1.00  0.00     0.050 A 
HETATM   10  C   UNL     1     -43.308  56.073 -54.225  1.00  0.00     0.048 A 
HETATM   11  C   UNL     1     -42.355  54.055 -53.698  1.00  0.00     0.262 A 
HETATM   12  C   UNL     1     -43.387  55.859 -52.783  1.00  0.00     0.262 A 
HETATM   13  C   UNL     1     -43.740  57.131 -54.994  1.00  0.00     0.020 A 
HETATM   14  O   UNL     1     -43.840  56.679 -52.006  1.00  0.00    -0.267 OA
HETATM   15  N   UNL     1     -42.842  54.622 -52.544  1.00  0.00    -0.275 N 
HETATM   16  C   UNL     1     -43.509  57.049 -56.373  1.00  0.00     0.030 A 
HETATM   17  O   UNL     1     -41.734  53.021 -53.862  1.00  0.00    -0.267 OA
BRANCH  15  18
HETATM   18  C   UNL     1     -42.671  54.069 -51.238  1.00  0.00     0.096 A 
HETATM   19  C   UNL     1     -41.298  53.841 -50.657  1.00  0.00     0.028 A 
HETATM   20  C   UNL     1     -42.187  54.898 -50.077  1.00  0.00     0.028 A 
ENDBRANCH  15  18
ENDBRANCH   3   7
BRANCH   1  21
HETATM   21  C   UNL     1     -45.729  55.401 -60.293  1.00  0.00     0.183 C 
BRANCH  21  22
HETATM   22  C   UNL     1     -46.494  56.605 -60.694  1.00  0.00     0.047 A 
HETATM   23  N   UNL     1     -47.399  56.583 -61.720  1.00  0.00    -0.280 N 
HETATM   24  N   UNL     1     -48.083  57.728 -61.863  1.00  0.00    -0.178 NA
HETATM   25  H   UNL     1     -47.600  55.801 -62.343  1.00  0.00     0.189 HD
HETATM   26  C   UNL     1     -47.600  58.530 -60.904  1.00  0.00     0.064 A 
HETATM   27  C   UNL     1     -46.584  57.870 -60.159  1.00  0.00     0.058 A 
BRANCH  26  28
HETATM   28  C   UNL     1     -48.171  59.921 -60.673  1.00  0.00    -0.005 C 
HETATM   29  C   UNL     1     -47.297  61.024 -61.311  1.00  0.00     0.021 C 
HETATM   30  C   UNL     1     -48.276  60.219 -59.164  1.00  0.00     0.021 C 
HETATM   31  C   UNL     1     -49.579  60.007 -61.298  1.00  0.00     0.021 C 
ENDBRANCH  26  28
ENDBRANCH  21  22
ENDBRANCH   1  21
TORSDOF 5
ENDMDL
MODEL 8
REMARK VINA RESULT:      -7.4      2.985      4.517
REMARK  5 active torsions:
REMARK  status: ('A' for Active; 'I' for Inactive)
REMARK    1  A    between atoms: C_2  and  C_3 
REMARK    2  A    between atoms: C_7  and  C_8 
REMARK    3  A    between atoms: C_8  and  N_9 
REMARK       I    between atoms: N_9  and  C_10 
REMARK       I    between atoms: C_10  and  N_11 
REMARK    4  A    between atoms: N_11  and  C_12 
REMARK    5  A    between atoms: N_18  and  C_19 
ROOT
HETATM    1  N   UNL     1     -42.156  56.982 -57.355  1.00  0.00    -0.337 N 
HETATM    2  C   UNL     1     -43.122  56.085 -57.692  1.00  0.00     0.321 C 
HETATM    3  N   UNL     1     -43.528  55.189 -56.755  1.00  0.00    -0.309 N 
HETATM    4  O   UNL     1     -43.678  56.083 -58.790  1.00  0.00    -0.247 OA
HETATM    5  H   UNL     1     -42.151  57.207 -56.373  1.00  0.00     0.164 HD
HETATM    6  H   UNL     1     -44.367  54.714 -57.073  1.00  0.00     0.170 HD
ENDROOT
BRANCH   3   7
HETATM    7  C   UNL     1     -43.030  54.792 -55.501  1.00  0.00     0.037 A 
HETATM    8  C   UNL     1     -42.019  53.845 -55.313  1.00  0.00     0.047 A 
HETATM    9  C   UNL     1     -41.638  53.565 -54.009  1.00  0.00     0.050 A 
HETATM   10  C   UNL     1     -42.233  54.170 -52.919  1.00  0.00     0.048 A 
HETATM   11  C   UNL     1     -40.608  52.661 -53.501  1.00  0.00     0.262 A 
HETATM   12  C   UNL     1     -41.589  53.656 -51.713  1.00  0.00     0.262 A 
HETATM   13  C   UNL     1     -43.248  55.088 -53.065  1.00  0.00     0.020 A 
HETATM   14  O   UNL     1     -41.860  54.043 -50.591  1.00  0.00    -0.267 OA
HETATM   15  N   UNL     1     -40.664  52.732 -52.130  1.00  0.00    -0.275 N 
HETATM   16  C   UNL     1     -43.649  55.389 -54.372  1.00  0.00     0.030 A 
HETATM   17  O   UNL     1     -39.859  52.029 -54.224  1.00  0.00    -0.267 OA
BRANCH  15  18
HETATM   18  C   UNL     1     -39.773  52.046 -51.248  1.00  0.00     0.096 A 
HETATM   19  C   UNL     1     -40.283  51.041 -50.247  1.00  0.00     0.028 A 
HETATM   20  C   UNL     1     -39.459  50.582 -51.411  1.00  0.00     0.028 A 
ENDBRANCH  15  18
ENDBRANCH   3   7
BRANCH   1  21
HETATM   21  C   UNL     1     -41.864  58.113 -58.213  1.00  0.00     0.183 C 
BRANCH  21  22
HETATM   22  C   UNL     1     -42.658  59.309 -57.847  1.00  0.00     0.047 A 
HETATM   23  N   UNL     1     -43.997  59.402 -58.110  1.00  0.00    -0.280 N 
HETATM   24  N   UNL     1     -44.574  60.502 -57.603  1.00  0.00    -0.178 NA
HETATM   25  H   UNL     1     -44.569  58.729 -58.621  1.00  0.00     0.189 HD
HETATM   26  C   UNL     1     -43.574  61.155 -56.996  1.00  0.00     0.064 A 
HETATM   27  C   UNL     1     -42.347  60.451 -57.143  1.00  0.00     0.058 A 
BRANCH  26  28
HETATM   28  C   UNL     1     -43.824  62.440 -56.219  1.00  0.00    -0.005 C 
HETATM   29  C   UNL     1     -42.985  63.620 -56.756  1.00  0.00     0.021 C 
HETATM   30  C   UNL     1     -43.468  62.249 -54.731  1.00  0.00     0.021 C 
HETATM   31  C   UNL     1     -45.314  62.823 -56.329  1.00  0.00     0.021 C 
ENDBRANCH  26  28
ENDBRANCH  21  22
ENDBRANCH   1  21
TORSDOF 5
ENDMDL
MODEL 9
REMARK VINA RESULT:      -7.2      2.440      5.067
REMARK  5 active torsions:
REMARK  status: ('A' for Active; 'I' for Inactive)
REMARK    1  A    between atoms: C_2  and  C_3 
REMARK    2  A    between atoms: C_7  and  C_8 
REMARK    3  A    between atoms: C_8  and  N_9 
REMARK       I    between atoms: N_9  and  C_10 
REMARK       I    between atoms: C_10  and  N_11 
REMARK    4  A    between atoms: N_11  and  C_12 
REMARK    5  A    between atoms: N_18  and  C_19 
ROOT
HETATM    1  N   UNL     1     -43.051  57.469 -56.026  1.00  0.00    -0.337 N 
HETATM    2  C   UNL     1     -42.751  56.571 -57.002  1.00  0.00     0.321 C 
HETATM    3  N   UNL     1     -42.265  55.356 -56.636  1.00  0.00    -0.309 N 
HETATM    4  O   UNL     1     -42.948  56.792 -58.197  1.00  0.00    -0.247 OA
HETATM    5  H   UNL     1     -43.317  57.035 -55.157  1.00  0.00     0.164 HD
HETATM    6  H   UNL     1     -42.264  54.731 -57.436  1.00  0.00     0.170 HD
ENDROOT
BRANCH   3   7
HETATM    7  C   UNL     1     -41.769  54.823 -55.433  1.00  0.00     0.037 A 
HETATM    8  C   UNL     1     -42.226  55.180 -54.161  1.00  0.00     0.047 A 
HETATM    9  C   UNL     1     -41.633  54.560 -53.071  1.00  0.00     0.050 A 
HETATM   10  C   UNL     1     -40.615  53.636 -53.209  1.00  0.00     0.048 A 
HETATM   11  C   UNL     1     -41.910  54.698 -51.642  1.00  0.00     0.262 A 
HETATM   12  C   UNL     1     -40.236  53.182 -51.874  1.00  0.00     0.262 A 
HETATM   13  C   UNL     1     -40.124  53.280 -54.445  1.00  0.00     0.020 A 
HETATM   14  O   UNL     1     -39.399  52.323 -51.670  1.00  0.00    -0.267 OA
HETATM   15  N   UNL     1     -41.014  53.885 -50.989  1.00  0.00    -0.275 N 
HETATM   16  C   UNL     1     -40.707  53.891 -55.561  1.00  0.00     0.030 A 
HETATM   17  O   UNL     1     -42.806  55.392 -51.200  1.00  0.00    -0.267 OA
BRANCH  15  18
HETATM   18  C   UNL     1     -40.992  53.680 -49.575  1.00  0.00     0.096 A 
HETATM   19  C   UNL     1     -39.787  54.051 -48.748  1.00  0.00     0.028 A 
HETATM   20  C   UNL     1     -41.061  54.827 -48.600  1.00  0.00     0.028 A 
ENDBRANCH  15  18
ENDBRANCH   3   7
BRANCH   1  21
HETATM   21  C   UNL     1     -43.802  58.671 -56.330  1.00  0.00     0.183 C 
BRANCH  21  22
HETATM   22  C   UNL     1     -44.280  59.354 -55.106  1.00  0.00     0.047 A 
HETATM   23  N   UNL     1     -45.172  60.390 -55.153  1.00  0.00    -0.280 N 
HETATM   24  N   UNL     1     -45.583  60.806 -53.945  1.00  0.00    -0.178 NA
HETATM   25  H   UNL     1     -45.545  60.841 -55.989  1.00  0.00     0.189 HD
HETATM   26  C   UNL     1     -44.929  60.020 -53.079  1.00  0.00     0.064 A 
HETATM   27  C   UNL     1     -44.083  59.106 -53.766  1.00  0.00     0.058 A 
BRANCH  26  28
HETATM   28  C   UNL     1     -45.174  60.118 -51.581  1.00  0.00    -0.005 C 
HETATM   29  C   UNL     1     -46.349  61.062 -51.242  1.00  0.00     0.021 C 
HETATM   30  C   UNL     1     -43.920  60.653 -50.861  1.00  0.00     0.021 C 
HETATM   31  C   UNL     1     -45.509  58.718 -51.024  1.00  0.00     0.021 C 
ENDBRANCH  26  28
ENDBRANCH  21  22
ENDBRANCH   1  21
TORSDOF 5
ENDMDL
MODEL 10
REMARK VINA RESULT:      -7.2     15.430     17.688
REMARK  5 active torsions:
REMARK  status: ('A' for Active; 'I' for Inactive)
REMARK    1  A    between atoms: C_2  and  C_3 
REMARK    2  A    between atoms: C_7  and  C_8 
REMARK    3  A    between atoms: C_8  and  N_9 
REMARK       I    between atoms: N_9  and  C_10 
REMARK       I    between atoms: C_10  and  N_11 
REMARK    4  A    between atoms: N_11  and  C_12 
REMARK    5  A    between atoms: N_18  and  C_19 
ROOT
HETATM    1  N   UNL     1     -34.314  41.151 -54.086  1.00  0.00    -0.337 N 
HETATM    2  C   UNL     1     -35.302  41.918 -53.550  1.00  0.00     0.321 C 
HETATM    3  N   UNL     1     -35.556  41.810 -52.220  1.00  0.00    -0.309 N 
HETATM    4  O   UNL     1     -35.939  42.740 -54.208  1.00  0.00    -0.247 OA
HETATM    5  H   UNL     1     -33.586  40.927 -53.427  1.00  0.00     0.164 HD
HETATM    6  H   UNL     1     -36.174  42.559 -51.926  1.00  0.00     0.170 HD
ENDROOT
BRANCH   3   7
HETATM    7  C   UNL     1     -35.168  40.899 -51.221  1.00  0.00     0.037 A 
HETATM    8  C   UNL     1     -33.862  40.753 -50.746  1.00  0.00     0.047 A 
HETATM    9  C   UNL     1     -33.643  39.809 -49.754  1.00  0.00     0.050 A 
HETATM   10  C   UNL     1     -34.656  39.016 -49.252  1.00  0.00     0.048 A 
HETATM   11  C   UNL     1     -32.415  39.452 -49.046  1.00  0.00     0.262 A 
HETATM   12  C   UNL     1     -34.083  38.149 -48.225  1.00  0.00     0.262 A 
HETATM   13  C   UNL     1     -35.949  39.114 -49.714  1.00  0.00     0.020 A 
HETATM   14  O   UNL     1     -34.740  37.372 -47.559  1.00  0.00    -0.267 OA
HETATM   15  N   UNL     1     -32.740  38.431 -48.186  1.00  0.00    -0.275 N 
HETATM   16  C   UNL     1     -36.196  40.062 -50.714  1.00  0.00     0.030 A 
HETATM   17  O   UNL     1     -31.354  40.026 -49.217  1.00  0.00    -0.267 OA
BRANCH  15  18
HETATM   18  C   UNL     1     -31.831  37.836 -47.257  1.00  0.00     0.096 A 
HETATM   19  C   UNL     1     -31.163  38.655 -46.182  1.00  0.00     0.028 A 
HETATM   20  C   UNL     1     -32.191  37.631 -45.808  1.00  0.00     0.028 A 
ENDBRANCH  15  18
ENDBRANCH   3   7
BRANCH   1  21
HETATM   21  C   UNL     1     -33.827  41.400 -55.427  1.00  0.00     0.183 C 
BRANCH  21  22
HETATM   22  C   UNL     1     -34.738  40.858 -56.461  1.00  0.00     0.047 A 
HETATM   23  N   UNL     1     -35.177  39.562 -56.438  1.00  0.00    -0.280 N 
HETATM   24  N   UNL     1     -36.087  39.281 -57.382  1.00  0.00    -0.178 NA
HETATM   25  H   UNL     1     -34.895  38.832 -55.783  1.00  0.00     0.189 HD
HETATM   26  C   UNL     1     -36.241  40.431 -58.052  1.00  0.00     0.064 A 
HETATM   27  C   UNL     1     -35.397  41.443 -57.520  1.00  0.00     0.058 A 
BRANCH  26  28
HETATM   28  C   UNL     1     -37.259  40.562 -59.176  1.00  0.00    -0.005 C 
HETATM   29  C   UNL     1     -38.675  40.131 -58.734  1.00  0.00     0.021 C 
HETATM   30  C   UNL     1     -36.855  39.683 -60.377  1.00  0.00     0.021 C 
HETATM   31  C   UNL     1     -37.328  42.033 -59.636  1.00  0.00     0.021 C 
ENDBRANCH  26  28
ENDBRANCH  21  22
ENDBRANCH   1  21
TORSDOF 5
ENDMDL
