MODEL 1
REMARK VINA RESULT:      -8.6      0.000      0.000
REMARK  6 active torsions:
REMARK  status: ('A' for Active; 'I' for Inactive)
REMARK    1  A    between atoms: O_2  and  C_3 
REMARK    2  A    between atoms: C_5  and  C_6 
REMARK       I    between atoms: C_6  and  N_7 
REMARK    3  A    between atoms: N_7  and  C_8 
REMARK    4  A    between atoms: C_10  and  C_11 
REMARK    5  A    between atoms: C_11  and  C_12 
REMARK    6  A    between atoms: C_12  and  C_13 
ROOT
HETATM    1  C   UNL     1     -42.605  55.121 -55.665  1.00  0.00     0.725 A 
HETATM    2  N   UNL     1     -43.015  54.794 -54.464  1.00  0.00    -0.046 NA
HETATM    3  C   UNL     1     -41.887  54.946 -53.692  1.00  0.00     0.166 A 
HETATM    4  N   UNL     1     -40.796  55.342 -54.364  1.00  0.00    -0.144 NA
HETATM    5  N   UNL     1     -41.277  55.449 -55.616  1.00  0.00    -0.106 N 
HETATM    6  H   UNL     1     -40.687  55.748 -56.386  1.00  0.00     0.208 HD
ENDROOT
BRANCH   1   7
HETATM    7  N   UNL     1     -43.386  55.137 -56.790  1.00  0.00    -0.152 N 
HETATM    8  C   UNL     1     -43.299  56.152 -57.718  1.00  0.00     0.270 C 
HETATM    9  O   UNL     1     -42.547  57.119 -57.612  1.00  0.00    -0.267 OA
HETATM   10  H   UNL     1     -44.064  54.392 -56.854  1.00  0.00     0.187 HD
BRANCH   8  11
HETATM   11  C   UNL     1     -44.211  56.044 -58.891  1.00  0.00     0.035 A 
HETATM   12  C   UNL     1     -45.279  56.945 -58.986  1.00  0.00     0.053 A 
HETATM   13  C   UNL     1     -46.167  56.889 -60.064  1.00  0.00     0.069 A 
HETATM   14  C   UNL     1     -45.980  55.925 -61.055  1.00  0.00     0.037 A 
HETATM   15  C   UNL     1     -44.906  55.034 -60.976  1.00  0.00     0.004 A 
HETATM   16  C   UNL     1     -44.019  55.092 -59.900  1.00  0.00     0.017 A 
BRANCH  13  17
HETATM   17  O   UNL     1     -47.168  57.820 -60.028  1.00  0.00    -0.356 OA
HETATM   18  C   UNL     1     -47.152  58.826 -61.033  1.00  0.00     0.210 C 
ENDBRANCH  13  17
ENDBRANCH   8  11
ENDBRANCH   1   7
BRANCH   3  19
HETATM   19  C   UNL     1     -41.865  54.687 -52.228  1.00  0.00     0.087 C 
BRANCH  19  20
HETATM   20  C   UNL     1     -40.466  54.360 -51.702  1.00  0.00     0.048 C 
BRANCH  20  21
HETATM   21  C   UNL     1     -40.273  52.894 -51.466  1.00  0.00    -0.030 A 
HETATM   22  C   UNL     1     -40.001  51.896 -52.457  1.00  0.00    -0.002 A 
HETATM   23  C   UNL     1     -39.884  50.672 -51.797  1.00  0.00     0.042 A 
HETATM   24  C   UNL     1     -39.841  51.922 -53.858  1.00  0.00     0.014 A 
HETATM   25  C   UNL     1     -39.612  49.473 -52.467  1.00  0.00     0.030 A 
HETATM   26  N   UNL     1     -40.082  50.915 -50.458  1.00  0.00    -0.365 N 
HETATM   27  C   UNL     1     -39.457  49.528 -53.856  1.00  0.00     0.002 A 
HETATM   28  C   UNL     1     -39.570  50.732 -54.544  1.00  0.00     0.001 A 
HETATM   29  H   UNL     1     -40.054  50.206 -49.739  1.00  0.00     0.165 HD
HETATM   30  C   UNL     1     -40.317  52.246 -50.247  1.00  0.00     0.096 A 
ENDBRANCH  20  21
ENDBRANCH  19  20
ENDBRANCH   3  19
TORSDOF 6
ENDMDL
MODEL 2
REMARK VINA RESULT:      -8.5      1.798      2.521
REMARK  6 active torsions:
REMARK  status: ('A' for Active; 'I' for Inactive)
REMARK    1  A    between atoms: O_2  and  C_3 
REMARK    2  A    between atoms: C_5  and  C_6 
REMARK       I    between atoms: C_6  and  N_7 
REMARK    3  A    between atoms: N_7  and  C_8 
REMARK    4  A    between atoms: C_10  and  C_11 
REMARK    5  A    between atoms: C_11  and  C_12 
REMARK    6  A    between atoms: C_12  and  C_13 
ROOT
HETATM    1  C   UNL     1     -43.086  55.705 -54.038  1.00  0.00     0.725 A 
HETATM    2  N   UNL     1     -42.423  54.788 -53.378  1.00  0.00    -0.046 NA
HETATM    3  C   UNL     1     -42.818  54.988 -52.076  1.00  0.00     0.166 A 
HETATM    4  N   UNL     1     -43.686  55.995 -51.901  1.00  0.00    -0.144 NA
HETATM    5  N   UNL     1     -43.842  56.435 -53.163  1.00  0.00    -0.106 N 
HETATM    6  H   UNL     1     -44.464  57.208 -53.380  1.00  0.00     0.208 HD
ENDROOT
BRANCH   1   7
HETATM    7  N   UNL     1     -43.031  55.898 -55.393  1.00  0.00    -0.152 N 
HETATM    8  C   UNL     1     -42.576  57.079 -55.938  1.00  0.00     0.270 C 
HETATM    9  O   UNL     1     -42.207  58.046 -55.275  1.00  0.00    -0.267 OA
HETATM   10  H   UNL     1     -43.403  55.145 -55.952  1.00  0.00     0.187 HD
BRANCH   8  11
HETATM   11  C   UNL     1     -42.574  57.154 -57.426  1.00  0.00     0.035 A 
HETATM   12  C   UNL     1     -43.069  56.058 -58.145  1.00  0.00     0.053 A 
HETATM   13  C   UNL     1     -43.089  56.071 -59.543  1.00  0.00     0.069 A 
HETATM   14  C   UNL     1     -42.614  57.193 -60.223  1.00  0.00     0.037 A 
HETATM   15  C   UNL     1     -42.136  58.297 -59.512  1.00  0.00     0.004 A 
HETATM   16  C   UNL     1     -42.118  58.283 -58.116  1.00  0.00     0.017 A 
BRANCH  13  17
HETATM   17  O   UNL     1     -43.588  54.935 -60.117  1.00  0.00    -0.356 OA
HETATM   18  C   UNL     1     -45.000  54.848 -60.258  1.00  0.00     0.210 C 
ENDBRANCH  13  17
ENDBRANCH   8  11
ENDBRANCH   1   7
BRANCH   3  19
HETATM   19  C   UNL     1     -42.322  54.164 -50.942  1.00  0.00     0.087 C 
BRANCH  19  20
HETATM   20  C   UNL     1     -40.804  53.971 -50.964  1.00  0.00     0.048 C 
BRANCH  20  21
HETATM   21  C   UNL     1     -40.413  52.532 -51.097  1.00  0.00    -0.030 A 
HETATM   22  C   UNL     1     -40.137  51.829 -52.314  1.00  0.00    -0.002 A 
HETATM   23  C   UNL     1     -39.802  50.518 -51.973  1.00  0.00     0.042 A 
HETATM   24  C   UNL     1     -40.140  52.189 -53.677  1.00  0.00     0.014 A 
HETATM   25  C   UNL     1     -39.466  49.549 -52.927  1.00  0.00     0.030 A 
HETATM   26  N   UNL     1     -39.875  50.426 -50.603  1.00  0.00    -0.365 N 
HETATM   27  C   UNL     1     -39.476  49.933 -54.271  1.00  0.00     0.002 A 
HETATM   28  C   UNL     1     -39.808  51.232 -54.645  1.00  0.00     0.001 A 
HETATM   29  H   UNL     1     -39.683  49.586 -50.077  1.00  0.00     0.165 HD
HETATM   30  C   UNL     1     -40.242  51.629 -50.066  1.00  0.00     0.096 A 
ENDBRANCH  20  21
ENDBRANCH  19  20
ENDBRANCH   3  19
TORSDOF 6
ENDMDL
MODEL 3
REMARK VINA RESULT:      -8.3      4.815      6.872
REMARK  6 active torsions:
REMARK  status: ('A' for Active; 'I' for Inactive)
REMARK    1  A    between atoms: O_2  and  C_3 
REMARK    2  A    between atoms: C_5  and  C_6 
REMARK       I    between atoms: C_6  and  N_7 
REMARK    3  A    between atoms: N_7  and  C_8 
REMARK    4  A    between atoms: C_10  and  C_11 
REMARK    5  A    between atoms: C_11  and  C_12 
REMARK    6  A    between atoms: C_12  and  C_13 
ROOT
HETATM    1  C   UNL     1     -43.459  56.933 -53.291  1.00  0.00     0.725 A 
HETATM    2  N   UNL     1     -42.368  56.377 -53.756  1.00  0.00    -0.046 NA
HETATM    3  C   UNL     1     -42.830  55.236 -54.367  1.00  0.00     0.166 A 
HETATM    4  N   UNL     1     -44.157  55.056 -54.292  1.00  0.00    -0.144 NA
HETATM    5  N   UNL     1     -44.535  56.149 -53.604  1.00  0.00    -0.106 N 
HETATM    6  H   UNL     1     -45.511  56.323 -53.382  1.00  0.00     0.208 HD
ENDROOT
BRANCH   1   7
HETATM    7  N   UNL     1     -43.512  58.117 -52.603  1.00  0.00    -0.152 N 
HETATM    8  C   UNL     1     -44.294  58.266 -51.479  1.00  0.00     0.270 C 
HETATM    9  O   UNL     1     -45.011  57.381 -51.016  1.00  0.00    -0.267 OA
HETATM   10  H   UNL     1     -42.991  58.878 -53.013  1.00  0.00     0.187 HD
BRANCH   8  11
HETATM   11  C   UNL     1     -44.259  59.608 -50.832  1.00  0.00     0.035 A 
HETATM   12  C   UNL     1     -45.385  60.026 -50.110  1.00  0.00     0.053 A 
HETATM   13  C   UNL     1     -45.410  61.275 -49.485  1.00  0.00     0.069 A 
HETATM   14  C   UNL     1     -44.295  62.110 -49.580  1.00  0.00     0.037 A 
HETATM   15  C   UNL     1     -43.162  61.692 -50.284  1.00  0.00     0.004 A 
HETATM   16  C   UNL     1     -43.139  60.444 -50.906  1.00  0.00     0.017 A 
BRANCH  13  17
HETATM   17  O   UNL     1     -46.571  61.560 -48.823  1.00  0.00    -0.356 OA
HETATM   18  C   UNL     1     -46.454  62.111 -47.518  1.00  0.00     0.210 C 
ENDBRANCH  13  17
ENDBRANCH   8  11
ENDBRANCH   1   7
BRANCH   3  19
HETATM   19  C   UNL     1     -41.938  54.265 -55.056  1.00  0.00     0.087 C 
BRANCH  19  20
HETATM   20  C   UNL     1     -40.499  54.309 -54.539  1.00  0.00     0.048 C 
BRANCH  20  21
HETATM   21  C   UNL     1     -40.304  53.465 -53.318  1.00  0.00    -0.030 A 
HETATM   22  C   UNL     1     -40.040  52.058 -53.284  1.00  0.00    -0.002 A 
HETATM   23  C   UNL     1     -39.917  51.688 -51.944  1.00  0.00     0.042 A 
HETATM   24  C   UNL     1     -39.893  51.063 -54.272  1.00  0.00     0.014 A 
HETATM   25  C   UNL     1     -39.651  50.373 -51.542  1.00  0.00     0.030 A 
HETATM   26  N   UNL     1     -40.104  52.825 -51.192  1.00  0.00    -0.365 N 
HETATM   27  C   UNL     1     -39.509  49.407 -52.542  1.00  0.00     0.002 A 
HETATM   28  C   UNL     1     -39.627  49.743 -53.888  1.00  0.00     0.001 A 
HETATM   29  H   UNL     1     -40.070  52.853 -50.183  1.00  0.00     0.165 HD
HETATM   30  C   UNL     1     -40.338  53.899 -52.007  1.00  0.00     0.096 A 
ENDBRANCH  20  21
ENDBRANCH  19  20
ENDBRANCH   3  19
TORSDOF 6
ENDMDL
MODEL 4
REMARK VINA RESULT:      -8.2      1.872      2.288
REMARK  6 active torsions:
REMARK  status: ('A' for Active; 'I' for Inactive)
REMARK    1  A    between atoms: O_2  and  C_3 
REMARK    2  A    between atoms: C_5  and  C_6 
REMARK       I    between atoms: C_6  and  N_7 
REMARK    3  A    between atoms: N_7  and  C_8 
REMARK    4  A    between atoms: C_10  and  C_11 
REMARK    5  A    between atoms: C_11  and  C_12 
REMARK    6  A    between atoms: C_12  and  C_13 
ROOT
HETATM    1  C   UNL     1     -44.000  56.412 -53.978  1.00  0.00     0.725 A 
HETATM    2  N   UNL     1     -43.217  55.678 -53.225  1.00  0.00    -0.046 NA
HETATM    3  C   UNL     1     -43.491  56.126 -51.954  1.00  0.00     0.166 A 
HETATM    4  N   UNL     1     -44.399  57.110 -51.889  1.00  0.00    -0.144 NA
HETATM    5  N   UNL     1     -44.709  57.274 -53.188  1.00  0.00    -0.106 N 
HETATM    6  H   UNL     1     -45.396  57.960 -53.485  1.00  0.00     0.208 HD
ENDROOT
BRANCH   1   7
HETATM    7  N   UNL     1     -44.093  56.324 -55.342  1.00  0.00    -0.152 N 
HETATM    8  C   UNL     1     -43.337  57.123 -56.172  1.00  0.00     0.270 C 
HETATM    9  O   UNL     1     -42.546  57.976 -55.773  1.00  0.00    -0.267 OA
HETATM   10  H   UNL     1     -44.794  55.685 -55.686  1.00  0.00     0.187 HD
BRANCH   8  11
HETATM   11  C   UNL     1     -43.542  56.925 -57.634  1.00  0.00     0.035 A 
HETATM   12  C   UNL     1     -44.067  57.988 -58.380  1.00  0.00     0.053 A 
HETATM   13  C   UNL     1     -44.284  57.858 -59.754  1.00  0.00     0.069 A 
HETATM   14  C   UNL     1     -43.967  56.655 -60.386  1.00  0.00     0.037 A 
HETATM   15  C   UNL     1     -43.426  55.596 -59.651  1.00  0.00     0.004 A 
HETATM   16  C   UNL     1     -43.209  55.728 -58.279  1.00  0.00     0.017 A 
BRANCH  13  17
HETATM   17  O   UNL     1     -44.808  58.968 -60.357  1.00  0.00    -0.356 OA
HETATM   18  C   UNL     1     -43.907  59.799 -61.077  1.00  0.00     0.210 C 
ENDBRANCH  13  17
ENDBRANCH   8  11
ENDBRANCH   1   7
BRANCH   3  19
HETATM   19  C   UNL     1     -42.833  55.573 -50.740  1.00  0.00     0.087 C 
BRANCH  19  20
HETATM   20  C   UNL     1     -41.311  55.492 -50.872  1.00  0.00     0.048 C 
BRANCH  20  21
HETATM   21  C   UNL     1     -40.817  54.080 -50.928  1.00  0.00    -0.030 A 
HETATM   22  C   UNL     1     -40.494  53.332 -52.106  1.00  0.00    -0.002 A 
HETATM   23  C   UNL     1     -40.064  52.069 -51.696  1.00  0.00     0.042 A 
HETATM   24  C   UNL     1     -40.526  53.614 -53.487  1.00  0.00     0.014 A 
HETATM   25  C   UNL     1     -39.661  51.076 -52.596  1.00  0.00     0.030 A 
HETATM   26  N   UNL     1     -40.128  52.048 -50.322  1.00  0.00    -0.365 N 
HETATM   27  C   UNL     1     -39.702  51.383 -53.960  1.00  0.00     0.002 A 
HETATM   28  C   UNL     1     -40.128  52.632 -54.402  1.00  0.00     0.001 A 
HETATM   29  H   UNL     1     -39.874  51.254 -49.751  1.00  0.00     0.165 HD
HETATM   30  C   UNL     1     -40.579  53.250 -49.849  1.00  0.00     0.096 A 
ENDBRANCH  20  21
ENDBRANCH  19  20
ENDBRANCH   3  19
TORSDOF 6
ENDMDL
MODEL 5
REMARK VINA RESULT:      -8.1      2.761      8.968
REMARK  6 active torsions:
REMARK  status: ('A' for Active; 'I' for Inactive)
REMARK    1  A    between atoms: O_2  and  C_3 
REMARK    2  A    between atoms: C_5  and  C_6 
REMARK       I    between atoms: C_6  and  N_7 
REMARK    3  A    between atoms: N_7  and  C_8 
REMARK    4  A    between atoms: C_10  and  C_11 
REMARK    5  A    between atoms: C_11  and  C_12 
REMARK    6  A    between atoms: C_12  and  C_13 
ROOT
HETATM    1  C   UNL     1     -43.307  55.941 -54.492  1.00  0.00     0.725 A 
HETATM    2  N   UNL     1     -42.891  56.900 -55.283  1.00  0.00    -0.046 NA
HETATM    3  C   UNL     1     -44.025  57.650 -55.494  1.00  0.00     0.166 A 
HETATM    4  N   UNL     1     -45.124  57.191 -54.878  1.00  0.00    -0.144 NA
HETATM    5  N   UNL     1     -44.643  56.105 -54.247  1.00  0.00    -0.106 N 
HETATM    6  H   UNL     1     -45.239  55.522 -53.667  1.00  0.00     0.208 HD
ENDROOT
BRANCH   1   7
HETATM    7  N   UNL     1     -42.524  54.936 -53.989  1.00  0.00    -0.152 N 
HETATM    8  C   UNL     1     -42.200  54.872 -52.652  1.00  0.00     0.270 C 
HETATM    9  O   UNL     1     -42.559  55.698 -51.816  1.00  0.00    -0.267 OA
HETATM   10  H   UNL     1     -42.156  54.293 -54.674  1.00  0.00     0.187 HD
BRANCH   8  11
HETATM   11  C   UNL     1     -41.337  53.728 -52.243  1.00  0.00     0.035 A 
HETATM   12  C   UNL     1     -40.720  52.971 -53.248  1.00  0.00     0.053 A 
HETATM   13  C   UNL     1     -39.902  51.885 -52.924  1.00  0.00     0.069 A 
HETATM   14  C   UNL     1     -39.698  51.559 -51.582  1.00  0.00     0.037 A 
HETATM   15  C   UNL     1     -40.297  52.320 -50.574  1.00  0.00     0.004 A 
HETATM   16  C   UNL     1     -41.112  53.405 -50.900  1.00  0.00     0.017 A 
BRANCH  13  17
HETATM   17  O   UNL     1     -39.371  51.230 -53.999  1.00  0.00    -0.356 OA
HETATM   18  C   UNL     1     -39.989  50.008 -54.383  1.00  0.00     0.210 C 
ENDBRANCH  13  17
ENDBRANCH   8  11
ENDBRANCH   1   7
BRANCH   3  19
HETATM   19  C   UNL     1     -44.044  58.871 -56.342  1.00  0.00     0.087 C 
BRANCH  19  20
HETATM   20  C   UNL     1     -43.195  58.731 -57.606  1.00  0.00     0.048 C 
BRANCH  20  21
HETATM   21  C   UNL     1     -43.988  58.234 -58.775  1.00  0.00    -0.030 A 
HETATM   22  C   UNL     1     -44.166  56.869 -59.170  1.00  0.00    -0.002 A 
HETATM   23  C   UNL     1     -44.984  56.864 -60.301  1.00  0.00     0.042 A 
HETATM   24  C   UNL     1     -43.707  55.635 -58.668  1.00  0.00     0.014 A 
HETATM   25  C   UNL     1     -45.368  55.687 -60.953  1.00  0.00     0.030 A 
HETATM   26  N   UNL     1     -45.287  58.175 -60.586  1.00  0.00    -0.365 N 
HETATM   27  C   UNL     1     -44.900  54.476 -60.434  1.00  0.00     0.002 A 
HETATM   28  C   UNL     1     -44.081  54.447 -59.308  1.00  0.00     0.001 A 
HETATM   29  H   UNL     1     -45.868  58.472 -61.357  1.00  0.00     0.165 HD
HETATM   30  C   UNL     1     -44.695  59.008 -59.676  1.00  0.00     0.096 A 
ENDBRANCH  20  21
ENDBRANCH  19  20
ENDBRANCH   3  19
TORSDOF 6
ENDMDL
MODEL 6
REMARK VINA RESULT:      -8.1      2.741      8.860
REMARK  6 active torsions:
REMARK  status: ('A' for Active; 'I' for Inactive)
REMARK    1  A    between atoms: O_2  and  C_3 
REMARK    2  A    between atoms: C_5  and  C_6 
REMARK       I    between atoms: C_6  and  N_7 
REMARK    3  A    between atoms: N_7  and  C_8 
REMARK    4  A    between atoms: C_10  and  C_11 
REMARK    5  A    between atoms: C_11  and  C_12 
REMARK    6  A    between atoms: C_12  and  C_13 
ROOT
HETATM    1  C   UNL     1     -43.394  56.332 -54.315  1.00  0.00     0.725 A 
HETATM    2  N   UNL     1     -43.056  57.444 -54.921  1.00  0.00    -0.046 NA
HETATM    3  C   UNL     1     -44.267  57.993 -55.271  1.00  0.00     0.166 A 
HETATM    4  N   UNL     1     -45.337  57.265 -54.919  1.00  0.00    -0.144 NA
HETATM    5  N   UNL     1     -44.757  56.214 -54.311  1.00  0.00    -0.106 N 
HETATM    6  H   UNL     1     -45.310  55.463 -53.910  1.00  0.00     0.208 HD
ENDROOT
BRANCH   1   7
HETATM    7  N   UNL     1     -42.517  55.432 -53.769  1.00  0.00    -0.152 N 
HETATM    8  C   UNL     1     -42.304  54.194 -54.336  1.00  0.00     0.270 C 
HETATM    9  O   UNL     1     -42.880  53.790 -55.344  1.00  0.00    -0.267 OA
HETATM   10  H   UNL     1     -42.094  55.716 -52.898  1.00  0.00     0.187 HD
BRANCH   8  11
HETATM   11  C   UNL     1     -41.327  53.314 -53.635  1.00  0.00     0.035 A 
HETATM   12  C   UNL     1     -41.019  53.599 -52.298  1.00  0.00     0.053 A 
HETATM   13  C   UNL     1     -40.107  52.810 -51.592  1.00  0.00     0.069 A 
HETATM   14  C   UNL     1     -39.504  51.724 -52.229  1.00  0.00     0.037 A 
HETATM   15  C   UNL     1     -39.820  51.424 -53.557  1.00  0.00     0.004 A 
HETATM   16  C   UNL     1     -40.732  52.212 -54.260  1.00  0.00     0.017 A 
BRANCH  13  17
HETATM   17  O   UNL     1     -39.892  53.204 -50.300  1.00  0.00    -0.356 OA
HETATM   18  C   UNL     1     -40.292  54.522 -49.950  1.00  0.00     0.210 C 
ENDBRANCH  13  17
ENDBRANCH   8  11
ENDBRANCH   1   7
BRANCH   3  19
HETATM   19  C   UNL     1     -44.393  59.289 -55.990  1.00  0.00     0.087 C 
BRANCH  19  20
HETATM   20  C   UNL     1     -43.889  59.220 -57.433  1.00  0.00     0.048 C 
BRANCH  20  21
HETATM   21  C   UNL     1     -44.849  58.519 -58.342  1.00  0.00    -0.030 A 
HETATM   22  C   UNL     1     -44.717  57.194 -58.870  1.00  0.00    -0.002 A 
HETATM   23  C   UNL     1     -45.841  56.943 -59.658  1.00  0.00     0.042 A 
HETATM   24  C   UNL     1     -43.742  56.183 -58.748  1.00  0.00     0.014 A 
HETATM   25  C   UNL     1     -46.042  55.730 -60.327  1.00  0.00     0.030 A 
HETATM   26  N   UNL     1     -46.624  58.073 -59.615  1.00  0.00    -0.365 N 
HETATM   27  C   UNL     1     -45.060  54.744 -60.189  1.00  0.00     0.002 A 
HETATM   28  C   UNL     1     -43.926  54.964 -59.412  1.00  0.00     0.001 A 
HETATM   29  H   UNL     1     -47.506  58.174 -60.097  1.00  0.00     0.165 HD
HETATM   30  C   UNL     1     -46.039  59.027 -58.828  1.00  0.00     0.096 A 
ENDBRANCH  20  21
ENDBRANCH  19  20
ENDBRANCH   3  19
TORSDOF 6
ENDMDL
MODEL 7
REMARK VINA RESULT:      -8.1      3.225      3.798
REMARK  6 active torsions:
REMARK  status: ('A' for Active; 'I' for Inactive)
REMARK    1  A    between atoms: O_2  and  C_3 
REMARK    2  A    between atoms: C_5  and  C_6 
REMARK       I    between atoms: C_6  and  N_7 
REMARK    3  A    between atoms: N_7  and  C_8 
REMARK    4  A    between atoms: C_10  and  C_11 
REMARK    5  A    between atoms: C_11  and  C_12 
REMARK    6  A    between atoms: C_12  and  C_13 
ROOT
HETATM    1  C   UNL     1     -42.555  56.669 -56.650  1.00  0.00     0.725 A 
HETATM    2  N   UNL     1     -42.134  56.450 -55.428  1.00  0.00    -0.046 NA
HETATM    3  C   UNL     1     -42.568  55.171 -55.170  1.00  0.00     0.166 A 
HETATM    4  N   UNL     1     -43.246  54.594 -56.173  1.00  0.00    -0.144 NA
HETATM    5  N   UNL     1     -43.223  55.566 -57.104  1.00  0.00    -0.106 N 
HETATM    6  H   UNL     1     -43.656  55.438 -58.013  1.00  0.00     0.208 HD
ENDROOT
BRANCH   1   7
HETATM    7  N   UNL     1     -42.351  57.823 -57.361  1.00  0.00    -0.152 N 
HETATM    8  C   UNL     1     -42.222  57.815 -58.732  1.00  0.00     0.270 C 
HETATM    9  O   UNL     1     -42.258  56.797 -59.421  1.00  0.00    -0.267 OA
HETATM   10  H   UNL     1     -42.240  58.658 -56.804  1.00  0.00     0.187 HD
BRANCH   8  11
HETATM   11  C   UNL     1     -42.000  59.141 -59.375  1.00  0.00     0.035 A 
HETATM   12  C   UNL     1     -41.627  60.218 -58.561  1.00  0.00     0.053 A 
HETATM   13  C   UNL     1     -41.408  61.485 -59.108  1.00  0.00     0.069 A 
HETATM   14  C   UNL     1     -41.559  61.672 -60.483  1.00  0.00     0.037 A 
HETATM   15  C   UNL     1     -41.914  60.597 -61.304  1.00  0.00     0.004 A 
HETATM   16  C   UNL     1     -42.131  59.333 -60.755  1.00  0.00     0.017 A 
BRANCH  13  17
HETATM   17  O   UNL     1     -41.058  62.446 -58.201  1.00  0.00    -0.356 OA
HETATM   18  C   UNL     1     -40.782  63.745 -58.709  1.00  0.00     0.210 C 
ENDBRANCH  13  17
ENDBRANCH   8  11
ENDBRANCH   1   7
BRANCH   3  19
HETATM   19  C   UNL     1     -42.316  54.473 -53.881  1.00  0.00     0.087 C 
BRANCH  19  20
HETATM   20  C   UNL     1     -40.867  54.602 -53.407  1.00  0.00     0.048 C 
BRANCH  20  21
HETATM   21  C   UNL     1     -40.444  53.456 -52.542  1.00  0.00    -0.030 A 
HETATM   22  C   UNL     1     -40.176  52.116 -52.969  1.00  0.00    -0.002 A 
HETATM   23  C   UNL     1     -39.803  51.384 -51.840  1.00  0.00     0.042 A 
HETATM   24  C   UNL     1     -40.215  51.456 -54.214  1.00  0.00     0.014 A 
HETATM   25  C   UNL     1     -39.463  50.027 -51.895  1.00  0.00     0.030 A 
HETATM   26  N   UNL     1     -39.847  52.245 -50.769  1.00  0.00    -0.365 N 
HETATM   27  C   UNL     1     -39.509  49.398 -53.143  1.00  0.00     0.002 A 
HETATM   28  C   UNL     1     -39.880  50.098 -54.287  1.00  0.00     0.001 A 
HETATM   29  H   UNL     1     -39.624  51.984 -49.818  1.00  0.00     0.165 HD
HETATM   30  C   UNL     1     -40.231  53.492 -51.177  1.00  0.00     0.096 A 
ENDBRANCH  20  21
ENDBRANCH  19  20
ENDBRANCH   3  19
TORSDOF 6
ENDMDL
MODEL 8
REMARK VINA RESULT:      -8.0      2.209      3.029
REMARK  6 active torsions:
REMARK  status: ('A' for Active; 'I' for Inactive)
REMARK    1  A    between atoms: O_2  and  C_3 
REMARK    2  A    between atoms: C_5  and  C_6 
REMARK       I    between atoms: C_6  and  N_7 
REMARK    3  A    between atoms: N_7  and  C_8 
REMARK    4  A    between atoms: C_10  and  C_11 
REMARK    5  A    between atoms: C_11  and  C_12 
REMARK    6  A    between atoms: C_12  and  C_13 
ROOT
HETATM    1  C   UNL     1     -42.733  57.642 -53.919  1.00  0.00     0.725 A 
HETATM    2  N   UNL     1     -41.819  57.088 -53.160  1.00  0.00    -0.046 NA
HETATM    3  C   UNL     1     -42.387  57.118 -51.908  1.00  0.00     0.166 A 
HETATM    4  N   UNL     1     -43.606  57.675 -51.857  1.00  0.00    -0.144 NA
HETATM    5  N   UNL     1     -43.805  57.999 -53.148  1.00  0.00    -0.106 N 
HETATM    6  H   UNL     1     -44.665  58.443 -53.455  1.00  0.00     0.208 HD
ENDROOT
BRANCH   1   7
HETATM    7  N   UNL     1     -42.630  57.828 -55.272  1.00  0.00    -0.152 N 
HETATM    8  C   UNL     1     -42.918  56.820 -56.166  1.00  0.00     0.270 C 
HETATM    9  O   UNL     1     -43.266  55.688 -55.837  1.00  0.00    -0.267 OA
HETATM   10  H   UNL     1     -42.271  58.728 -55.557  1.00  0.00     0.187 HD
BRANCH   8  11
HETATM   11  C   UNL     1     -42.759  57.161 -57.607  1.00  0.00     0.035 A 
HETATM   12  C   UNL     1     -43.307  56.290 -58.558  1.00  0.00     0.053 A 
HETATM   13  C   UNL     1     -43.187  56.556 -59.925  1.00  0.00     0.069 A 
HETATM   14  C   UNL     1     -42.516  57.708 -60.340  1.00  0.00     0.037 A 
HETATM   15  C   UNL     1     -41.982  58.590 -59.397  1.00  0.00     0.004 A 
HETATM   16  C   UNL     1     -42.105  58.322 -58.033  1.00  0.00     0.017 A 
BRANCH  13  17
HETATM   17  O   UNL     1     -43.758  55.621 -60.742  1.00  0.00    -0.356 OA
HETATM   18  C   UNL     1     -45.155  55.402 -60.596  1.00  0.00     0.210 C 
ENDBRANCH  13  17
ENDBRANCH   8  11
ENDBRANCH   1   7
BRANCH   3  19
HETATM   19  C   UNL     1     -41.710  56.584 -50.697  1.00  0.00     0.087 C 
BRANCH  19  20
HETATM   20  C   UNL     1     -42.203  55.190 -50.304  1.00  0.00     0.048 C 
BRANCH  20  21
HETATM   21  C   UNL     1     -41.255  54.109 -50.721  1.00  0.00    -0.030 A 
HETATM   22  C   UNL     1     -41.156  53.511 -52.018  1.00  0.00    -0.002 A 
HETATM   23  C   UNL     1     -40.136  52.560 -51.963  1.00  0.00     0.042 A 
HETATM   24  C   UNL     1     -41.840  53.692 -53.237  1.00  0.00     0.014 A 
HETATM   25  C   UNL     1     -39.764  51.783 -53.067  1.00  0.00     0.030 A 
HETATM   26  N   UNL     1     -39.638  52.575 -50.681  1.00  0.00    -0.365 N 
HETATM   27  C   UNL     1     -40.459  51.984 -54.264  1.00  0.00     0.002 A 
HETATM   28  C   UNL     1     -41.482  52.924 -54.351  1.00  0.00     0.001 A 
HETATM   29  H   UNL     1     -38.887  51.985 -50.354  1.00  0.00     0.165 HD
HETATM   30  C   UNL     1     -40.303  53.502 -49.925  1.00  0.00     0.096 A 
ENDBRANCH  20  21
ENDBRANCH  19  20
ENDBRANCH   3  19
TORSDOF 6
ENDMDL
MODEL 9
REMARK VINA RESULT:      -7.9      5.715      7.215
REMARK  6 active torsions:
REMARK  status: ('A' for Active; 'I' for Inactive)
REMARK    1  A    between atoms: O_2  and  C_3 
REMARK    2  A    between atoms: C_5  and  C_6 
REMARK       I    between atoms: C_6  and  N_7 
REMARK    3  A    between atoms: N_7  and  C_8 
REMARK    4  A    between atoms: C_10  and  C_11 
REMARK    5  A    between atoms: C_11  and  C_12 
REMARK    6  A    between atoms: C_12  and  C_13 
ROOT
HETATM    1  C   UNL     1     -43.738  57.754 -51.324  1.00  0.00     0.725 A 
HETATM    2  N   UNL     1     -43.135  57.356 -52.417  1.00  0.00    -0.046 NA
HETATM    3  C   UNL     1     -43.188  55.985 -52.326  1.00  0.00     0.166 A 
HETATM    4  N   UNL     1     -43.785  55.519 -51.220  1.00  0.00    -0.144 NA
HETATM    5  N   UNL     1     -44.129  56.662 -50.599  1.00  0.00    -0.106 N 
HETATM    6  H   UNL     1     -44.622  56.655 -49.712  1.00  0.00     0.208 HD
ENDROOT
BRANCH   1   7
HETATM    7  N   UNL     1     -43.947  59.061 -50.968  1.00  0.00    -0.152 N 
HETATM    8  C   UNL     1     -45.145  59.482 -50.433  1.00  0.00     0.270 C 
HETATM    9  O   UNL     1     -46.114  58.748 -50.250  1.00  0.00    -0.267 OA
HETATM   10  H   UNL     1     -43.190  59.693 -51.183  1.00  0.00     0.187 HD
BRANCH   8  11
HETATM   11  C   UNL     1     -45.235  60.931 -50.095  1.00  0.00     0.035 A 
HETATM   12  C   UNL     1     -46.029  61.752 -50.906  1.00  0.00     0.053 A 
HETATM   13  C   UNL     1     -46.148  63.119 -50.639  1.00  0.00     0.069 A 
HETATM   14  C   UNL     1     -45.471  63.664 -49.546  1.00  0.00     0.037 A 
HETATM   15  C   UNL     1     -44.692  62.847 -48.723  1.00  0.00     0.004 A 
HETATM   16  C   UNL     1     -44.575  61.482 -48.990  1.00  0.00     0.017 A 
BRANCH  13  17
HETATM   17  O   UNL     1     -46.945  63.804 -51.513  1.00  0.00    -0.356 OA
HETATM   18  C   UNL     1     -48.327  63.470 -51.527  1.00  0.00     0.210 C 
ENDBRANCH  13  17
ENDBRANCH   8  11
ENDBRANCH   1   7
BRANCH   3  19
HETATM   19  C   UNL     1     -42.622  55.080 -53.362  1.00  0.00     0.087 C 
BRANCH  19  20
HETATM   20  C   UNL     1     -41.095  55.002 -53.314  1.00  0.00     0.048 C 
BRANCH  20  21
HETATM   21  C   UNL     1     -40.607  53.842 -52.504  1.00  0.00    -0.030 A 
HETATM   22  C   UNL     1     -40.329  52.521 -52.981  1.00  0.00    -0.002 A 
HETATM   23  C   UNL     1     -39.888  51.767 -51.893  1.00  0.00     0.042 A 
HETATM   24  C   UNL     1     -40.412  51.896 -54.242  1.00  0.00     0.014 A 
HETATM   25  C   UNL     1     -39.521  50.420 -52.003  1.00  0.00     0.030 A 
HETATM   26  N   UNL     1     -39.901  52.595 -50.796  1.00  0.00    -0.365 N 
HETATM   27  C   UNL     1     -39.612  49.825 -53.265  1.00  0.00     0.002 A 
HETATM   28  C   UNL     1     -40.050  50.549 -54.370  1.00  0.00     0.001 A 
HETATM   29  H   UNL     1     -39.628  52.314 -49.865  1.00  0.00     0.165 HD
HETATM   30  C   UNL     1     -40.332  53.845 -51.150  1.00  0.00     0.096 A 
ENDBRANCH  20  21
ENDBRANCH  19  20
ENDBRANCH   3  19
TORSDOF 6
ENDMDL
MODEL 10
REMARK VINA RESULT:      -7.9      4.471      9.958
REMARK  6 active torsions:
REMARK  status: ('A' for Active; 'I' for Inactive)
REMARK    1  A    between atoms: O_2  and  C_3 
REMARK    2  A    between atoms: C_5  and  C_6 
REMARK       I    between atoms: C_6  and  N_7 
REMARK    3  A    between atoms: N_7  and  C_8 
REMARK    4  A    between atoms: C_10  and  C_11 
REMARK    5  A    between atoms: C_11  and  C_12 
REMARK    6  A    between atoms: C_12  and  C_13 
ROOT
HETATM    1  C   UNL     1     -42.576  56.135 -56.652  1.00  0.00     0.725 A 
HETATM    2  N   UNL     1     -42.695  57.438 -56.731  1.00  0.00    -0.046 NA
HETATM    3  C   UNL     1     -43.475  57.617 -57.849  1.00  0.00     0.166 A 
HETATM    4  N   UNL     1     -43.834  56.485 -58.471  1.00  0.00    -0.144 NA
HETATM    5  N   UNL     1     -43.252  55.556 -57.691  1.00  0.00    -0.106 N 
HETATM    6  H   UNL     1     -43.344  54.564 -57.890  1.00  0.00     0.208 HD
ENDROOT
BRANCH   1   7
HETATM    7  N   UNL     1     -41.886  55.461 -55.679  1.00  0.00    -0.152 N 
HETATM    8  C   UNL     1     -42.458  54.427 -54.970  1.00  0.00     0.270 C 
HETATM    9  O   UNL     1     -43.614  54.040 -55.130  1.00  0.00    -0.267 OA
HETATM   10  H   UNL     1     -40.963  55.817 -55.481  1.00  0.00     0.187 HD
BRANCH   8  11
HETATM   11  C   UNL     1     -41.595  53.787 -53.939  1.00  0.00     0.035 A 
HETATM   12  C   UNL     1     -40.794  52.704 -54.325  1.00  0.00     0.053 A 
HETATM   13  C   UNL     1     -39.966  52.062 -53.399  1.00  0.00     0.069 A 
HETATM   14  C   UNL     1     -39.938  52.513 -52.079  1.00  0.00     0.037 A 
HETATM   15  C   UNL     1     -40.721  53.604 -51.691  1.00  0.00     0.004 A 
HETATM   16  C   UNL     1     -41.545  54.245 -52.617  1.00  0.00     0.017 A 
BRANCH  13  17
HETATM   17  O   UNL     1     -39.247  51.016 -53.906  1.00  0.00    -0.356 OA
HETATM   18  C   UNL     1     -39.982  49.925 -54.444  1.00  0.00     0.210 C 
ENDBRANCH  13  17
ENDBRANCH   8  11
ENDBRANCH   1   7
BRANCH   3  19
HETATM   19  C   UNL     1     -43.888  58.958 -58.343  1.00  0.00     0.087 C 
BRANCH  19  20
HETATM   20  C   UNL     1     -43.039  59.447 -59.518  1.00  0.00     0.048 C 
BRANCH  20  21
HETATM   21  C   UNL     1     -42.066  60.512 -59.116  1.00  0.00    -0.030 A 
HETATM   22  C   UNL     1     -41.348  61.389 -59.991  1.00  0.00    -0.002 A 
HETATM   23  C   UNL     1     -40.566  62.227 -59.194  1.00  0.00     0.042 A 
HETATM   24  C   UNL     1     -41.293  61.550 -61.390  1.00  0.00     0.014 A 
HETATM   25  C   UNL     1     -39.734  63.219 -59.726  1.00  0.00     0.030 A 
HETATM   26  N   UNL     1     -40.795  61.869 -57.886  1.00  0.00    -0.365 N 
HETATM   27  C   UNL     1     -39.699  63.358 -61.117  1.00  0.00     0.002 A 
HETATM   28  C   UNL     1     -40.466  62.537 -61.940  1.00  0.00     0.001 A 
HETATM   29  H   UNL     1     -40.359  62.310 -57.089  1.00  0.00     0.165 HD
HETATM   30  C   UNL     1     -41.694  60.839 -57.826  1.00  0.00     0.096 A 
ENDBRANCH  20  21
ENDBRANCH  19  20
ENDBRANCH   3  19
TORSDOF 6
ENDMDL
