MODEL 1
REMARK VINA RESULT:      -7.5      0.000      0.000
REMARK  9 active torsions:
REMARK  status: ('A' for Active; 'I' for Inactive)
REMARK    1  A    between atoms: S_2  and  C_3 
REMARK    2  A    between atoms: C_3  and  C_4 
REMARK    3  A    between atoms: C_5  and  C_6 
REMARK    4  A    between atoms: C_6  and  O_7 
REMARK    5  A    between atoms: O_7  and  C_8 
REMARK    6  A    between atoms: C_8  and  C_9 
REMARK       I    between atoms: C_9  and  N_10 
REMARK    7  A    between atoms: N_10  and  C_11 
REMARK    8  A    between atoms: C_12  and  C_13 
REMARK       I    between atoms: C_13  and  N_14 
REMARK    9  A    between atoms: N_14  and  C_15 
ROOT
HETATM    1  C   UNL     1     -42.843  56.305 -54.861  1.00  0.00     0.246 C 
HETATM    2  N   UNL     1     -41.717  56.052 -54.097  1.00  0.00    -0.324 N 
HETATM    3  O   UNL     1     -43.982  55.953 -54.577  1.00  0.00    -0.271 OA
HETATM    4  H   UNL     1     -40.817  56.126 -54.565  1.00  0.00     0.169 HD
ENDROOT
BRANCH   1   5
HETATM    5  C   UNL     1     -42.519  57.049 -56.159  1.00  0.00     0.282 C 
BRANCH   5   6
HETATM    6  O   UNL     1     -43.050  58.374 -56.129  1.00  0.00    -0.307 OA
BRANCH   6   7
HETATM    7  C   UNL     1     -42.108  59.337 -55.893  1.00  0.00     0.318 C 
HETATM    8  O   UNL     1     -41.576  60.005 -56.771  1.00  0.00    -0.257 OA
BRANCH   7   9
HETATM    9  C   UNL     1     -41.877  59.499 -54.476  1.00  0.00     0.159 A 
HETATM   10  C   UNL     1     -42.670  60.093 -53.497  1.00  0.00     0.004 A 
HETATM   11  C   UNL     1     -41.953  59.954 -52.268  1.00  0.00     0.008 A 
HETATM   12  C   UNL     1     -40.779  59.284 -52.581  1.00  0.00     0.087 A 
HETATM   13  C   UNL     1     -42.176  60.324 -50.928  1.00  0.00     0.015 A 
HETATM   14  O   UNL     1     -40.732  59.004 -53.911  1.00  0.00    -0.303 OA
HETATM   15  C   UNL     1     -39.798  58.948 -51.650  1.00  0.00     0.038 A 
HETATM   16  C   UNL     1     -40.040  59.322 -50.325  1.00  0.00     0.003 A 
HETATM   17  C   UNL     1     -41.208  59.999 -49.967  1.00  0.00     0.001 A 
BRANCH  10  18
HETATM   18  C   UNL     1     -44.007  60.722 -53.689  1.00  0.00     0.116 C 
BRANCH  18  19
HETATM   19  S   UNL     1     -45.331  59.496 -53.464  1.00  0.00    -0.169 SA
HETATM   20  C   UNL     1     -45.851  59.976 -51.800  1.00  0.00     0.090 C 
ENDBRANCH  18  19
ENDBRANCH  10  18
ENDBRANCH   7   9
ENDBRANCH   6   7
ENDBRANCH   5   6
ENDBRANCH   1   5
BRANCH   2  21
HETATM   21  C   UNL     1     -41.696  55.611 -52.752  1.00  0.00     0.050 A 
HETATM   22  C   UNL     1     -40.955  54.465 -52.398  1.00  0.00     0.058 A 
HETATM   23  C   UNL     1     -40.801  54.095 -51.055  1.00  0.00     0.019 A 
HETATM   24  C   UNL     1     -41.416  54.844 -50.054  1.00  0.00     0.001 A 
HETATM   25  C   UNL     1     -42.183  55.956 -50.395  1.00  0.00     0.002 A 
HETATM   26  C   UNL     1     -42.323  56.338 -51.734  1.00  0.00     0.030 A 
BRANCH  22  27
HETATM   27  C   UNL     1     -40.382  53.556 -53.423  1.00  0.00     0.254 C 
HETATM   28  N   UNL     1     -40.182  52.260 -52.981  1.00  0.00    -0.352 N 
HETATM   29  H   UNL     1     -40.300  52.074 -51.989  1.00  0.00     0.163 HD
HETATM   30  O   UNL     1     -40.108  53.969 -54.541  1.00  0.00    -0.268 OA
BRANCH  28  31
HETATM   31  C   UNL     1     -39.633  51.222 -53.794  1.00  0.00     0.084 A 
HETATM   32  C   UNL     1     -39.648  49.796 -53.316  1.00  0.00     0.027 A 
HETATM   33  C   UNL     1     -40.548  50.217 -54.439  1.00  0.00     0.027 A 
ENDBRANCH  28  31
ENDBRANCH  22  27
ENDBRANCH   2  21
TORSDOF 9
ENDMDL
MODEL 2
REMARK VINA RESULT:      -7.5      3.496      7.450
REMARK  9 active torsions:
REMARK  status: ('A' for Active; 'I' for Inactive)
REMARK    1  A    between atoms: S_2  and  C_3 
REMARK    2  A    between atoms: C_3  and  C_4 
REMARK    3  A    between atoms: C_5  and  C_6 
REMARK    4  A    between atoms: C_6  and  O_7 
REMARK    5  A    between atoms: O_7  and  C_8 
REMARK    6  A    between atoms: C_8  and  C_9 
REMARK       I    between atoms: C_9  and  N_10 
REMARK    7  A    between atoms: N_10  and  C_11 
REMARK    8  A    between atoms: C_12  and  C_13 
REMARK       I    between atoms: C_13  and  N_14 
REMARK    9  A    between atoms: N_14  and  C_15 
ROOT
HETATM    1  C   UNL     1     -43.339  57.277 -56.961  1.00  0.00     0.246 C 
HETATM    2  N   UNL     1     -42.133  57.804 -57.393  1.00  0.00    -0.324 N 
HETATM    3  O   UNL     1     -44.441  57.772 -57.172  1.00  0.00    -0.271 OA
HETATM    4  H   UNL     1     -41.294  57.481 -56.917  1.00  0.00     0.169 HD
ENDROOT
BRANCH   1   5
HETATM    5  C   UNL     1     -43.162  56.004 -56.130  1.00  0.00     0.282 C 
BRANCH   5   6
HETATM    6  O   UNL     1     -41.898  56.006 -55.464  1.00  0.00    -0.307 OA
BRANCH   6   7
HETATM    7  C   UNL     1     -41.996  55.913 -54.102  1.00  0.00     0.318 C 
HETATM    8  O   UNL     1     -42.576  56.732 -53.400  1.00  0.00    -0.257 OA
BRANCH   7   9
HETATM    9  C   UNL     1     -41.381  54.698 -53.622  1.00  0.00     0.159 A 
HETATM   10  C   UNL     1     -40.903  54.371 -52.356  1.00  0.00     0.004 A 
HETATM   11  C   UNL     1     -40.414  53.031 -52.450  1.00  0.00     0.008 A 
HETATM   12  C   UNL     1     -40.632  52.634 -53.762  1.00  0.00     0.087 A 
HETATM   13  C   UNL     1     -39.814  52.116 -51.565  1.00  0.00     0.015 A 
HETATM   14  O   UNL     1     -41.218  53.635 -54.470  1.00  0.00    -0.303 OA
HETATM   15  C   UNL     1     -40.294  51.379 -54.265  1.00  0.00     0.038 A 
HETATM   16  C   UNL     1     -39.701  50.484 -53.369  1.00  0.00     0.003 A 
HETATM   17  C   UNL     1     -39.463  50.844 -52.041  1.00  0.00     0.001 A 
BRANCH  10  18
HETATM   18  C   UNL     1     -40.921  55.234 -51.141  1.00  0.00     0.116 C 
BRANCH  18  19
HETATM   19  S   UNL     1     -41.963  54.497 -49.846  1.00  0.00    -0.169 SA
HETATM   20  C   UNL     1     -43.576  54.794 -50.609  1.00  0.00     0.090 C 
ENDBRANCH  18  19
ENDBRANCH  10  18
ENDBRANCH   7   9
ENDBRANCH   6   7
ENDBRANCH   5   6
ENDBRANCH   1   5
BRANCH   2  21
HETATM   21  C   UNL     1     -41.959  58.814 -58.369  1.00  0.00     0.050 A 
HETATM   22  C   UNL     1     -42.326  58.571 -59.708  1.00  0.00     0.058 A 
HETATM   23  C   UNL     1     -42.299  59.600 -60.659  1.00  0.00     0.019 A 
HETATM   24  C   UNL     1     -41.870  60.873 -60.291  1.00  0.00     0.001 A 
HETATM   25  C   UNL     1     -41.467  61.115 -58.979  1.00  0.00     0.002 A 
HETATM   26  C   UNL     1     -41.510  60.094 -58.024  1.00  0.00     0.030 A 
BRANCH  22  27
HETATM   27  C   UNL     1     -42.672  57.210 -60.190  1.00  0.00     0.254 C 
HETATM   28  N   UNL     1     -44.025  57.008 -60.394  1.00  0.00    -0.352 N 
HETATM   29  H   UNL     1     -44.665  57.728 -60.071  1.00  0.00     0.163 HD
HETATM   30  O   UNL     1     -41.800  56.368 -60.358  1.00  0.00    -0.268 OA
BRANCH  28  31
HETATM   31  C   UNL     1     -44.583  55.773 -60.845  1.00  0.00     0.084 A 
HETATM   32  C   UNL     1     -44.715  54.610 -59.902  1.00  0.00     0.027 A 
HETATM   33  C   UNL     1     -45.940  55.345 -60.358  1.00  0.00     0.027 A 
ENDBRANCH  28  31
ENDBRANCH  22  27
ENDBRANCH   2  21
TORSDOF 9
ENDMDL
MODEL 3
REMARK VINA RESULT:      -7.2      2.806      5.087
REMARK  9 active torsions:
REMARK  status: ('A' for Active; 'I' for Inactive)
REMARK    1  A    between atoms: S_2  and  C_3 
REMARK    2  A    between atoms: C_3  and  C_4 
REMARK    3  A    between atoms: C_5  and  C_6 
REMARK    4  A    between atoms: C_6  and  O_7 
REMARK    5  A    between atoms: O_7  and  C_8 
REMARK    6  A    between atoms: C_8  and  C_9 
REMARK       I    between atoms: C_9  and  N_10 
REMARK    7  A    between atoms: N_10  and  C_11 
REMARK    8  A    between atoms: C_12  and  C_13 
REMARK       I    between atoms: C_13  and  N_14 
REMARK    9  A    between atoms: N_14  and  C_15 
ROOT
HETATM    1  C   UNL     1     -42.463  56.488 -53.197  1.00  0.00     0.246 C 
HETATM    2  N   UNL     1     -41.307  55.925 -52.685  1.00  0.00    -0.324 N 
HETATM    3  O   UNL     1     -43.603  56.190 -52.859  1.00  0.00    -0.271 OA
HETATM    4  H   UNL     1     -40.459  56.031 -53.238  1.00  0.00     0.169 HD
ENDROOT
BRANCH   1   5
HETATM    5  C   UNL     1     -42.180  57.518 -54.294  1.00  0.00     0.282 C 
BRANCH   5   6
HETATM    6  O   UNL     1     -43.100  57.370 -55.376  1.00  0.00    -0.307 OA
BRANCH   6   7
HETATM    7  C   UNL     1     -42.565  56.743 -56.469  1.00  0.00     0.318 C 
HETATM    8  O   UNL     1     -42.352  55.539 -56.531  1.00  0.00    -0.257 OA
BRANCH   7   9
HETATM    9  C   UNL     1     -42.349  57.679 -57.547  1.00  0.00     0.159 A 
HETATM   10  C   UNL     1     -42.418  57.496 -58.925  1.00  0.00     0.004 A 
HETATM   11  C   UNL     1     -42.124  58.767 -59.510  1.00  0.00     0.008 A 
HETATM   12  C   UNL     1     -41.900  59.635 -58.451  1.00  0.00     0.087 A 
HETATM   13  C   UNL     1     -42.026  59.271 -60.821  1.00  0.00     0.015 A 
HETATM   14  O   UNL     1     -42.039  58.983 -57.266  1.00  0.00    -0.303 OA
HETATM   15  C   UNL     1     -41.583  60.984 -58.599  1.00  0.00     0.038 A 
HETATM   16  C   UNL     1     -41.493  61.465 -59.909  1.00  0.00     0.003 A 
HETATM   17  C   UNL     1     -41.709  60.625 -61.003  1.00  0.00     0.001 A 
BRANCH  10  18
HETATM   18  C   UNL     1     -42.758  56.236 -59.645  1.00  0.00     0.116 C 
BRANCH  18  19
HETATM   19  S   UNL     1     -44.448  56.312 -60.310  1.00  0.00    -0.169 SA
HETATM   20  C   UNL     1     -44.928  54.597 -59.999  1.00  0.00     0.090 C 
ENDBRANCH  18  19
ENDBRANCH  10  18
ENDBRANCH   7   9
ENDBRANCH   6   7
ENDBRANCH   5   6
ENDBRANCH   1   5
BRANCH   2  21
HETATM   21  C   UNL     1     -41.203  55.137 -51.513  1.00  0.00     0.050 A 
HETATM   22  C   UNL     1     -40.928  53.758 -51.614  1.00  0.00     0.058 A 
HETATM   23  C   UNL     1     -40.678  52.989 -50.469  1.00  0.00     0.019 A 
HETATM   24  C   UNL     1     -40.735  53.583 -49.210  1.00  0.00     0.001 A 
HETATM   25  C   UNL     1     -41.044  54.936 -49.095  1.00  0.00     0.002 A 
HETATM   26  C   UNL     1     -41.277  55.710 -50.238  1.00  0.00     0.030 A 
BRANCH  22  27
HETATM   27  C   UNL     1     -40.977  53.043 -52.914  1.00  0.00     0.254 C 
HETATM   28  N   UNL     1     -39.999  52.076 -53.066  1.00  0.00    -0.352 N 
HETATM   29  H   UNL     1     -39.264  52.034 -52.366  1.00  0.00     0.163 HD
HETATM   30  O   UNL     1     -41.817  53.334 -53.755  1.00  0.00    -0.268 OA
BRANCH  28  31
HETATM   31  C   UNL     1     -39.852  51.274 -54.238  1.00  0.00     0.084 A 
HETATM   32  C   UNL     1     -39.255  49.898 -54.146  1.00  0.00     0.027 A 
HETATM   33  C   UNL     1     -40.720  50.059 -54.424  1.00  0.00     0.027 A 
ENDBRANCH  28  31
ENDBRANCH  22  27
ENDBRANCH   2  21
TORSDOF 9
ENDMDL
MODEL 4
REMARK VINA RESULT:      -7.2      3.105      7.461
REMARK  9 active torsions:
REMARK  status: ('A' for Active; 'I' for Inactive)
REMARK    1  A    between atoms: S_2  and  C_3 
REMARK    2  A    between atoms: C_3  and  C_4 
REMARK    3  A    between atoms: C_5  and  C_6 
REMARK    4  A    between atoms: C_6  and  O_7 
REMARK    5  A    between atoms: O_7  and  C_8 
REMARK    6  A    between atoms: C_8  and  C_9 
REMARK       I    between atoms: C_9  and  N_10 
REMARK    7  A    between atoms: N_10  and  C_11 
REMARK    8  A    between atoms: C_12  and  C_13 
REMARK       I    between atoms: C_13  and  N_14 
REMARK    9  A    between atoms: N_14  and  C_15 
ROOT
HETATM    1  C   UNL     1     -44.545  58.365 -55.632  1.00  0.00     0.246 C 
HETATM    2  N   UNL     1     -43.321  57.949 -56.128  1.00  0.00    -0.324 N 
HETATM    3  O   UNL     1     -45.531  58.622 -56.314  1.00  0.00    -0.271 OA
HETATM    4  H   UNL     1     -42.517  58.054 -55.513  1.00  0.00     0.169 HD
ENDROOT
BRANCH   1   5
HETATM    5  C   UNL     1     -44.542  58.523 -54.110  1.00  0.00     0.282 C 
BRANCH   5   6
HETATM    6  O   UNL     1     -44.492  57.248 -53.469  1.00  0.00    -0.307 OA
BRANCH   6   7
HETATM    7  C   UNL     1     -43.507  57.149 -52.524  1.00  0.00     0.318 C 
HETATM    8  O   UNL     1     -43.400  57.901 -51.564  1.00  0.00    -0.257 OA
BRANCH   7   9
HETATM    9  C   UNL     1     -42.659  56.008 -52.781  1.00  0.00     0.159 A 
HETATM   10  C   UNL     1     -42.258  54.976 -51.935  1.00  0.00     0.004 A 
HETATM   11  C   UNL     1     -41.434  54.115 -52.723  1.00  0.00     0.008 A 
HETATM   12  C   UNL     1     -41.392  54.677 -53.992  1.00  0.00     0.087 A 
HETATM   13  C   UNL     1     -40.722  52.921 -52.496  1.00  0.00     0.015 A 
HETATM   14  O   UNL     1     -42.133  55.816 -54.031  1.00  0.00    -0.303 OA
HETATM   15  C   UNL     1     -40.688  54.134 -55.065  1.00  0.00     0.038 A 
HETATM   16  C   UNL     1     -39.990  52.948 -54.819  1.00  0.00     0.003 A 
HETATM   17  C   UNL     1     -40.005  52.350 -53.557  1.00  0.00     0.001 A 
BRANCH  10  18
HETATM   18  C   UNL     1     -42.635  54.794 -50.505  1.00  0.00     0.116 C 
BRANCH  18  19
HETATM   19  S   UNL     1     -41.324  55.417 -49.411  1.00  0.00    -0.169 SA
HETATM   20  C   UNL     1     -40.733  53.828 -48.781  1.00  0.00     0.090 C 
ENDBRANCH  18  19
ENDBRANCH  10  18
ENDBRANCH   7   9
ENDBRANCH   6   7
ENDBRANCH   5   6
ENDBRANCH   1   5
BRANCH   2  21
HETATM   21  C   UNL     1     -43.060  57.478 -57.437  1.00  0.00     0.050 A 
HETATM   22  C   UNL     1     -42.271  58.246 -58.317  1.00  0.00     0.058 A 
HETATM   23  C   UNL     1     -41.880  57.736 -59.563  1.00  0.00     0.019 A 
HETATM   24  C   UNL     1     -42.301  56.468 -59.956  1.00  0.00     0.001 A 
HETATM   25  C   UNL     1     -43.113  55.715 -59.110  1.00  0.00     0.002 A 
HETATM   26  C   UNL     1     -43.491  56.215 -57.859  1.00  0.00     0.030 A 
BRANCH  22  27
HETATM   27  C   UNL     1     -41.896  59.650 -58.010  1.00  0.00     0.254 C 
HETATM   28  N   UNL     1     -41.891  60.488 -59.111  1.00  0.00    -0.352 N 
HETATM   29  H   UNL     1     -41.997  60.065 -60.028  1.00  0.00     0.163 HD
HETATM   30  O   UNL     1     -41.604  59.982 -56.870  1.00  0.00    -0.268 OA
BRANCH  28  31
HETATM   31  C   UNL     1     -41.551  61.874 -59.049  1.00  0.00     0.084 A 
HETATM   32  C   UNL     1     -40.138  62.296 -58.756  1.00  0.00     0.027 A 
HETATM   33  C   UNL     1     -40.703  62.482 -60.133  1.00  0.00     0.027 A 
ENDBRANCH  28  31
ENDBRANCH  22  27
ENDBRANCH   2  21
TORSDOF 9
ENDMDL
MODEL 5
REMARK VINA RESULT:      -7.2      2.997      7.160
REMARK  9 active torsions:
REMARK  status: ('A' for Active; 'I' for Inactive)
REMARK    1  A    between atoms: S_2  and  C_3 
REMARK    2  A    between atoms: C_3  and  C_4 
REMARK    3  A    between atoms: C_5  and  C_6 
REMARK    4  A    between atoms: C_6  and  O_7 
REMARK    5  A    between atoms: O_7  and  C_8 
REMARK    6  A    between atoms: C_8  and  C_9 
REMARK       I    between atoms: C_9  and  N_10 
REMARK    7  A    between atoms: N_10  and  C_11 
REMARK    8  A    between atoms: C_12  and  C_13 
REMARK       I    between atoms: C_13  and  N_14 
REMARK    9  A    between atoms: N_14  and  C_15 
ROOT
HETATM    1  C   UNL     1     -43.399  59.088 -55.484  1.00  0.00     0.246 C 
HETATM    2  N   UNL     1     -42.366  58.514 -56.206  1.00  0.00    -0.324 N 
HETATM    3  O   UNL     1     -44.514  59.340 -55.927  1.00  0.00    -0.271 OA
HETATM    4  H   UNL     1     -41.427  58.627 -55.833  1.00  0.00     0.169 HD
ENDROOT
BRANCH   1   5
HETATM    5  C   UNL     1     -42.994  59.432 -54.049  1.00  0.00     0.282 C 
BRANCH   5   6
HETATM    6  O   UNL     1     -41.581  59.616 -53.952  1.00  0.00    -0.307 OA
BRANCH   6   7
HETATM    7  C   UNL     1     -41.021  58.998 -52.868  1.00  0.00     0.318 C 
HETATM    8  O   UNL     1     -40.624  59.589 -51.871  1.00  0.00    -0.257 OA
BRANCH   7   9
HETATM    9  C   UNL     1     -41.021  57.563 -53.034  1.00  0.00     0.159 A 
HETATM   10  C   UNL     1     -41.513  56.561 -52.202  1.00  0.00     0.004 A 
HETATM   11  C   UNL     1     -41.255  55.326 -52.874  1.00  0.00     0.008 A 
HETATM   12  C   UNL     1     -40.629  55.660 -54.067  1.00  0.00     0.087 A 
HETATM   13  C   UNL     1     -41.487  53.964 -52.598  1.00  0.00     0.015 A 
HETATM   14  O   UNL     1     -40.490  57.008 -54.168  1.00  0.00    -0.303 OA
HETATM   15  C   UNL     1     -40.212  54.731 -55.018  1.00  0.00     0.038 A 
HETATM   16  C   UNL     1     -40.454  53.385 -54.726  1.00  0.00     0.003 A 
HETATM   17  C   UNL     1     -41.080  53.005 -53.537  1.00  0.00     0.001 A 
BRANCH  10  18
HETATM   18  C   UNL     1     -42.196  56.741 -50.890  1.00  0.00     0.116 C 
BRANCH  18  19
HETATM   19  S   UNL     1     -43.924  56.183 -50.983  1.00  0.00    -0.169 SA
HETATM   20  C   UNL     1     -44.709  57.799 -51.190  1.00  0.00     0.090 C 
ENDBRANCH  18  19
ENDBRANCH  10  18
ENDBRANCH   7   9
ENDBRANCH   6   7
ENDBRANCH   5   6
ENDBRANCH   1   5
BRANCH   2  21
HETATM   21  C   UNL     1     -42.476  57.864 -57.459  1.00  0.00     0.050 A 
HETATM   22  C   UNL     1     -42.019  58.507 -58.627  1.00  0.00     0.058 A 
HETATM   23  C   UNL     1     -41.984  57.830 -59.854  1.00  0.00     0.019 A 
HETATM   24  C   UNL     1     -42.437  56.515 -59.932  1.00  0.00     0.001 A 
HETATM   25  C   UNL     1     -42.927  55.882 -58.792  1.00  0.00     0.002 A 
HETATM   26  C   UNL     1     -42.947  56.551 -57.563  1.00  0.00     0.030 A 
BRANCH  22  27
HETATM   27  C   UNL     1     -41.642  59.944 -58.635  1.00  0.00     0.254 C 
HETATM   28  N   UNL     1     -42.035  60.627 -59.772  1.00  0.00    -0.352 N 
HETATM   29  H   UNL     1     -42.406  60.083 -60.546  1.00  0.00     0.163 HD
HETATM   30  O   UNL     1     -41.019  60.429 -57.701  1.00  0.00    -0.268 OA
BRANCH  28  31
HETATM   31  C   UNL     1     -41.769  62.012 -59.996  1.00  0.00     0.084 A 
HETATM   32  C   UNL     1     -40.391  62.465 -60.391  1.00  0.00     0.027 A 
HETATM   33  C   UNL     1     -41.507  62.504 -61.393  1.00  0.00     0.027 A 
ENDBRANCH  28  31
ENDBRANCH  22  27
ENDBRANCH   2  21
TORSDOF 9
ENDMDL
MODEL 6
REMARK VINA RESULT:      -7.1      2.734      5.179
REMARK  9 active torsions:
REMARK  status: ('A' for Active; 'I' for Inactive)
REMARK    1  A    between atoms: S_2  and  C_3 
REMARK    2  A    between atoms: C_3  and  C_4 
REMARK    3  A    between atoms: C_5  and  C_6 
REMARK    4  A    between atoms: C_6  and  O_7 
REMARK    5  A    between atoms: O_7  and  C_8 
REMARK    6  A    between atoms: C_8  and  C_9 
REMARK       I    between atoms: C_9  and  N_10 
REMARK    7  A    between atoms: N_10  and  C_11 
REMARK    8  A    between atoms: C_12  and  C_13 
REMARK       I    between atoms: C_13  and  N_14 
REMARK    9  A    between atoms: N_14  and  C_15 
ROOT
HETATM    1  C   UNL     1     -42.326  56.440 -53.254  1.00  0.00     0.246 C 
HETATM    2  N   UNL     1     -42.468  55.236 -52.585  1.00  0.00    -0.324 N 
HETATM    3  O   UNL     1     -41.724  57.419 -52.825  1.00  0.00    -0.271 OA
HETATM    4  H   UNL     1     -43.217  54.623 -52.897  1.00  0.00     0.169 HD
ENDROOT
BRANCH   1   5
HETATM    5  C   UNL     1     -43.050  56.454 -54.602  1.00  0.00     0.282 C 
BRANCH   5   6
HETATM    6  O   UNL     1     -42.142  56.758 -55.661  1.00  0.00    -0.307 OA
BRANCH   6   7
HETATM    7  C   UNL     1     -42.536  57.817 -56.434  1.00  0.00     0.318 C 
HETATM    8  O   UNL     1     -42.103  58.956 -56.307  1.00  0.00    -0.257 OA
BRANCH   7   9
HETATM    9  C   UNL     1     -43.474  57.396 -57.448  1.00  0.00     0.159 A 
HETATM   10  C   UNL     1     -44.770  57.830 -57.711  1.00  0.00     0.004 A 
HETATM   11  C   UNL     1     -45.220  57.077 -58.839  1.00  0.00     0.008 A 
HETATM   12  C   UNL     1     -44.169  56.240 -59.187  1.00  0.00     0.087 A 
HETATM   13  C   UNL     1     -46.404  57.017 -59.600  1.00  0.00     0.015 A 
HETATM   14  O   UNL     1     -43.113  56.434 -58.353  1.00  0.00    -0.303 OA
HETATM   15  C   UNL     1     -44.206  55.339 -60.249  1.00  0.00     0.038 A 
HETATM   16  C   UNL     1     -45.388  55.297 -60.993  1.00  0.00     0.003 A 
HETATM   17  C   UNL     1     -46.471  56.120 -60.676  1.00  0.00     0.001 A 
BRANCH  10  18
HETATM   18  C   UNL     1     -45.526  58.887 -56.980  1.00  0.00     0.116 C 
BRANCH  18  19
HETATM   19  S   UNL     1     -45.260  60.513 -57.748  1.00  0.00    -0.169 SA
HETATM   20  C   UNL     1     -44.655  61.394 -56.290  1.00  0.00     0.090 C 
ENDBRANCH  18  19
ENDBRANCH  10  18
ENDBRANCH   7   9
ENDBRANCH   6   7
ENDBRANCH   5   6
ENDBRANCH   1   5
BRANCH   2  21
HETATM   21  C   UNL     1     -41.734  54.813 -51.450  1.00  0.00     0.050 A 
HETATM   22  C   UNL     1     -40.610  53.977 -51.611  1.00  0.00     0.058 A 
HETATM   23  C   UNL     1     -39.786  53.665 -50.521  1.00  0.00     0.019 A 
HETATM   24  C   UNL     1     -40.096  54.155 -49.254  1.00  0.00     0.001 A 
HETATM   25  C   UNL     1     -41.226  54.950 -49.077  1.00  0.00     0.002 A 
HETATM   26  C   UNL     1     -42.040  55.278 -50.166  1.00  0.00     0.030 A 
BRANCH  22  27
HETATM   27  C   UNL     1     -40.299  53.323 -52.907  1.00  0.00     0.254 C 
HETATM   28  N   UNL     1     -40.006  51.975 -52.805  1.00  0.00    -0.352 N 
HETATM   29  H   UNL     1     -39.887  51.586 -51.874  1.00  0.00     0.163 HD
HETATM   30  O   UNL     1     -40.295  53.969 -53.946  1.00  0.00    -0.268 OA
BRANCH  28  31
HETATM   31  C   UNL     1     -39.668  51.151 -53.921  1.00  0.00     0.084 A 
HETATM   32  C   UNL     1     -39.432  49.678 -53.732  1.00  0.00     0.027 A 
HETATM   33  C   UNL     1     -40.667  50.152 -54.439  1.00  0.00     0.027 A 
ENDBRANCH  28  31
ENDBRANCH  22  27
ENDBRANCH   2  21
TORSDOF 9
ENDMDL
MODEL 7
REMARK VINA RESULT:      -7.0      3.340      5.744
REMARK  9 active torsions:
REMARK  status: ('A' for Active; 'I' for Inactive)
REMARK    1  A    between atoms: S_2  and  C_3 
REMARK    2  A    between atoms: C_3  and  C_4 
REMARK    3  A    between atoms: C_5  and  C_6 
REMARK    4  A    between atoms: C_6  and  O_7 
REMARK    5  A    between atoms: O_7  and  C_8 
REMARK    6  A    between atoms: C_8  and  C_9 
REMARK       I    between atoms: C_9  and  N_10 
REMARK    7  A    between atoms: N_10  and  C_11 
REMARK    8  A    between atoms: C_12  and  C_13 
REMARK       I    between atoms: C_13  and  N_14 
REMARK    9  A    between atoms: N_14  and  C_15 
ROOT
HETATM    1  C   UNL     1     -40.997  54.170 -55.102  1.00  0.00     0.246 C 
HETATM    2  N   UNL     1     -41.428  53.232 -54.180  1.00  0.00    -0.324 N 
HETATM    3  O   UNL     1     -39.832  54.335 -55.448  1.00  0.00    -0.271 OA
HETATM    4  H   UNL     1     -42.343  53.385 -53.763  1.00  0.00     0.169 HD
ENDROOT
BRANCH   1   5
HETATM    5  C   UNL     1     -42.137  55.042 -55.634  1.00  0.00     0.282 C 
BRANCH   5   6
HETATM    6  O   UNL     1     -41.736  56.410 -55.707  1.00  0.00    -0.307 OA
BRANCH   6   7
HETATM    7  C   UNL     1     -42.783  57.283 -55.817  1.00  0.00     0.318 C 
HETATM    8  O   UNL     1     -43.745  57.298 -55.058  1.00  0.00    -0.257 OA
BRANCH   7   9
HETATM    9  C   UNL     1     -42.569  58.214 -56.901  1.00  0.00     0.159 A 
HETATM   10  C   UNL     1     -43.072  58.214 -58.199  1.00  0.00     0.004 A 
HETATM   11  C   UNL     1     -42.540  59.381 -58.830  1.00  0.00     0.008 A 
HETATM   12  C   UNL     1     -41.756  60.012 -57.874  1.00  0.00     0.087 A 
HETATM   13  C   UNL     1     -42.642  59.968 -60.106  1.00  0.00     0.015 A 
HETATM   14  O   UNL     1     -41.775  59.313 -56.709  1.00  0.00    -0.303 OA
HETATM   15  C   UNL     1     -41.057  61.197 -58.095  1.00  0.00     0.038 A 
HETATM   16  C   UNL     1     -41.173  61.765 -59.367  1.00  0.00     0.003 A 
HETATM   17  C   UNL     1     -41.951  61.163 -60.358  1.00  0.00     0.001 A 
BRANCH  10  18
HETATM   18  C   UNL     1     -43.999  57.215 -58.800  1.00  0.00     0.116 C 
BRANCH  18  19
HETATM   19  S   UNL     1     -43.067  55.877 -59.606  1.00  0.00    -0.169 SA
HETATM   20  C   UNL     1     -44.469  54.933 -60.248  1.00  0.00     0.090 C 
ENDBRANCH  18  19
ENDBRANCH  10  18
ENDBRANCH   7   9
ENDBRANCH   6   7
ENDBRANCH   5   6
ENDBRANCH   1   5
BRANCH   2  21
HETATM   21  C   UNL     1     -40.686  52.130 -53.691  1.00  0.00     0.050 A 
HETATM   22  C   UNL     1     -40.179  52.150 -52.376  1.00  0.00     0.058 A 
HETATM   23  C   UNL     1     -39.568  51.016 -51.823  1.00  0.00     0.019 A 
HETATM   24  C   UNL     1     -39.426  49.862 -52.591  1.00  0.00     0.001 A 
HETATM   25  C   UNL     1     -39.887  49.844 -53.905  1.00  0.00     0.002 A 
HETATM   26  C   UNL     1     -40.513  50.969 -54.453  1.00  0.00     0.030 A 
BRANCH  22  27
HETATM   27  C   UNL     1     -40.188  53.385 -51.552  1.00  0.00     0.254 C 
HETATM   28  N   UNL     1     -39.858  53.182 -50.224  1.00  0.00    -0.352 N 
HETATM   29  H   UNL     1     -39.782  52.224 -49.896  1.00  0.00     0.163 HD
HETATM   30  O   UNL     1     -40.488  54.463 -52.047  1.00  0.00    -0.268 OA
BRANCH  28  31
HETATM   31  C   UNL     1     -39.813  54.226 -49.250  1.00  0.00     0.084 A 
HETATM   32  C   UNL     1     -41.085  54.854 -48.753  1.00  0.00     0.027 A 
HETATM   33  C   UNL     1     -40.291  53.959 -47.849  1.00  0.00     0.027 A 
ENDBRANCH  28  31
ENDBRANCH  22  27
ENDBRANCH   2  21
TORSDOF 9
ENDMDL
MODEL 8
REMARK VINA RESULT:      -7.0      1.491      3.573
REMARK  9 active torsions:
REMARK  status: ('A' for Active; 'I' for Inactive)
REMARK    1  A    between atoms: S_2  and  C_3 
REMARK    2  A    between atoms: C_3  and  C_4 
REMARK    3  A    between atoms: C_5  and  C_6 
REMARK    4  A    between atoms: C_6  and  O_7 
REMARK    5  A    between atoms: O_7  and  C_8 
REMARK    6  A    between atoms: C_8  and  C_9 
REMARK       I    between atoms: C_9  and  N_10 
REMARK    7  A    between atoms: N_10  and  C_11 
REMARK    8  A    between atoms: C_12  and  C_13 
REMARK       I    between atoms: C_13  and  N_14 
REMARK    9  A    between atoms: N_14  and  C_15 
ROOT
HETATM    1  C   UNL     1     -41.008  54.349 -54.675  1.00  0.00     0.246 C 
HETATM    2  N   UNL     1     -41.398  53.335 -53.817  1.00  0.00    -0.324 N 
HETATM    3  O   UNL     1     -39.869  54.517 -55.097  1.00  0.00    -0.271 OA
HETATM    4  H   UNL     1     -42.272  53.470 -53.314  1.00  0.00     0.169 HD
ENDROOT
BRANCH   1   5
HETATM    5  C   UNL     1     -42.156  55.300 -55.025  1.00  0.00     0.282 C 
BRANCH   5   6
HETATM    6  O   UNL     1     -41.663  56.469 -55.680  1.00  0.00    -0.307 OA
BRANCH   6   7
HETATM    7  C   UNL     1     -42.396  57.594 -55.419  1.00  0.00     0.318 C 
HETATM    8  O   UNL     1     -43.275  58.025 -56.155  1.00  0.00    -0.257 OA
BRANCH   7   9
HETATM    9  C   UNL     1     -42.036  58.159 -54.139  1.00  0.00     0.159 A 
HETATM   10  C   UNL     1     -42.837  58.707 -53.141  1.00  0.00     0.004 A 
HETATM   11  C   UNL     1     -41.950  59.097 -52.090  1.00  0.00     0.008 A 
HETATM   12  C   UNL     1     -40.674  58.757 -52.518  1.00  0.00     0.087 A 
HETATM   13  C   UNL     1     -42.094  59.698 -50.825  1.00  0.00     0.015 A 
HETATM   14  O   UNL     1     -40.723  58.188 -53.751  1.00  0.00    -0.303 OA
HETATM   15  C   UNL     1     -39.517  58.973 -51.773  1.00  0.00     0.038 A 
HETATM   16  C   UNL     1     -39.681  59.569 -50.519  1.00  0.00     0.003 A 
HETATM   17  C   UNL     1     -40.947  59.927 -50.051  1.00  0.00     0.001 A 
BRANCH  10  18
HETATM   18  C   UNL     1     -44.322  58.835 -53.153  1.00  0.00     0.116 C 
BRANCH  18  19
HETATM   19  S   UNL     1     -45.052  57.982 -51.723  1.00  0.00    -0.169 SA
HETATM   20  C   UNL     1     -45.858  59.407 -50.954  1.00  0.00     0.090 C 
ENDBRANCH  18  19
ENDBRANCH  10  18
ENDBRANCH   7   9
ENDBRANCH   6   7
ENDBRANCH   5   6
ENDBRANCH   1   5
BRANCH   2  21
HETATM   21  C   UNL     1     -40.658  52.170 -53.501  1.00  0.00     0.050 A 
HETATM   22  C   UNL     1     -40.167  51.982 -52.193  1.00  0.00     0.058 A 
HETATM   23  C   UNL     1     -39.560  50.775 -51.820  1.00  0.00     0.019 A 
HETATM   24  C   UNL     1     -39.405  49.758 -52.759  1.00  0.00     0.001 A 
HETATM   25  C   UNL     1     -39.852  49.948 -54.065  1.00  0.00     0.002 A 
HETATM   26  C   UNL     1     -40.474  51.145 -54.435  1.00  0.00     0.030 A 
BRANCH  22  27
HETATM   27  C   UNL     1     -40.189  53.072 -51.184  1.00  0.00     0.254 C 
HETATM   28  N   UNL     1     -41.456  53.537 -50.880  1.00  0.00    -0.352 N 
HETATM   29  H   UNL     1     -42.229  53.213 -51.454  1.00  0.00     0.163 HD
HETATM   30  O   UNL     1     -39.147  53.501 -50.707  1.00  0.00    -0.268 OA
BRANCH  28  31
HETATM   31  C   UNL     1     -41.711  54.586 -49.946  1.00  0.00     0.084 A 
HETATM   32  C   UNL     1     -41.069  55.934 -50.125  1.00  0.00     0.027 A 
HETATM   33  C   UNL     1     -42.541  55.770 -50.363  1.00  0.00     0.027 A 
ENDBRANCH  28  31
ENDBRANCH  22  27
ENDBRANCH   2  21
TORSDOF 9
ENDMDL
MODEL 9
REMARK VINA RESULT:      -7.0      2.560      5.417
REMARK  9 active torsions:
REMARK  status: ('A' for Active; 'I' for Inactive)
REMARK    1  A    between atoms: S_2  and  C_3 
REMARK    2  A    between atoms: C_3  and  C_4 
REMARK    3  A    between atoms: C_5  and  C_6 
REMARK    4  A    between atoms: C_6  and  O_7 
REMARK    5  A    between atoms: O_7  and  C_8 
REMARK    6  A    between atoms: C_8  and  C_9 
REMARK       I    between atoms: C_9  and  N_10 
REMARK    7  A    between atoms: N_10  and  C_11 
REMARK    8  A    between atoms: C_12  and  C_13 
REMARK       I    between atoms: C_13  and  N_14 
REMARK    9  A    between atoms: N_14  and  C_15 
ROOT
HETATM    1  C   UNL     1     -45.129  58.880 -56.172  1.00  0.00     0.246 C 
HETATM    2  N   UNL     1     -43.885  58.659 -56.739  1.00  0.00    -0.324 N 
HETATM    3  O   UNL     1     -46.200  58.557 -56.673  1.00  0.00    -0.271 OA
HETATM    4  H   UNL     1     -43.113  59.220 -56.387  1.00  0.00     0.169 HD
ENDROOT
BRANCH   1   5
HETATM    5  C   UNL     1     -45.044  59.630 -54.840  1.00  0.00     0.282 C 
BRANCH   5   6
HETATM    6  O   UNL     1     -43.821  59.330 -54.167  1.00  0.00    -0.307 OA
BRANCH   6   7
HETATM    7  C   UNL     1     -43.960  59.190 -52.813  1.00  0.00     0.318 C 
HETATM    8  O   UNL     1     -44.615  59.950 -52.110  1.00  0.00    -0.257 OA
BRANCH   7   9
HETATM    9  C   UNL     1     -43.287  58.001 -52.344  1.00  0.00     0.159 A 
HETATM   10  C   UNL     1     -41.957  57.802 -51.986  1.00  0.00     0.004 A 
HETATM   11  C   UNL     1     -41.854  56.433 -51.586  1.00  0.00     0.008 A 
HETATM   12  C   UNL     1     -43.127  55.896 -51.724  1.00  0.00     0.087 A 
HETATM   13  C   UNL     1     -40.821  55.597 -51.121  1.00  0.00     0.015 A 
HETATM   14  O   UNL     1     -43.994  56.839 -52.178  1.00  0.00    -0.303 OA
HETATM   15  C   UNL     1     -43.452  54.573 -51.431  1.00  0.00     0.038 A 
HETATM   16  C   UNL     1     -42.413  53.760 -50.968  1.00  0.00     0.003 A 
HETATM   17  C   UNL     1     -41.118  54.261 -50.816  1.00  0.00     0.001 A 
BRANCH  10  18
HETATM   18  C   UNL     1     -40.866  58.818 -51.991  1.00  0.00     0.116 C 
BRANCH  18  19
HETATM   19  S   UNL     1     -40.676  59.564 -50.345  1.00  0.00    -0.169 SA
HETATM   20  C   UNL     1     -38.876  59.729 -50.340  1.00  0.00     0.090 C 
ENDBRANCH  18  19
ENDBRANCH  10  18
ENDBRANCH   7   9
ENDBRANCH   6   7
ENDBRANCH   5   6
ENDBRANCH   1   5
BRANCH   2  21
HETATM   21  C   UNL     1     -43.597  57.795 -57.823  1.00  0.00     0.050 A 
HETATM   22  C   UNL     1     -43.224  56.458 -57.577  1.00  0.00     0.058 A 
HETATM   23  C   UNL     1     -43.076  55.548 -58.633  1.00  0.00     0.019 A 
HETATM   24  C   UNL     1     -43.264  55.973 -59.946  1.00  0.00     0.001 A 
HETATM   25  C   UNL     1     -43.594  57.302 -60.203  1.00  0.00     0.002 A 
HETATM   26  C   UNL     1     -43.760  58.208 -59.150  1.00  0.00     0.030 A 
BRANCH  22  27
HETATM   27  C   UNL     1     -42.888  55.976 -56.214  1.00  0.00     0.254 C 
HETATM   28  N   UNL     1     -41.623  55.427 -56.103  1.00  0.00    -0.352 N 
HETATM   29  H   UNL     1     -41.099  55.269 -56.959  1.00  0.00     0.163 HD
HETATM   30  O   UNL     1     -43.702  56.060 -55.304  1.00  0.00    -0.268 OA
BRANCH  28  31
HETATM   31  C   UNL     1     -41.095  54.893 -54.889  1.00  0.00     0.084 A 
HETATM   32  C   UNL     1     -41.449  53.497 -54.457  1.00  0.00     0.027 A 
HETATM   33  C   UNL     1     -40.063  53.799 -54.942  1.00  0.00     0.027 A 
ENDBRANCH  28  31
ENDBRANCH  22  27
ENDBRANCH   2  21
TORSDOF 9
ENDMDL
MODEL 10
REMARK VINA RESULT:      -6.9      2.723      7.091
REMARK  9 active torsions:
REMARK  status: ('A' for Active; 'I' for Inactive)
REMARK    1  A    between atoms: S_2  and  C_3 
REMARK    2  A    between atoms: C_3  and  C_4 
REMARK    3  A    between atoms: C_5  and  C_6 
REMARK    4  A    between atoms: C_6  and  O_7 
REMARK    5  A    between atoms: O_7  and  C_8 
REMARK    6  A    between atoms: C_8  and  C_9 
REMARK       I    between atoms: C_9  and  N_10 
REMARK    7  A    between atoms: N_10  and  C_11 
REMARK    8  A    between atoms: C_12  and  C_13 
REMARK       I    between atoms: C_13  and  N_14 
REMARK    9  A    between atoms: N_14  and  C_15 
ROOT
HETATM    1  C   UNL     1     -44.298  57.885 -51.021  1.00  0.00     0.246 C 
HETATM    2  N   UNL     1     -43.320  58.842 -50.809  1.00  0.00    -0.324 N 
HETATM    3  O   UNL     1     -45.503  58.107 -51.073  1.00  0.00    -0.271 OA
HETATM    4  H   UNL     1     -42.412  58.509 -50.495  1.00  0.00     0.169 HD
ENDROOT
BRANCH   1   5
HETATM    5  C   UNL     1     -43.723  56.472 -51.141  1.00  0.00     0.282 C 
BRANCH   5   6
HETATM    6  O   UNL     1     -42.975  56.331 -52.349  1.00  0.00    -0.307 OA
BRANCH   6   7
HETATM    7  C   UNL     1     -41.625  56.237 -52.150  1.00  0.00     0.318 C 
HETATM    8  O   UNL     1     -40.936  57.138 -51.689  1.00  0.00    -0.257 OA
BRANCH   7   9
HETATM    9  C   UNL     1     -41.142  54.920 -52.497  1.00  0.00     0.159 A 
HETATM   10  C   UNL     1     -40.951  54.332 -53.745  1.00  0.00     0.004 A 
HETATM   11  C   UNL     1     -40.441  53.021 -53.490  1.00  0.00     0.008 A 
HETATM   12  C   UNL     1     -40.352  52.903 -52.110  1.00  0.00     0.087 A 
HETATM   13  C   UNL     1     -40.044  51.926 -54.282  1.00  0.00     0.015 A 
HETATM   14  O   UNL     1     -40.771  54.048 -51.509  1.00  0.00    -0.303 OA
HETATM   15  C   UNL     1     -39.893  51.765 -51.451  1.00  0.00     0.038 A 
HETATM   16  C   UNL     1     -39.502  50.690 -52.255  1.00  0.00     0.003 A 
HETATM   17  C   UNL     1     -39.576  50.767 -53.647  1.00  0.00     0.001 A 
BRANCH  10  18
HETATM   18  C   UNL     1     -41.202  54.953 -55.075  1.00  0.00     0.116 C 
BRANCH  18  19
HETATM   19  S   UNL     1     -42.886  54.579 -55.651  1.00  0.00    -0.169 SA
HETATM   20  C   UNL     1     -42.897  55.629 -57.123  1.00  0.00     0.090 C 
ENDBRANCH  18  19
ENDBRANCH  10  18
ENDBRANCH   7   9
ENDBRANCH   6   7
ENDBRANCH   5   6
ENDBRANCH   1   5
BRANCH   2  21
HETATM   21  C   UNL     1     -43.484  60.245 -50.899  1.00  0.00     0.050 A 
HETATM   22  C   UNL     1     -43.191  60.913 -52.106  1.00  0.00     0.058 A 
HETATM   23  C   UNL     1     -43.482  62.275 -52.263  1.00  0.00     0.019 A 
HETATM   24  C   UNL     1     -44.035  62.992 -51.204  1.00  0.00     0.001 A 
HETATM   25  C   UNL     1     -44.292  62.352 -49.993  1.00  0.00     0.002 A 
HETATM   26  C   UNL     1     -44.019  60.988 -49.840  1.00  0.00     0.030 A 
BRANCH  22  27
HETATM   27  C   UNL     1     -42.488  60.236 -53.225  1.00  0.00     0.254 C 
HETATM   28  N   UNL     1     -43.307  59.905 -54.290  1.00  0.00    -0.352 N 
HETATM   29  H   UNL     1     -44.309  60.013 -54.168  1.00  0.00     0.163 HD
HETATM   30  O   UNL     1     -41.291  59.995 -53.154  1.00  0.00    -0.268 OA
BRANCH  28  31
HETATM   31  C   UNL     1     -42.846  59.240 -55.467  1.00  0.00     0.084 A 
HETATM   32  C   UNL     1     -43.569  59.420 -56.772  1.00  0.00     0.027 A 
HETATM   33  C   UNL     1     -42.216  60.038 -56.576  1.00  0.00     0.027 A 
ENDBRANCH  28  31
ENDBRANCH  22  27
ENDBRANCH   2  21
TORSDOF 9
ENDMDL
