MODEL 1
REMARK VINA RESULT:      -9.1      0.000      0.000
REMARK  6 active torsions:
REMARK  status: ('A' for Active; 'I' for Inactive)
REMARK    1  A    between atoms: C_4  and  C_5 
REMARK    2  A    between atoms: C_5  and  C_6 
REMARK    3  A    between atoms: C_6  and  C_7 
REMARK    4  A    between atoms: C_7  and  N_8 
REMARK    5  A    between atoms: C_11  and  C_13 
REMARK    6  A    between atoms: C_11  and  O_12 
ROOT
HETATM    1  N   UNL     1     -41.809  55.552 -51.082  1.00  0.00    -0.314 N 
HETATM    2  C   UNL     1     -42.752  55.034 -51.993  1.00  0.00     0.269 A 
HETATM    3  O   UNL     1     -43.204  53.898 -51.979  1.00  0.00    -0.269 OA
HETATM    4  C   UNL     1     -43.169  56.214 -52.935  1.00  0.00     0.198 A 
HETATM    5  C   UNL     1     -42.282  57.335 -52.447  1.00  0.00     0.017 A 
HETATM    6  C   UNL     1     -41.528  56.899 -51.352  1.00  0.00     0.047 A 
HETATM    7  C   UNL     1     -42.197  58.647 -52.894  1.00  0.00     0.013 A 
HETATM    8  C   UNL     1     -41.322  59.515 -52.239  1.00  0.00     0.001 A 
HETATM    9  C   UNL     1     -40.559  59.069 -51.148  1.00  0.00     0.002 A 
HETATM   10  C   UNL     1     -40.659  57.750 -50.694  1.00  0.00     0.030 A 
ENDROOT
BRANCH   4  11
HETATM   11  C   UNL     1     -42.858  55.966 -54.389  1.00  0.00     0.018 A 
HETATM   12  C   UNL     1     -43.413  56.598 -55.563  1.00  0.00     0.002 A 
HETATM   13  C   UNL     1     -42.793  56.036 -56.681  1.00  0.00     0.043 A 
HETATM   14  C   UNL     1     -44.391  57.590 -55.787  1.00  0.00     0.014 A 
HETATM   15  C   UNL     1     -43.094  56.416 -57.995  1.00  0.00     0.030 A 
HETATM   16  N   UNL     1     -41.896  55.103 -56.222  1.00  0.00    -0.365 N 
HETATM   17  C   UNL     1     -44.065  57.402 -58.181  1.00  0.00     0.002 A 
HETATM   18  C   UNL     1     -44.708  57.981 -57.094  1.00  0.00     0.001 A 
HETATM   19  H   UNL     1     -41.298  54.543 -56.814  1.00  0.00     0.165 HD
HETATM   20  C   UNL     1     -41.928  55.050 -54.860  1.00  0.00     0.100 A 
ENDBRANCH   4  11
BRANCH   4  21
HETATM   21  O   UNL     1     -44.532  56.585 -52.725  1.00  0.00    -0.371 OA
HETATM   22  H   UNL     1     -45.039  55.758 -52.693  1.00  0.00     0.212 HD
ENDBRANCH   4  21
BRANCH   1  23
HETATM   23  C   UNL     1     -41.290  54.786 -49.969  1.00  0.00     0.133 C 
BRANCH  23  24
HETATM   24  C   UNL     1     -40.045  53.969 -50.308  1.00  0.00     0.025 C 
BRANCH  24  25
HETATM   25  C   UNL     1     -40.276  52.461 -50.203  1.00  0.00     0.040 C 
BRANCH  25  26
HETATM   26  C   UNL     1     -40.037  51.773 -51.525  1.00  0.00    -0.058 A 
HETATM   27  C   UNL     1     -40.159  52.484 -52.726  1.00  0.00     0.007 A 
HETATM   28  C   UNL     1     -39.956  51.845 -53.951  1.00  0.00     0.001 A 
HETATM   29  C   UNL     1     -39.639  50.488 -53.986  1.00  0.00     0.000 A 
HETATM   30  C   UNL     1     -39.525  49.770 -52.796  1.00  0.00     0.001 A 
HETATM   31  C   UNL     1     -39.725  50.408 -51.571  1.00  0.00     0.007 A 
ENDBRANCH  25  26
ENDBRANCH  24  25
ENDBRANCH  23  24
ENDBRANCH   1  23
TORSDOF 6
ENDMDL
MODEL 2
REMARK VINA RESULT:      -9.1      1.230      1.871
REMARK  6 active torsions:
REMARK  status: ('A' for Active; 'I' for Inactive)
REMARK    1  A    between atoms: C_4  and  C_5 
REMARK    2  A    between atoms: C_5  and  C_6 
REMARK    3  A    between atoms: C_6  and  C_7 
REMARK    4  A    between atoms: C_7  and  N_8 
REMARK    5  A    between atoms: C_11  and  C_13 
REMARK    6  A    between atoms: C_11  and  O_12 
ROOT
HETATM    1  N   UNL     1     -41.993  55.691 -50.577  1.00  0.00    -0.314 N 
HETATM    2  C   UNL     1     -43.199  55.362 -51.228  1.00  0.00     0.269 A 
HETATM    3  O   UNL     1     -43.683  54.241 -51.305  1.00  0.00    -0.269 OA
HETATM    4  C   UNL     1     -43.829  56.707 -51.726  1.00  0.00     0.198 A 
HETATM    5  C   UNL     1     -42.777  57.714 -51.325  1.00  0.00     0.017 A 
HETATM    6  C   UNL     1     -41.741  57.069 -50.641  1.00  0.00     0.047 A 
HETATM    7  C   UNL     1     -42.768  59.092 -51.497  1.00  0.00     0.013 A 
HETATM    8  C   UNL     1     -41.689  59.816 -50.990  1.00  0.00     0.001 A 
HETATM    9  C   UNL     1     -40.646  59.162 -50.314  1.00  0.00     0.002 A 
HETATM   10  C   UNL     1     -40.667  57.777 -50.132  1.00  0.00     0.030 A 
ENDROOT
BRANCH   4  11
HETATM   11  C   UNL     1     -44.002  56.777 -53.222  1.00  0.00     0.018 A 
HETATM   12  C   UNL     1     -43.199  56.179 -54.263  1.00  0.00     0.002 A 
HETATM   13  C   UNL     1     -43.772  56.522 -55.490  1.00  0.00     0.043 A 
HETATM   14  C   UNL     1     -42.033  55.385 -54.284  1.00  0.00     0.014 A 
HETATM   15  C   UNL     1     -43.248  56.108 -56.721  1.00  0.00     0.030 A 
HETATM   16  N   UNL     1     -44.878  57.291 -55.222  1.00  0.00    -0.365 N 
HETATM   17  C   UNL     1     -42.093  55.323 -56.706  1.00  0.00     0.002 A 
HETATM   18  C   UNL     1     -41.491  54.966 -55.506  1.00  0.00     0.001 A 
HETATM   19  H   UNL     1     -45.493  57.675 -55.925  1.00  0.00     0.165 HD
HETATM   20  C   UNL     1     -45.023  57.454 -53.876  1.00  0.00     0.100 A 
ENDBRANCH   4  11
BRANCH   4  21
HETATM   21  O   UNL     1     -45.036  57.003 -51.023  1.00  0.00    -0.371 OA
HETATM   22  H   UNL     1     -45.765  56.792 -51.628  1.00  0.00     0.212 HD
ENDBRANCH   4  21
BRANCH   1  23
HETATM   23  C   UNL     1     -41.192  54.716 -49.868  1.00  0.00     0.133 C 
BRANCH  23  24
HETATM   24  C   UNL     1     -40.140  54.031 -50.738  1.00  0.00     0.025 C 
BRANCH  24  25
HETATM   25  C   UNL     1     -40.063  52.523 -50.502  1.00  0.00     0.040 C 
BRANCH  25  26
HETATM   26  C   UNL     1     -39.966  51.764 -51.803  1.00  0.00    -0.058 A 
HETATM   27  C   UNL     1     -40.218  52.410 -53.021  1.00  0.00     0.007 A 
HETATM   28  C   UNL     1     -40.145  51.707 -54.224  1.00  0.00     0.001 A 
HETATM   29  C   UNL     1     -39.829  50.349 -54.221  1.00  0.00     0.000 A 
HETATM   30  C   UNL     1     -39.587  49.695 -53.014  1.00  0.00     0.001 A 
HETATM   31  C   UNL     1     -39.655  50.398 -51.809  1.00  0.00     0.007 A 
ENDBRANCH  25  26
ENDBRANCH  24  25
ENDBRANCH  23  24
ENDBRANCH   1  23
TORSDOF 6
ENDMDL
MODEL 3
REMARK VINA RESULT:      -8.7      1.578      6.881
REMARK  6 active torsions:
REMARK  status: ('A' for Active; 'I' for Inactive)
REMARK    1  A    between atoms: C_4  and  C_5 
REMARK    2  A    between atoms: C_5  and  C_6 
REMARK    3  A    between atoms: C_6  and  C_7 
REMARK    4  A    between atoms: C_7  and  N_8 
REMARK    5  A    between atoms: C_11  and  C_13 
REMARK    6  A    between atoms: C_11  and  O_12 
ROOT
HETATM    1  N   UNL     1     -42.653  54.671 -54.863  1.00  0.00    -0.314 N 
HETATM    2  C   UNL     1     -43.350  55.308 -53.816  1.00  0.00     0.269 A 
HETATM    3  O   UNL     1     -44.262  56.112 -53.955  1.00  0.00    -0.269 OA
HETATM    4  C   UNL     1     -42.804  54.709 -52.476  1.00  0.00     0.198 A 
HETATM    5  C   UNL     1     -41.720  53.778 -52.967  1.00  0.00     0.017 A 
HETATM    6  C   UNL     1     -41.692  53.780 -54.365  1.00  0.00     0.047 A 
HETATM    7  C   UNL     1     -40.874  52.953 -52.238  1.00  0.00     0.013 A 
HETATM    8  C   UNL     1     -39.977  52.142 -52.934  1.00  0.00     0.001 A 
HETATM    9  C   UNL     1     -39.945  52.156 -54.338  1.00  0.00     0.002 A 
HETATM   10  C   UNL     1     -40.809  52.979 -55.067  1.00  0.00     0.030 A 
ENDROOT
BRANCH   4  11
HETATM   11  C   UNL     1     -42.171  55.733 -51.570  1.00  0.00     0.018 A 
HETATM   12  C   UNL     1     -41.391  56.899 -51.913  1.00  0.00     0.002 A 
HETATM   13  C   UNL     1     -41.038  57.539 -50.723  1.00  0.00     0.043 A 
HETATM   14  C   UNL     1     -40.942  57.472 -53.122  1.00  0.00     0.014 A 
HETATM   15  C   UNL     1     -40.274  58.712 -50.683  1.00  0.00     0.030 A 
HETATM   16  N   UNL     1     -41.574  56.807 -49.693  1.00  0.00    -0.365 N 
HETATM   17  C   UNL     1     -39.847  59.253 -51.897  1.00  0.00     0.002 A 
HETATM   18  C   UNL     1     -40.173  58.642 -53.102  1.00  0.00     0.001 A 
HETATM   19  H   UNL     1     -41.484  57.042 -48.714  1.00  0.00     0.165 HD
HETATM   20  C   UNL     1     -42.248  55.727 -50.183  1.00  0.00     0.100 A 
ENDBRANCH   4  11
BRANCH   4  21
HETATM   21  O   UNL     1     -43.804  53.936 -51.811  1.00  0.00    -0.371 OA
HETATM   22  H   UNL     1     -43.824  54.246 -50.892  1.00  0.00     0.212 HD
ENDBRANCH   4  21
BRANCH   1  23
HETATM   23  C   UNL     1     -42.979  54.871 -56.259  1.00  0.00     0.133 C 
BRANCH  23  24
HETATM   24  C   UNL     1     -42.784  56.309 -56.739  1.00  0.00     0.025 C 
BRANCH  24  25
HETATM   25  C   UNL     1     -42.542  56.405 -58.245  1.00  0.00     0.040 C 
BRANCH  25  26
HETATM   26  C   UNL     1     -43.821  56.213 -59.024  1.00  0.00    -0.058 A 
HETATM   27  C   UNL     1     -44.881  57.118 -58.878  1.00  0.00     0.007 A 
HETATM   28  C   UNL     1     -46.071  56.934 -59.583  1.00  0.00     0.001 A 
HETATM   29  C   UNL     1     -46.216  55.838 -60.433  1.00  0.00     0.000 A 
HETATM   30  C   UNL     1     -45.171  54.927 -60.576  1.00  0.00     0.001 A 
HETATM   31  C   UNL     1     -43.979  55.111 -59.875  1.00  0.00     0.007 A 
ENDBRANCH  25  26
ENDBRANCH  24  25
ENDBRANCH  23  24
ENDBRANCH   1  23
TORSDOF 6
ENDMDL
MODEL 4
REMARK VINA RESULT:      -8.6      1.641      6.696
REMARK  6 active torsions:
REMARK  status: ('A' for Active; 'I' for Inactive)
REMARK    1  A    between atoms: C_4  and  C_5 
REMARK    2  A    between atoms: C_5  and  C_6 
REMARK    3  A    between atoms: C_6  and  C_7 
REMARK    4  A    between atoms: C_7  and  N_8 
REMARK    5  A    between atoms: C_11  and  C_13 
REMARK    6  A    between atoms: C_11  and  O_12 
ROOT
HETATM    1  N   UNL     1     -42.592  54.238 -54.504  1.00  0.00    -0.314 N 
HETATM    2  C   UNL     1     -43.273  54.948 -53.495  1.00  0.00     0.269 A 
HETATM    3  O   UNL     1     -44.216  55.707 -53.672  1.00  0.00    -0.269 OA
HETATM    4  C   UNL     1     -42.659  54.494 -52.126  1.00  0.00     0.198 A 
HETATM    5  C   UNL     1     -41.563  53.555 -52.571  1.00  0.00     0.017 A 
HETATM    6  C   UNL     1     -41.584  53.427 -53.964  1.00  0.00     0.047 A 
HETATM    7  C   UNL     1     -40.663  52.828 -51.802  1.00  0.00     0.013 A 
HETATM    8  C   UNL     1     -39.765  51.983 -52.455  1.00  0.00     0.001 A 
HETATM    9  C   UNL     1     -39.783  51.867 -53.854  1.00  0.00     0.002 A 
HETATM   10  C   UNL     1     -40.700  52.591 -54.622  1.00  0.00     0.030 A 
ENDROOT
BRANCH   4  11
HETATM   11  C   UNL     1     -42.029  55.617 -51.344  1.00  0.00     0.018 A 
HETATM   12  C   UNL     1     -41.345  56.794 -51.825  1.00  0.00     0.002 A 
HETATM   13  C   UNL     1     -40.952  57.542 -50.712  1.00  0.00     0.043 A 
HETATM   14  C   UNL     1     -41.012  57.297 -53.101  1.00  0.00     0.014 A 
HETATM   15  C   UNL     1     -40.258  58.754 -50.811  1.00  0.00     0.030 A 
HETATM   16  N   UNL     1     -41.375  56.862 -49.596  1.00  0.00    -0.365 N 
HETATM   17  C   UNL     1     -39.945  59.223 -52.089  1.00  0.00     0.002 A 
HETATM   18  C   UNL     1     -40.314  58.505 -53.220  1.00  0.00     0.001 A 
HETATM   19  H   UNL     1     -41.234  57.176 -48.647  1.00  0.00     0.165 HD
HETATM   20  C   UNL     1     -42.014  55.713 -49.959  1.00  0.00     0.100 A 
ENDBRANCH   4  11
BRANCH   4  21
HETATM   21  O   UNL     1     -43.608  53.757 -51.355  1.00  0.00    -0.371 OA
HETATM   22  H   UNL     1     -44.417  53.709 -51.889  1.00  0.00     0.212 HD
ENDBRANCH   4  21
BRANCH   1  23
HETATM   23  C   UNL     1     -42.974  54.297 -55.899  1.00  0.00     0.133 C 
BRANCH  23  24
HETATM   24  C   UNL     1     -42.275  55.405 -56.685  1.00  0.00     0.025 C 
BRANCH  24  25
HETATM   25  C   UNL     1     -43.255  56.377 -57.341  1.00  0.00     0.040 C 
BRANCH  25  26
HETATM   26  C   UNL     1     -42.873  57.812 -57.068  1.00  0.00    -0.058 A 
HETATM   27  C   UNL     1     -42.139  58.542 -58.013  1.00  0.00     0.007 A 
HETATM   28  C   UNL     1     -41.770  59.863 -57.756  1.00  0.00     0.001 A 
HETATM   29  C   UNL     1     -42.123  60.464 -56.548  1.00  0.00     0.000 A 
HETATM   30  C   UNL     1     -42.845  59.743 -55.599  1.00  0.00     0.001 A 
HETATM   31  C   UNL     1     -43.218  58.423 -55.855  1.00  0.00     0.007 A 
ENDBRANCH  25  26
ENDBRANCH  24  25
ENDBRANCH  23  24
ENDBRANCH   1  23
TORSDOF 6
ENDMDL
MODEL 5
REMARK VINA RESULT:      -8.6      1.481      2.227
REMARK  6 active torsions:
REMARK  status: ('A' for Active; 'I' for Inactive)
REMARK    1  A    between atoms: C_4  and  C_5 
REMARK    2  A    between atoms: C_5  and  C_6 
REMARK    3  A    between atoms: C_6  and  C_7 
REMARK    4  A    between atoms: C_7  and  N_8 
REMARK    5  A    between atoms: C_11  and  C_13 
REMARK    6  A    between atoms: C_11  and  O_12 
ROOT
HETATM    1  N   UNL     1     -42.651  55.872 -53.230  1.00  0.00    -0.314 N 
HETATM    2  C   UNL     1     -43.577  55.492 -54.224  1.00  0.00     0.269 A 
HETATM    3  O   UNL     1     -44.100  54.391 -54.325  1.00  0.00    -0.269 OA
HETATM    4  C   UNL     1     -43.871  56.769 -55.082  1.00  0.00     0.198 A 
HETATM    5  C   UNL     1     -42.941  57.785 -54.463  1.00  0.00     0.017 A 
HETATM    6  C   UNL     1     -42.272  57.213 -53.375  1.00  0.00     0.047 A 
HETATM    7  C   UNL     1     -42.751  59.121 -54.794  1.00  0.00     0.013 A 
HETATM    8  C   UNL     1     -41.857  59.873 -54.031  1.00  0.00     0.001 A 
HETATM    9  C   UNL     1     -41.179  59.290 -52.947  1.00  0.00     0.002 A 
HETATM   10  C   UNL     1     -41.386  57.950 -52.609  1.00  0.00     0.030 A 
ENDROOT
BRANCH   4  11
HETATM   11  C   UNL     1     -43.502  56.618 -56.536  1.00  0.00     0.018 A 
HETATM   12  C   UNL     1     -43.945  57.388 -57.675  1.00  0.00     0.002 A 
HETATM   13  C   UNL     1     -43.311  56.872 -58.807  1.00  0.00     0.043 A 
HETATM   14  C   UNL     1     -44.830  58.471 -57.858  1.00  0.00     0.014 A 
HETATM   15  C   UNL     1     -43.511  57.383 -60.096  1.00  0.00     0.030 A 
HETATM   16  N   UNL     1     -42.513  55.835 -58.390  1.00  0.00    -0.365 N 
HETATM   17  C   UNL     1     -44.393  58.456 -60.241  1.00  0.00     0.002 A 
HETATM   18  C   UNL     1     -45.047  58.993 -59.139  1.00  0.00     0.001 A 
HETATM   19  H   UNL     1     -41.929  55.280 -58.999  1.00  0.00     0.165 HD
HETATM   20  C   UNL     1     -42.621  55.672 -57.041  1.00  0.00     0.100 A 
ENDBRANCH   4  11
BRANCH   4  21
HETATM   21  O   UNL     1     -45.217  57.212 -54.903  1.00  0.00    -0.371 OA
HETATM   22  H   UNL     1     -45.718  56.444 -54.586  1.00  0.00     0.212 HD
ENDBRANCH   4  21
BRANCH   1  23
HETATM   23  C   UNL     1     -42.238  54.986 -52.163  1.00  0.00     0.133 C 
BRANCH  23  24
HETATM   24  C   UNL     1     -40.797  54.494 -52.290  1.00  0.00     0.025 C 
BRANCH  24  25
HETATM   25  C   UNL     1     -40.541  53.737 -53.593  1.00  0.00     0.040 C 
BRANCH  25  26
HETATM   26  C   UNL     1     -40.200  52.289 -53.332  1.00  0.00    -0.058 A 
HETATM   27  C   UNL     1     -40.339  51.335 -54.349  1.00  0.00     0.007 A 
HETATM   28  C   UNL     1     -40.042  49.993 -54.105  1.00  0.00     0.001 A 
HETATM   29  C   UNL     1     -39.612  49.591 -52.841  1.00  0.00     0.000 A 
HETATM   30  C   UNL     1     -39.481  50.532 -51.821  1.00  0.00     0.001 A 
HETATM   31  C   UNL     1     -39.774  51.875 -52.063  1.00  0.00     0.007 A 
ENDBRANCH  25  26
ENDBRANCH  24  25
ENDBRANCH  23  24
ENDBRANCH   1  23
TORSDOF 6
ENDMDL
MODEL 6
REMARK VINA RESULT:      -8.6      1.854      5.563
REMARK  6 active torsions:
REMARK  status: ('A' for Active; 'I' for Inactive)
REMARK    1  A    between atoms: C_4  and  C_5 
REMARK    2  A    between atoms: C_5  and  C_6 
REMARK    3  A    between atoms: C_6  and  C_7 
REMARK    4  A    between atoms: C_7  and  N_8 
REMARK    5  A    between atoms: C_11  and  C_13 
REMARK    6  A    between atoms: C_11  and  O_12 
ROOT
HETATM    1  N   UNL     1     -41.934  53.772 -52.852  1.00  0.00    -0.314 N 
HETATM    2  C   UNL     1     -43.197  54.397 -52.798  1.00  0.00     0.269 A 
HETATM    3  O   UNL     1     -44.006  54.447 -53.714  1.00  0.00    -0.269 OA
HETATM    4  C   UNL     1     -43.389  54.907 -51.329  1.00  0.00     0.198 A 
HETATM    5  C   UNL     1     -42.068  54.541 -50.695  1.00  0.00     0.017 A 
HETATM    6  C   UNL     1     -41.269  53.863 -51.622  1.00  0.00     0.047 A 
HETATM    7  C   UNL     1     -41.635  54.737 -49.389  1.00  0.00     0.013 A 
HETATM    8  C   UNL     1     -40.374  54.260 -49.031  1.00  0.00     0.001 A 
HETATM    9  C   UNL     1     -39.571  53.591 -49.969  1.00  0.00     0.002 A 
HETATM   10  C   UNL     1     -40.017  53.385 -51.277  1.00  0.00     0.030 A 
ENDROOT
BRANCH   4  11
HETATM   11  C   UNL     1     -43.563  56.401 -51.226  1.00  0.00     0.018 A 
HETATM   12  C   UNL     1     -42.592  57.450 -51.432  1.00  0.00     0.002 A 
HETATM   13  C   UNL     1     -43.240  58.672 -51.233  1.00  0.00     0.043 A 
HETATM   14  C   UNL     1     -41.221  57.483 -51.762  1.00  0.00     0.014 A 
HETATM   15  C   UNL     1     -42.593  59.909 -51.353  1.00  0.00     0.030 A 
HETATM   16  N   UNL     1     -44.548  58.393 -50.921  1.00  0.00    -0.365 N 
HETATM   17  C   UNL     1     -41.236  59.905 -51.681  1.00  0.00     0.002 A 
HETATM   18  C   UNL     1     -40.556  58.710 -51.882  1.00  0.00     0.001 A 
HETATM   19  H   UNL     1     -45.253  59.091 -50.732  1.00  0.00     0.165 HD
HETATM   20  C   UNL     1     -44.751  57.045 -50.910  1.00  0.00     0.100 A 
ENDBRANCH   4  11
BRANCH   4  21
HETATM   21  O   UNL     1     -44.429  54.189 -50.666  1.00  0.00    -0.371 OA
HETATM   22  H   UNL     1     -44.319  53.257 -50.912  1.00  0.00     0.212 HD
ENDBRANCH   4  21
BRANCH   1  23
HETATM   23  C   UNL     1     -41.461  53.060 -54.020  1.00  0.00     0.133 C 
BRANCH  23  24
HETATM   24  C   UNL     1     -40.612  53.913 -54.962  1.00  0.00     0.025 C 
BRANCH  24  25
HETATM   25  C   UNL     1     -40.681  55.406 -54.637  1.00  0.00     0.040 C 
BRANCH  25  26
HETATM   26  C   UNL     1     -41.722  56.105 -55.477  1.00  0.00    -0.058 A 
HETATM   27  C   UNL     1     -42.269  55.472 -56.601  1.00  0.00     0.007 A 
HETATM   28  C   UNL     1     -43.218  56.124 -57.389  1.00  0.00     0.001 A 
HETATM   29  C   UNL     1     -43.624  57.418 -57.066  1.00  0.00     0.000 A 
HETATM   30  C   UNL     1     -43.078  58.060 -55.956  1.00  0.00     0.001 A 
HETATM   31  C   UNL     1     -42.131  57.409 -55.164  1.00  0.00     0.007 A 
ENDBRANCH  25  26
ENDBRANCH  24  25
ENDBRANCH  23  24
ENDBRANCH   1  23
TORSDOF 6
ENDMDL
MODEL 7
REMARK VINA RESULT:      -8.6      2.342      4.108
REMARK  6 active torsions:
REMARK  status: ('A' for Active; 'I' for Inactive)
REMARK    1  A    between atoms: C_4  and  C_5 
REMARK    2  A    between atoms: C_5  and  C_6 
REMARK    3  A    between atoms: C_6  and  C_7 
REMARK    4  A    between atoms: C_7  and  N_8 
REMARK    5  A    between atoms: C_11  and  C_13 
REMARK    6  A    between atoms: C_11  and  O_12 
ROOT
HETATM    1  N   UNL     1     -41.669  55.638 -51.771  1.00  0.00    -0.314 N 
HETATM    2  C   UNL     1     -41.246  56.967 -51.561  1.00  0.00     0.269 A 
HETATM    3  O   UNL     1     -40.764  57.404 -50.526  1.00  0.00    -0.269 OA
HETATM    4  C   UNL     1     -41.416  57.719 -52.925  1.00  0.00     0.198 A 
HETATM    5  C   UNL     1     -42.036  56.652 -53.796  1.00  0.00     0.017 A 
HETATM    6  C   UNL     1     -42.140  55.456 -53.079  1.00  0.00     0.047 A 
HETATM    7  C   UNL     1     -42.417  56.719 -55.131  1.00  0.00     0.013 A 
HETATM    8  C   UNL     1     -42.929  55.569 -55.732  1.00  0.00     0.001 A 
HETATM    9  C   UNL     1     -43.043  54.374 -55.003  1.00  0.00     0.002 A 
HETATM   10  C   UNL     1     -42.644  54.308 -53.665  1.00  0.00     0.030 A 
ENDROOT
BRANCH   4  11
HETATM   11  C   UNL     1     -42.368  58.885 -52.858  1.00  0.00     0.018 A 
HETATM   12  C   UNL     1     -43.643  58.985 -52.187  1.00  0.00     0.002 A 
HETATM   13  C   UNL     1     -44.137  60.273 -52.407  1.00  0.00     0.043 A 
HETATM   14  C   UNL     1     -44.432  58.104 -51.418  1.00  0.00     0.014 A 
HETATM   15  C   UNL     1     -45.363  60.719 -51.897  1.00  0.00     0.030 A 
HETATM   16  N   UNL     1     -43.213  60.939 -53.174  1.00  0.00    -0.365 N 
HETATM   17  C   UNL     1     -46.119  59.821 -51.140  1.00  0.00     0.002 A 
HETATM   18  C   UNL     1     -45.663  58.530 -50.904  1.00  0.00     0.001 A 
HETATM   19  H   UNL     1     -43.306  61.896 -53.481  1.00  0.00     0.165 HD
HETATM   20  C   UNL     1     -42.157  60.121 -53.452  1.00  0.00     0.100 A 
ENDBRANCH   4  11
BRANCH   4  21
HETATM   21  O   UNL     1     -40.148  58.080 -53.476  1.00  0.00    -0.371 OA
HETATM   22  H   UNL     1     -40.174  59.039 -53.617  1.00  0.00     0.212 HD
ENDBRANCH   4  21
BRANCH   1  23
HETATM   23  C   UNL     1     -41.536  54.604 -50.768  1.00  0.00     0.133 C 
BRANCH  23  24
HETATM   24  C   UNL     1     -40.158  53.944 -50.740  1.00  0.00     0.025 C 
BRANCH  24  25
HETATM   25  C   UNL     1     -40.218  52.457 -50.391  1.00  0.00     0.040 C 
BRANCH  25  26
HETATM   26  C   UNL     1     -39.983  51.595 -51.607  1.00  0.00    -0.058 A 
HETATM   27  C   UNL     1     -40.034  52.152 -52.892  1.00  0.00     0.007 A 
HETATM   28  C   UNL     1     -39.834  51.354 -54.019  1.00  0.00     0.001 A 
HETATM   29  C   UNL     1     -39.590  49.989 -53.873  1.00  0.00     0.000 A 
HETATM   30  C   UNL     1     -39.547  49.423 -52.600  1.00  0.00     0.001 A 
HETATM   31  C   UNL     1     -39.744  50.221 -51.471  1.00  0.00     0.007 A 
ENDBRANCH  25  26
ENDBRANCH  24  25
ENDBRANCH  23  24
ENDBRANCH   1  23
TORSDOF 6
ENDMDL
MODEL 8
REMARK VINA RESULT:      -8.2      2.150      3.768
REMARK  6 active torsions:
REMARK  status: ('A' for Active; 'I' for Inactive)
REMARK    1  A    between atoms: C_4  and  C_5 
REMARK    2  A    between atoms: C_5  and  C_6 
REMARK    3  A    between atoms: C_6  and  C_7 
REMARK    4  A    between atoms: C_7  and  N_8 
REMARK    5  A    between atoms: C_11  and  C_13 
REMARK    6  A    between atoms: C_11  and  O_12 
ROOT
HETATM    1  N   UNL     1     -41.711  55.939 -54.758  1.00  0.00    -0.314 N 
HETATM    2  C   UNL     1     -42.847  55.831 -55.585  1.00  0.00     0.269 A 
HETATM    3  O   UNL     1     -42.969  55.064 -56.530  1.00  0.00    -0.269 OA
HETATM    4  C   UNL     1     -43.933  56.795 -54.995  1.00  0.00     0.198 A 
HETATM    5  C   UNL     1     -43.189  57.440 -53.849  1.00  0.00     0.017 A 
HETATM    6  C   UNL     1     -41.908  56.888 -53.745  1.00  0.00     0.047 A 
HETATM    7  C   UNL     1     -43.633  58.390 -52.938  1.00  0.00     0.013 A 
HETATM    8  C   UNL     1     -42.760  58.798 -51.929  1.00  0.00     0.001 A 
HETATM    9  C   UNL     1     -41.470  58.250 -51.836  1.00  0.00     0.002 A 
HETATM   10  C   UNL     1     -41.035  57.283 -52.747  1.00  0.00     0.030 A 
ENDROOT
BRANCH   4  11
HETATM   11  C   UNL     1     -44.361  57.880 -55.949  1.00  0.00     0.018 A 
HETATM   12  C   UNL     1     -43.549  58.753 -56.763  1.00  0.00     0.002 A 
HETATM   13  C   UNL     1     -44.411  59.580 -57.487  1.00  0.00     0.043 A 
HETATM   14  C   UNL     1     -42.162  58.929 -56.951  1.00  0.00     0.014 A 
HETATM   15  C   UNL     1     -43.960  60.557 -58.384  1.00  0.00     0.030 A 
HETATM   16  N   UNL     1     -45.694  59.234 -57.141  1.00  0.00    -0.365 N 
HETATM   17  C   UNL     1     -42.581  60.704 -58.547  1.00  0.00     0.002 A 
HETATM   18  C   UNL     1     -41.692  59.904 -57.840  1.00  0.00     0.001 A 
HETATM   19  H   UNL     1     -46.526  59.665 -57.518  1.00  0.00     0.165 HD
HETATM   20  C   UNL     1     -45.677  58.226 -56.223  1.00  0.00     0.100 A 
ENDBRANCH   4  11
BRANCH   4  21
HETATM   21  O   UNL     1     -45.039  56.063 -54.468  1.00  0.00    -0.371 OA
HETATM   22  H   UNL     1     -45.790  56.238 -55.057  1.00  0.00     0.212 HD
ENDBRANCH   4  21
BRANCH   1  23
HETATM   23  C   UNL     1     -40.544  55.097 -54.913  1.00  0.00     0.133 C 
BRANCH  23  24
HETATM   24  C   UNL     1     -40.820  53.611 -54.687  1.00  0.00     0.025 C 
BRANCH  24  25
HETATM   25  C   UNL     1     -40.348  53.121 -53.318  1.00  0.00     0.040 C 
BRANCH  25  26
HETATM   26  C   UNL     1     -41.183  53.706 -52.205  1.00  0.00    -0.058 A 
HETATM   27  C   UNL     1     -40.574  54.173 -51.032  1.00  0.00     0.007 A 
HETATM   28  C   UNL     1     -41.344  54.699 -49.995  1.00  0.00     0.001 A 
HETATM   29  C   UNL     1     -42.732  54.754 -50.115  1.00  0.00     0.000 A 
HETATM   30  C   UNL     1     -43.348  54.283 -51.273  1.00  0.00     0.001 A 
HETATM   31  C   UNL     1     -42.579  53.760 -52.314  1.00  0.00     0.007 A 
ENDBRANCH  25  26
ENDBRANCH  24  25
ENDBRANCH  23  24
ENDBRANCH   1  23
TORSDOF 6
ENDMDL
MODEL 9
REMARK VINA RESULT:      -8.2      2.358      4.703
REMARK  6 active torsions:
REMARK  status: ('A' for Active; 'I' for Inactive)
REMARK    1  A    between atoms: C_4  and  C_5 
REMARK    2  A    between atoms: C_5  and  C_6 
REMARK    3  A    between atoms: C_6  and  C_7 
REMARK    4  A    between atoms: C_7  and  N_8 
REMARK    5  A    between atoms: C_11  and  C_13 
REMARK    6  A    between atoms: C_11  and  O_12 
ROOT
HETATM    1  N   UNL     1     -42.389  55.858 -53.672  1.00  0.00    -0.314 N 
HETATM    2  C   UNL     1     -41.650  56.421 -52.612  1.00  0.00     0.269 A 
HETATM    3  O   UNL     1     -41.248  55.818 -51.626  1.00  0.00    -0.269 OA
HETATM    4  C   UNL     1     -41.365  57.912 -52.998  1.00  0.00     0.198 A 
HETATM    5  C   UNL     1     -42.103  58.043 -54.309  1.00  0.00     0.017 A 
HETATM    6  C   UNL     1     -42.662  56.811 -54.664  1.00  0.00     0.047 A 
HETATM    7  C   UNL     1     -42.216  59.145 -55.148  1.00  0.00     0.013 A 
HETATM    8  C   UNL     1     -42.921  58.998 -56.343  1.00  0.00     0.001 A 
HETATM    9  C   UNL     1     -43.490  57.762 -56.688  1.00  0.00     0.002 A 
HETATM   10  C   UNL     1     -43.361  56.653 -55.847  1.00  0.00     0.030 A 
ENDROOT
BRANCH   4  11
HETATM   11  C   UNL     1     -41.947  58.910 -52.029  1.00  0.00     0.018 A 
HETATM   12  C   UNL     1     -43.304  59.036 -51.553  1.00  0.00     0.002 A 
HETATM   13  C   UNL     1     -43.341  60.106 -50.656  1.00  0.00     0.043 A 
HETATM   14  C   UNL     1     -44.511  58.349 -51.802  1.00  0.00     0.014 A 
HETATM   15  C   UNL     1     -44.510  60.514 -50.000  1.00  0.00     0.030 A 
HETATM   16  N   UNL     1     -42.069  60.616 -50.578  1.00  0.00    -0.365 N 
HETATM   17  C   UNL     1     -45.687  59.812 -50.268  1.00  0.00     0.002 A 
HETATM   18  C   UNL     1     -45.691  58.745 -51.159  1.00  0.00     0.001 A 
HETATM   19  H   UNL     1     -41.799  61.396 -49.996  1.00  0.00     0.165 HD
HETATM   20  C   UNL     1     -41.231  59.915 -51.394  1.00  0.00     0.100 A 
ENDBRANCH   4  11
BRANCH   4  21
HETATM   21  O   UNL     1     -39.973  58.127 -53.233  1.00  0.00    -0.371 OA
HETATM   22  H   UNL     1     -39.840  59.088 -53.233  1.00  0.00     0.212 HD
ENDBRANCH   4  21
BRANCH   1  23
HETATM   23  C   UNL     1     -42.726  54.452 -53.734  1.00  0.00     0.133 C 
BRANCH  23  24
HETATM   24  C   UNL     1     -41.858  53.650 -54.703  1.00  0.00     0.025 C 
BRANCH  24  25
HETATM   25  C   UNL     1     -40.404  53.539 -54.246  1.00  0.00     0.040 C 
BRANCH  25  26
HETATM   26  C   UNL     1     -40.126  52.199 -53.609  1.00  0.00    -0.058 A 
HETATM   27  C   UNL     1     -39.795  52.116 -52.250  1.00  0.00     0.007 A 
HETATM   28  C   UNL     1     -39.521  50.880 -51.662  1.00  0.00     0.001 A 
HETATM   29  C   UNL     1     -39.566  49.717 -52.430  1.00  0.00     0.000 A 
HETATM   30  C   UNL     1     -39.885  49.791 -53.784  1.00  0.00     0.001 A 
HETATM   31  C   UNL     1     -40.163  51.026 -54.373  1.00  0.00     0.007 A 
ENDBRANCH  25  26
ENDBRANCH  24  25
ENDBRANCH  23  24
ENDBRANCH   1  23
TORSDOF 6
ENDMDL
MODEL 10
REMARK VINA RESULT:      -8.1      1.986      2.860
REMARK  6 active torsions:
REMARK  status: ('A' for Active; 'I' for Inactive)
REMARK    1  A    between atoms: C_4  and  C_5 
REMARK    2  A    between atoms: C_5  and  C_6 
REMARK    3  A    between atoms: C_6  and  C_7 
REMARK    4  A    between atoms: C_7  and  N_8 
REMARK    5  A    between atoms: C_11  and  C_13 
REMARK    6  A    between atoms: C_11  and  O_12 
ROOT
HETATM    1  N   UNL     1     -43.581  56.097 -53.005  1.00  0.00    -0.314 N 
HETATM    2  C   UNL     1     -43.768  55.894 -54.388  1.00  0.00     0.269 A 
HETATM    3  O   UNL     1     -43.605  54.836 -54.979  1.00  0.00    -0.269 OA
HETATM    4  C   UNL     1     -44.319  57.238 -54.974  1.00  0.00     0.198 A 
HETATM    5  C   UNL     1     -44.306  58.139 -53.762  1.00  0.00     0.017 A 
HETATM    6  C   UNL     1     -43.888  57.415 -52.639  1.00  0.00     0.047 A 
HETATM    7  C   UNL     1     -44.692  59.468 -53.650  1.00  0.00     0.013 A 
HETATM    8  C   UNL     1     -44.630  60.073 -52.394  1.00  0.00     0.001 A 
HETATM    9  C   UNL     1     -44.199  59.345 -51.273  1.00  0.00     0.002 A 
HETATM   10  C   UNL     1     -43.825  58.003 -51.389  1.00  0.00     0.030 A 
ENDROOT
BRANCH   4  11
HETATM   11  C   UNL     1     -43.427  57.850 -56.024  1.00  0.00     0.018 A 
HETATM   12  C   UNL     1     -43.147  57.391 -57.364  1.00  0.00     0.002 A 
HETATM   13  C   UNL     1     -42.269  58.306 -57.951  1.00  0.00     0.043 A 
HETATM   14  C   UNL     1     -43.547  56.281 -58.138  1.00  0.00     0.014 A 
HETATM   15  C   UNL     1     -41.784  58.171 -59.258  1.00  0.00     0.030 A 
HETATM   16  N   UNL     1     -42.020  59.285 -57.021  1.00  0.00    -0.365 N 
HETATM   17  C   UNL     1     -42.201  57.061 -59.996  1.00  0.00     0.002 A 
HETATM   18  C   UNL     1     -43.069  56.126 -59.445  1.00  0.00     0.001 A 
HETATM   19  H   UNL     1     -41.421  60.083 -57.175  1.00  0.00     0.165 HD
HETATM   20  C   UNL     1     -42.700  59.022 -55.868  1.00  0.00     0.100 A 
ENDBRANCH   4  11
BRANCH   4  21
HETATM   21  O   UNL     1     -45.667  57.092 -55.421  1.00  0.00    -0.371 OA
HETATM   22  H   UNL     1     -45.801  56.145 -55.582  1.00  0.00     0.212 HD
ENDBRANCH   4  21
BRANCH   1  23
HETATM   23  C   UNL     1     -43.205  55.033 -52.099  1.00  0.00     0.133 C 
BRANCH  23  24
HETATM   24  C   UNL     1     -41.713  54.999 -51.771  1.00  0.00     0.025 C 
BRANCH  24  25
HETATM   25  C   UNL     1     -40.843  54.696 -52.991  1.00  0.00     0.040 C 
BRANCH  25  26
HETATM   26  C   UNL     1     -40.459  53.237 -53.047  1.00  0.00    -0.058 A 
HETATM   27  C   UNL     1     -39.889  52.611 -51.931  1.00  0.00     0.007 A 
HETATM   28  C   UNL     1     -39.517  51.267 -51.985  1.00  0.00     0.001 A 
HETATM   29  C   UNL     1     -39.704  50.539 -53.159  1.00  0.00     0.000 A 
HETATM   30  C   UNL     1     -40.261  51.155 -54.278  1.00  0.00     0.001 A 
HETATM   31  C   UNL     1     -40.637  52.499 -54.224  1.00  0.00     0.007 A 
ENDBRANCH  25  26
ENDBRANCH  24  25
ENDBRANCH  23  24
ENDBRANCH   1  23
TORSDOF 6
ENDMDL
