MODEL 1
REMARK VINA RESULT:      -7.2      0.000      0.000
REMARK  6 active torsions:
REMARK  status: ('A' for Active; 'I' for Inactive)
REMARK       I    between atoms: N_2  and  C_3 
REMARK    1  A    between atoms: C_3  and  C_4 
REMARK    2  A    between atoms: C_6  and  C_7 
REMARK    3  A    between atoms: C_7  and  C_8 
REMARK    4  A    between atoms: C_8  and  C_9 
REMARK       I    between atoms: C_9  and  N_10 
REMARK    5  A    between atoms: N_10  and  C_11 
REMARK    6  A    between atoms: C_13  and  C_14 
ROOT
HETATM    1  C   UNL     1     -40.000  52.276 -52.795  1.00  0.00     0.222 C 
HETATM    2  N   UNL     1     -40.321  53.048 -51.725  1.00  0.00    -0.327 N 
HETATM    3  O   UNL     1     -39.107  51.435 -52.616  1.00  0.00    -0.273 OA
HETATM    4  H   UNL     1     -39.704  52.811 -50.954  1.00  0.00     0.169 HD
ENDROOT
BRANCH   1   5
HETATM    5  C   UNL     1     -40.638  52.400 -54.159  1.00  0.00     0.108 C 
BRANCH   5   6
HETATM    6  C   UNL     1     -40.378  53.737 -54.856  1.00  0.00     0.048 C 
BRANCH   6   7
HETATM    7  C   UNL     1     -41.460  54.798 -54.823  1.00  0.00    -0.057 A 
HETATM    8  C   UNL     1     -41.205  56.175 -54.877  1.00  0.00     0.024 A 
HETATM    9  C   UNL     1     -42.246  57.108 -54.746  1.00  0.00     0.032 A 
HETATM   10  C   UNL     1     -43.564  56.660 -54.610  1.00  0.00     0.017 A 
HETATM   11  C   UNL     1     -43.835  55.294 -54.568  1.00  0.00     0.002 A 
HETATM   12  C   UNL     1     -42.790  54.375 -54.660  1.00  0.00     0.007 A 
BRANCH   9  13
HETATM   13  C   UNL     1     -41.996  58.577 -54.739  1.00  0.00     0.251 C 
HETATM   14  N   UNL     1     -42.927  59.365 -55.384  1.00  0.00    -0.361 N 
HETATM   15  C   UNL     1     -42.710  60.781 -55.541  1.00  0.00     0.149 C 
HETATM   16  H   UNL     1     -43.649  58.934 -55.946  1.00  0.00     0.162 HD
HETATM   17  O   UNL     1     -40.980  59.028 -54.218  1.00  0.00    -0.268 OA
ENDBRANCH   9  13
ENDBRANCH   6   7
ENDBRANCH   5   6
ENDBRANCH   1   5
BRANCH   2  18
HETATM   18  C   UNL     1     -41.258  54.057 -51.448  1.00  0.00     0.035 A 
HETATM   19  C   UNL     1     -41.012  55.431 -51.448  1.00  0.00     0.042 A 
HETATM   20  C   UNL     1     -42.021  56.351 -51.105  1.00  0.00    -0.021 A 
HETATM   21  C   UNL     1     -43.299  55.878 -50.788  1.00  0.00     0.012 A 
HETATM   22  C   UNL     1     -43.569  54.514 -50.819  1.00  0.00     0.003 A 
HETATM   23  C   UNL     1     -42.555  53.614 -51.147  1.00  0.00     0.029 A 
BRANCH  20  24
HETATM   24  C   UNL     1     -41.745  57.777 -51.047  1.00  0.00     0.010 A 
HETATM   25  C   UNL     1     -42.621  58.887 -51.096  1.00  0.00     0.152 A 
HETATM   26  N   UNL     1     -41.981  60.056 -51.016  1.00  0.00    -0.187 NA
HETATM   27  N   UNL     1     -40.690  59.701 -50.923  1.00  0.00    -0.289 N 
HETATM   28  H   UNL     1     -39.994  60.436 -50.857  1.00  0.00     0.188 HD
HETATM   29  C   UNL     1     -40.495  58.349 -50.935  1.00  0.00     0.123 A 
ENDBRANCH  20  24
ENDBRANCH   2  18
TORSDOF 6
ENDMDL
MODEL 2
REMARK VINA RESULT:      -7.2      2.030      6.474
REMARK  6 active torsions:
REMARK  status: ('A' for Active; 'I' for Inactive)
REMARK       I    between atoms: N_2  and  C_3 
REMARK    1  A    between atoms: C_3  and  C_4 
REMARK    2  A    between atoms: C_6  and  C_7 
REMARK    3  A    between atoms: C_7  and  C_8 
REMARK    4  A    between atoms: C_8  and  C_9 
REMARK       I    between atoms: C_9  and  N_10 
REMARK    5  A    between atoms: N_10  and  C_11 
REMARK    6  A    between atoms: C_13  and  C_14 
ROOT
HETATM    1  C   UNL     1     -41.461  58.601 -53.669  1.00  0.00     0.222 C 
HETATM    2  N   UNL     1     -40.948  57.462 -54.201  1.00  0.00    -0.327 N 
HETATM    3  O   UNL     1     -40.765  59.620 -53.781  1.00  0.00    -0.273 OA
HETATM    4  H   UNL     1     -40.022  57.659 -54.567  1.00  0.00     0.169 HD
ENDROOT
BRANCH   1   5
HETATM    5  C   UNL     1     -42.786  58.685 -52.948  1.00  0.00     0.108 C 
BRANCH   5   6
HETATM    6  C   UNL     1     -42.712  58.363 -51.455  1.00  0.00     0.048 C 
BRANCH   6   7
HETATM    7  C   UNL     1     -42.589  56.915 -51.026  1.00  0.00    -0.057 A 
HETATM    8  C   UNL     1     -41.545  56.421 -50.232  1.00  0.00     0.024 A 
HETATM    9  C   UNL     1     -41.439  55.050 -49.950  1.00  0.00     0.032 A 
HETATM   10  C   UNL     1     -42.415  54.167 -50.426  1.00  0.00     0.017 A 
HETATM   11  C   UNL     1     -43.465  54.645 -51.206  1.00  0.00     0.002 A 
HETATM   12  C   UNL     1     -43.542  56.003 -51.513  1.00  0.00     0.007 A 
BRANCH   9  13
HETATM   13  C   UNL     1     -40.306  54.490 -49.160  1.00  0.00     0.251 C 
HETATM   14  N   UNL     1     -40.572  54.161 -47.846  1.00  0.00    -0.361 N 
HETATM   15  C   UNL     1     -39.515  53.732 -46.967  1.00  0.00     0.149 C 
HETATM   16  H   UNL     1     -41.453  54.431 -47.428  1.00  0.00     0.162 HD
HETATM   17  O   UNL     1     -39.194  54.383 -49.666  1.00  0.00    -0.268 OA
ENDBRANCH   9  13
ENDBRANCH   6   7
ENDBRANCH   5   6
ENDBRANCH   1   5
BRANCH   2  18
HETATM   18  C   UNL     1     -41.375  56.131 -54.351  1.00  0.00     0.035 A 
HETATM   19  C   UNL     1     -40.739  55.001 -53.836  1.00  0.00     0.042 A 
HETATM   20  C   UNL     1     -41.233  53.708 -54.093  1.00  0.00    -0.021 A 
HETATM   21  C   UNL     1     -42.399  53.559 -54.852  1.00  0.00     0.012 A 
HETATM   22  C   UNL     1     -43.063  54.679 -55.342  1.00  0.00     0.003 A 
HETATM   23  C   UNL     1     -42.554  55.953 -55.091  1.00  0.00     0.029 A 
BRANCH  20  24
HETATM   24  C   UNL     1     -40.534  52.530 -53.607  1.00  0.00     0.010 A 
HETATM   25  C   UNL     1     -40.280  51.286 -54.232  1.00  0.00     0.152 A 
HETATM   26  N   UNL     1     -39.601  50.443 -53.452  1.00  0.00    -0.187 NA
HETATM   27  N   UNL     1     -39.421  51.140 -52.318  1.00  0.00    -0.289 N 
HETATM   28  H   UNL     1     -38.924  50.694 -51.554  1.00  0.00     0.188 HD
HETATM   29  C   UNL     1     -39.959  52.395 -52.360  1.00  0.00     0.123 A 
ENDBRANCH  20  24
ENDBRANCH   2  18
TORSDOF 6
ENDMDL
MODEL 3
REMARK VINA RESULT:      -7.1      2.586      6.672
REMARK  6 active torsions:
REMARK  status: ('A' for Active; 'I' for Inactive)
REMARK       I    between atoms: N_2  and  C_3 
REMARK    1  A    between atoms: C_3  and  C_4 
REMARK    2  A    between atoms: C_6  and  C_7 
REMARK    3  A    between atoms: C_7  and  C_8 
REMARK    4  A    between atoms: C_8  and  C_9 
REMARK       I    between atoms: C_9  and  N_10 
REMARK    5  A    between atoms: N_10  and  C_11 
REMARK    6  A    between atoms: C_13  and  C_14 
ROOT
HETATM    1  C   UNL     1     -43.753  57.378 -52.314  1.00  0.00     0.222 C 
HETATM    2  N   UNL     1     -44.348  56.789 -53.383  1.00  0.00    -0.327 N 
HETATM    3  O   UNL     1     -44.512  57.809 -51.434  1.00  0.00    -0.273 OA
HETATM    4  H   UNL     1     -45.355  56.860 -53.278  1.00  0.00     0.169 HD
ENDROOT
BRANCH   1   5
HETATM    5  C   UNL     1     -42.261  57.552 -52.155  1.00  0.00     0.108 C 
BRANCH   5   6
HETATM    6  C   UNL     1     -41.534  56.311 -51.635  1.00  0.00     0.048 C 
BRANCH   6   7
HETATM    7  C   UNL     1     -41.026  55.291 -52.635  1.00  0.00    -0.057 A 
HETATM    8  C   UNL     1     -40.854  53.931 -52.344  1.00  0.00     0.024 A 
HETATM    9  C   UNL     1     -40.289  53.057 -53.287  1.00  0.00     0.032 A 
HETATM   10  C   UNL     1     -39.939  53.537 -54.554  1.00  0.00     0.017 A 
HETATM   11  C   UNL     1     -40.117  54.884 -54.862  1.00  0.00     0.002 A 
HETATM   12  C   UNL     1     -40.642  55.753 -53.906  1.00  0.00     0.007 A 
BRANCH   9  13
HETATM   13  C   UNL     1     -40.038  51.620 -52.983  1.00  0.00     0.251 C 
HETATM   14  N   UNL     1     -39.786  51.303 -51.663  1.00  0.00    -0.361 N 
HETATM   15  C   UNL     1     -39.408  49.964 -51.288  1.00  0.00     0.149 C 
HETATM   16  H   UNL     1     -39.641  52.041 -50.987  1.00  0.00     0.162 HD
HETATM   17  O   UNL     1     -40.016  50.792 -53.888  1.00  0.00    -0.268 OA
ENDBRANCH   9  13
ENDBRANCH   6   7
ENDBRANCH   5   6
ENDBRANCH   1   5
BRANCH   2  18
HETATM   18  C   UNL     1     -43.917  56.142 -54.554  1.00  0.00     0.035 A 
HETATM   19  C   UNL     1     -43.513  56.763 -55.736  1.00  0.00     0.042 A 
HETATM   20  C   UNL     1     -43.147  56.007 -56.867  1.00  0.00    -0.021 A 
HETATM   21  C   UNL     1     -43.160  54.611 -56.790  1.00  0.00     0.012 A 
HETATM   22  C   UNL     1     -43.526  53.978 -55.606  1.00  0.00     0.003 A 
HETATM   23  C   UNL     1     -43.900  54.740 -54.499  1.00  0.00     0.029 A 
BRANCH  20  24
HETATM   24  C   UNL     1     -42.785  56.657 -58.116  1.00  0.00     0.010 A 
HETATM   25  C   UNL     1     -42.728  56.149 -59.435  1.00  0.00     0.152 A 
HETATM   26  N   UNL     1     -42.344  57.065 -60.327  1.00  0.00    -0.187 NA
HETATM   27  N   UNL     1     -42.145  58.164 -59.582  1.00  0.00    -0.289 N 
HETATM   28  H   UNL     1     -41.834  59.010 -60.048  1.00  0.00     0.188 HD
HETATM   29  C   UNL     1     -42.397  57.974 -58.253  1.00  0.00     0.123 A 
ENDBRANCH  20  24
ENDBRANCH   2  18
TORSDOF 6
ENDMDL
MODEL 4
REMARK VINA RESULT:      -7.0      2.161      4.877
REMARK  6 active torsions:
REMARK  status: ('A' for Active; 'I' for Inactive)
REMARK       I    between atoms: N_2  and  C_3 
REMARK    1  A    between atoms: C_3  and  C_4 
REMARK    2  A    between atoms: C_6  and  C_7 
REMARK    3  A    between atoms: C_7  and  C_8 
REMARK    4  A    between atoms: C_8  and  C_9 
REMARK       I    between atoms: C_9  and  N_10 
REMARK    5  A    between atoms: N_10  and  C_11 
REMARK    6  A    between atoms: C_13  and  C_14 
ROOT
HETATM    1  C   UNL     1     -42.877  56.153 -56.369  1.00  0.00     0.222 C 
HETATM    2  N   UNL     1     -43.299  57.082 -55.473  1.00  0.00    -0.327 N 
HETATM    3  O   UNL     1     -43.274  56.296 -57.534  1.00  0.00    -0.273 OA
HETATM    4  H   UNL     1     -43.932  57.723 -55.940  1.00  0.00     0.169 HD
ENDROOT
BRANCH   1   5
HETATM    5  C   UNL     1     -41.993  54.976 -56.026  1.00  0.00     0.108 C 
BRANCH   5   6
HETATM    6  C   UNL     1     -42.587  54.026 -54.986  1.00  0.00     0.048 C 
BRANCH   6   7
HETATM    7  C   UNL     1     -41.690  53.500 -53.883  1.00  0.00    -0.057 A 
HETATM    8  C   UNL     1     -41.587  54.087 -52.614  1.00  0.00     0.024 A 
HETATM    9  C   UNL     1     -40.666  53.606 -51.669  1.00  0.00     0.032 A 
HETATM   10  C   UNL     1     -39.874  52.495 -51.977  1.00  0.00     0.017 A 
HETATM   11  C   UNL     1     -39.975  51.893 -53.229  1.00  0.00     0.002 A 
HETATM   12  C   UNL     1     -40.865  52.400 -54.176  1.00  0.00     0.007 A 
BRANCH   9  13
HETATM   13  C   UNL     1     -40.492  54.249 -50.336  1.00  0.00     0.251 C 
HETATM   14  N   UNL     1     -40.399  53.403 -49.250  1.00  0.00    -0.361 N 
HETATM   15  C   UNL     1     -40.355  53.930 -47.910  1.00  0.00     0.149 C 
HETATM   16  H   UNL     1     -40.588  52.416 -49.363  1.00  0.00     0.162 HD
HETATM   17  O   UNL     1     -40.482  55.472 -50.237  1.00  0.00    -0.268 OA
ENDBRANCH   9  13
ENDBRANCH   6   7
ENDBRANCH   5   6
ENDBRANCH   1   5
BRANCH   2  18
HETATM   18  C   UNL     1     -43.083  57.348 -54.110  1.00  0.00     0.035 A 
HETATM   19  C   UNL     1     -41.969  57.985 -53.563  1.00  0.00     0.042 A 
HETATM   20  C   UNL     1     -41.837  58.154 -52.171  1.00  0.00    -0.021 A 
HETATM   21  C   UNL     1     -42.857  57.700 -51.328  1.00  0.00     0.012 A 
HETATM   22  C   UNL     1     -43.990  57.095 -51.862  1.00  0.00     0.003 A 
HETATM   23  C   UNL     1     -44.100  56.922 -53.241  1.00  0.00     0.029 A 
BRANCH  20  24
HETATM   24  C   UNL     1     -40.648  58.764 -51.601  1.00  0.00     0.010 A 
HETATM   25  C   UNL     1     -40.451  59.413 -50.359  1.00  0.00     0.152 A 
HETATM   26  N   UNL     1     -39.201  59.850 -50.194  1.00  0.00    -0.187 NA
HETATM   27  N   UNL     1     -38.590  59.489 -51.334  1.00  0.00    -0.289 N 
HETATM   28  H   UNL     1     -37.610  59.725 -51.449  1.00  0.00     0.188 HD
HETATM   29  C   UNL     1     -39.411  58.834 -52.208  1.00  0.00     0.123 A 
ENDBRANCH  20  24
ENDBRANCH   2  18
TORSDOF 6
ENDMDL
MODEL 5
REMARK VINA RESULT:      -7.0      2.412      4.386
REMARK  6 active torsions:
REMARK  status: ('A' for Active; 'I' for Inactive)
REMARK       I    between atoms: N_2  and  C_3 
REMARK    1  A    between atoms: C_3  and  C_4 
REMARK    2  A    between atoms: C_6  and  C_7 
REMARK    3  A    between atoms: C_7  and  C_8 
REMARK    4  A    between atoms: C_8  and  C_9 
REMARK       I    between atoms: C_9  and  N_10 
REMARK    5  A    between atoms: N_10  and  C_11 
REMARK    6  A    between atoms: C_13  and  C_14 
ROOT
HETATM    1  C   UNL     1     -42.455  54.883 -55.771  1.00  0.00     0.222 C 
HETATM    2  N   UNL     1     -41.303  54.324 -55.318  1.00  0.00    -0.327 N 
HETATM    3  O   UNL     1     -42.439  55.303 -56.936  1.00  0.00    -0.273 OA
HETATM    4  H   UNL     1     -40.594  54.404 -56.041  1.00  0.00     0.169 HD
ENDROOT
BRANCH   1   5
HETATM    5  C   UNL     1     -43.711  55.036 -54.945  1.00  0.00     0.108 C 
BRANCH   5   6
HETATM    6  C   UNL     1     -44.153  56.484 -54.734  1.00  0.00     0.048 C 
BRANCH   6   7
HETATM    7  C   UNL     1     -43.607  57.247 -53.543  1.00  0.00    -0.057 A 
HETATM    8  C   UNL     1     -42.291  57.722 -53.456  1.00  0.00     0.024 A 
HETATM    9  C   UNL     1     -41.822  58.338 -52.285  1.00  0.00     0.032 A 
HETATM   10  C   UNL     1     -42.692  58.528 -51.206  1.00  0.00     0.017 A 
HETATM   11  C   UNL     1     -44.007  58.073 -51.283  1.00  0.00     0.002 A 
HETATM   12  C   UNL     1     -44.453  57.428 -52.435  1.00  0.00     0.007 A 
BRANCH   9  13
HETATM   13  C   UNL     1     -40.411  58.797 -52.143  1.00  0.00     0.251 C 
HETATM   14  N   UNL     1     -39.928  58.918 -50.856  1.00  0.00    -0.361 N 
HETATM   15  C   UNL     1     -38.621  59.473 -50.611  1.00  0.00     0.149 C 
HETATM   16  H   UNL     1     -40.561  58.836 -50.071  1.00  0.00     0.162 HD
HETATM   17  O   UNL     1     -39.754  59.088 -53.137  1.00  0.00    -0.268 OA
ENDBRANCH   9  13
ENDBRANCH   6   7
ENDBRANCH   5   6
ENDBRANCH   1   5
BRANCH   2  18
HETATM   18  C   UNL     1     -40.876  53.697 -54.135  1.00  0.00     0.035 A 
HETATM   19  C   UNL     1     -41.044  54.185 -52.839  1.00  0.00     0.042 A 
HETATM   20  C   UNL     1     -40.529  53.491 -51.727  1.00  0.00    -0.021 A 
HETATM   21  C   UNL     1     -39.865  52.276 -51.927  1.00  0.00     0.012 A 
HETATM   22  C   UNL     1     -39.722  51.758 -53.211  1.00  0.00     0.003 A 
HETATM   23  C   UNL     1     -40.225  52.465 -54.303  1.00  0.00     0.029 A 
BRANCH  20  24
HETATM   24  C   UNL     1     -40.651  54.032 -50.384  1.00  0.00     0.010 A 
HETATM   25  C   UNL     1     -41.081  55.306 -49.940  1.00  0.00     0.152 A 
HETATM   26  N   UNL     1     -41.053  55.428 -48.612  1.00  0.00    -0.187 NA
HETATM   27  N   UNL     1     -40.597  54.236 -48.197  1.00  0.00    -0.289 N 
HETATM   28  H   UNL     1     -40.480  54.087 -47.199  1.00  0.00     0.188 HD
HETATM   29  C   UNL     1     -40.344  53.364 -49.217  1.00  0.00     0.123 A 
ENDBRANCH  20  24
ENDBRANCH   2  18
TORSDOF 6
ENDMDL
MODEL 6
REMARK VINA RESULT:      -6.9      3.075      6.096
REMARK  6 active torsions:
REMARK  status: ('A' for Active; 'I' for Inactive)
REMARK       I    between atoms: N_2  and  C_3 
REMARK    1  A    between atoms: C_3  and  C_4 
REMARK    2  A    between atoms: C_6  and  C_7 
REMARK    3  A    between atoms: C_7  and  C_8 
REMARK    4  A    between atoms: C_8  and  C_9 
REMARK       I    between atoms: C_9  and  N_10 
REMARK    5  A    between atoms: N_10  and  C_11 
REMARK    6  A    between atoms: C_13  and  C_14 
ROOT
HETATM    1  C   UNL     1     -43.080  56.652 -52.408  1.00  0.00     0.222 C 
HETATM    2  N   UNL     1     -42.000  55.839 -52.280  1.00  0.00    -0.327 N 
HETATM    3  O   UNL     1     -43.302  57.421 -51.462  1.00  0.00    -0.273 OA
HETATM    4  H   UNL     1     -41.584  55.988 -51.366  1.00  0.00     0.169 HD
ENDROOT
BRANCH   1   5
HETATM    5  C   UNL     1     -44.012  56.651 -53.597  1.00  0.00     0.108 C 
BRANCH   5   6
HETATM    6  C   UNL     1     -44.040  57.968 -54.376  1.00  0.00     0.048 C 
BRANCH   6   7
HETATM    7  C   UNL     1     -43.428  58.008 -55.762  1.00  0.00    -0.057 A 
HETATM    8  C   UNL     1     -43.717  57.079 -56.770  1.00  0.00     0.024 A 
HETATM    9  C   UNL     1     -43.044  57.118 -58.002  1.00  0.00     0.032 A 
HETATM   10  C   UNL     1     -42.106  58.127 -58.247  1.00  0.00     0.017 A 
HETATM   11  C   UNL     1     -41.818  59.065 -57.259  1.00  0.00     0.002 A 
HETATM   12  C   UNL     1     -42.464  58.997 -56.025  1.00  0.00     0.007 A 
BRANCH   9  13
HETATM   13  C   UNL     1     -43.287  56.106 -59.069  1.00  0.00     0.251 C 
HETATM   14  N   UNL     1     -44.430  55.342 -58.947  1.00  0.00    -0.361 N 
HETATM   15  C   UNL     1     -44.688  54.255 -59.856  1.00  0.00     0.149 C 
HETATM   16  H   UNL     1     -44.977  55.386 -58.097  1.00  0.00     0.162 HD
HETATM   17  O   UNL     1     -42.469  55.951 -59.970  1.00  0.00    -0.268 OA
ENDBRANCH   9  13
ENDBRANCH   6   7
ENDBRANCH   5   6
ENDBRANCH   1   5
BRANCH   2  18
HETATM   18  C   UNL     1     -41.355  54.877 -53.076  1.00  0.00     0.035 A 
HETATM   19  C   UNL     1     -41.033  53.575 -52.693  1.00  0.00     0.042 A 
HETATM   20  C   UNL     1     -40.339  52.711 -53.562  1.00  0.00    -0.021 A 
HETATM   21  C   UNL     1     -39.994  53.160 -54.841  1.00  0.00     0.012 A 
HETATM   22  C   UNL     1     -40.341  54.444 -55.250  1.00  0.00     0.003 A 
HETATM   23  C   UNL     1     -41.016  55.292 -54.373  1.00  0.00     0.029 A 
BRANCH  20  24
HETATM   24  C   UNL     1     -39.951  51.376 -53.138  1.00  0.00     0.010 A 
HETATM   25  C   UNL     1     -39.871  50.165 -53.866  1.00  0.00     0.152 A 
HETATM   26  N   UNL     1     -39.473  49.135 -53.117  1.00  0.00    -0.187 NA
HETATM   27  N   UNL     1     -39.302  49.679 -51.902  1.00  0.00    -0.289 N 
HETATM   28  H   UNL     1     -39.000  49.074 -51.144  1.00  0.00     0.188 HD
HETATM   29  C   UNL     1     -39.573  51.017 -51.861  1.00  0.00     0.123 A 
ENDBRANCH  20  24
ENDBRANCH   2  18
TORSDOF 6
ENDMDL
MODEL 7
REMARK VINA RESULT:      -6.9      3.060      5.236
REMARK  6 active torsions:
REMARK  status: ('A' for Active; 'I' for Inactive)
REMARK       I    between atoms: N_2  and  C_3 
REMARK    1  A    between atoms: C_3  and  C_4 
REMARK    2  A    between atoms: C_6  and  C_7 
REMARK    3  A    between atoms: C_7  and  C_8 
REMARK    4  A    between atoms: C_8  and  C_9 
REMARK       I    between atoms: C_9  and  N_10 
REMARK    5  A    between atoms: N_10  and  C_11 
REMARK    6  A    between atoms: C_13  and  C_14 
ROOT
HETATM    1  C   UNL     1     -44.043  56.771 -51.041  1.00  0.00     0.222 C 
HETATM    2  N   UNL     1     -43.459  55.726 -50.402  1.00  0.00    -0.327 N 
HETATM    3  O   UNL     1     -45.155  57.119 -50.619  1.00  0.00    -0.273 OA
HETATM    4  H   UNL     1     -44.096  55.377 -49.693  1.00  0.00     0.169 HD
ENDROOT
BRANCH   1   5
HETATM    5  C   UNL     1     -43.438  57.496 -52.221  1.00  0.00     0.108 C 
BRANCH   5   6
HETATM    6  C   UNL     1     -44.285  57.443 -53.494  1.00  0.00     0.048 C 
BRANCH   6   7
HETATM    7  C   UNL     1     -43.769  56.652 -54.679  1.00  0.00    -0.057 A 
HETATM    8  C   UNL     1     -43.656  57.172 -55.976  1.00  0.00     0.024 A 
HETATM    9  C   UNL     1     -43.261  56.357 -57.049  1.00  0.00     0.032 A 
HETATM   10  C   UNL     1     -42.925  55.019 -56.815  1.00  0.00     0.017 A 
HETATM   11  C   UNL     1     -43.019  54.491 -55.529  1.00  0.00     0.002 A 
HETATM   12  C   UNL     1     -43.450  55.298 -54.476  1.00  0.00     0.007 A 
BRANCH   9  13
HETATM   13  C   UNL     1     -43.192  56.868 -58.447  1.00  0.00     0.251 C 
HETATM   14  N   UNL     1     -41.962  57.320 -58.879  1.00  0.00    -0.361 N 
HETATM   15  C   UNL     1     -41.821  57.947 -60.168  1.00  0.00     0.149 C 
HETATM   16  H   UNL     1     -41.203  57.424 -58.218  1.00  0.00     0.162 HD
HETATM   17  O   UNL     1     -44.205  56.914 -59.137  1.00  0.00    -0.268 OA
ENDBRANCH   9  13
ENDBRANCH   6   7
ENDBRANCH   5   6
ENDBRANCH   1   5
BRANCH   2  18
HETATM   18  C   UNL     1     -42.237  55.037 -50.492  1.00  0.00     0.035 A 
HETATM   19  C   UNL     1     -41.876  54.127 -51.486  1.00  0.00     0.042 A 
HETATM   20  C   UNL     1     -40.638  53.458 -51.445  1.00  0.00    -0.021 A 
HETATM   21  C   UNL     1     -39.744  53.735 -50.406  1.00  0.00     0.012 A 
HETATM   22  C   UNL     1     -40.075  54.667 -49.427  1.00  0.00     0.003 A 
HETATM   23  C   UNL     1     -41.311  55.311 -49.473  1.00  0.00     0.029 A 
BRANCH  20  24
HETATM   24  C   UNL     1     -40.291  52.465 -52.449  1.00  0.00     0.010 A 
HETATM   25  C   UNL     1     -40.626  52.388 -53.822  1.00  0.00     0.152 A 
HETATM   26  N   UNL     1     -40.115  51.310 -54.420  1.00  0.00    -0.187 NA
HETATM   27  N   UNL     1     -39.455  50.686 -53.431  1.00  0.00    -0.289 N 
HETATM   28  H   UNL     1     -38.978  49.816 -53.647  1.00  0.00     0.188 HD
HETATM   29  C   UNL     1     -39.527  51.337 -52.233  1.00  0.00     0.123 A 
ENDBRANCH  20  24
ENDBRANCH   2  18
TORSDOF 6
ENDMDL
MODEL 8
REMARK VINA RESULT:      -6.8      2.587      5.057
REMARK  6 active torsions:
REMARK  status: ('A' for Active; 'I' for Inactive)
REMARK       I    between atoms: N_2  and  C_3 
REMARK    1  A    between atoms: C_3  and  C_4 
REMARK    2  A    between atoms: C_6  and  C_7 
REMARK    3  A    between atoms: C_7  and  C_8 
REMARK    4  A    between atoms: C_8  and  C_9 
REMARK       I    between atoms: C_9  and  N_10 
REMARK    5  A    between atoms: N_10  and  C_11 
REMARK    6  A    between atoms: C_13  and  C_14 
ROOT
HETATM    1  C   UNL     1     -40.714  58.709 -50.642  1.00  0.00     0.222 C 
HETATM    2  N   UNL     1     -41.395  57.659 -50.112  1.00  0.00    -0.327 N 
HETATM    3  O   UNL     1     -40.488  59.657 -49.878  1.00  0.00    -0.273 OA
HETATM    4  H   UNL     1     -41.644  57.881 -49.154  1.00  0.00     0.169 HD
ENDROOT
BRANCH   1   5
HETATM    5  C   UNL     1     -40.254  58.789 -52.079  1.00  0.00     0.108 C 
BRANCH   5   6
HETATM    6  C   UNL     1     -41.389  58.859 -53.101  1.00  0.00     0.048 C 
BRANCH   6   7
HETATM    7  C   UNL     1     -41.538  57.732 -54.104  1.00  0.00    -0.057 A 
HETATM    8  C   UNL     1     -42.360  57.798 -55.237  1.00  0.00     0.024 A 
HETATM    9  C   UNL     1     -42.526  56.683 -56.074  1.00  0.00     0.032 A 
HETATM   10  C   UNL     1     -41.822  55.504 -55.806  1.00  0.00     0.017 A 
HETATM   11  C   UNL     1     -40.991  55.428 -54.691  1.00  0.00     0.002 A 
HETATM   12  C   UNL     1     -40.862  56.527 -53.843  1.00  0.00     0.007 A 
BRANCH   9  13
HETATM   13  C   UNL     1     -43.442  56.706 -57.250  1.00  0.00     0.251 C 
HETATM   14  N   UNL     1     -43.472  55.569 -58.032  1.00  0.00    -0.361 N 
HETATM   15  C   UNL     1     -44.228  55.539 -59.257  1.00  0.00     0.149 C 
HETATM   16  H   UNL     1     -42.795  54.833 -57.877  1.00  0.00     0.162 HD
HETATM   17  O   UNL     1     -44.087  57.717 -57.510  1.00  0.00    -0.268 OA
ENDBRANCH   9  13
ENDBRANCH   6   7
ENDBRANCH   5   6
ENDBRANCH   1   5
BRANCH   2  18
HETATM   18  C   UNL     1     -41.823  56.398 -50.560  1.00  0.00     0.035 A 
HETATM   19  C   UNL     1     -41.025  55.262 -50.704  1.00  0.00     0.042 A 
HETATM   20  C   UNL     1     -41.556  54.060 -51.211  1.00  0.00    -0.021 A 
HETATM   21  C   UNL     1     -42.912  53.999 -51.547  1.00  0.00     0.012 A 
HETATM   22  C   UNL     1     -43.727  55.113 -51.375  1.00  0.00     0.003 A 
HETATM   23  C   UNL     1     -43.184  56.300 -50.885  1.00  0.00     0.029 A 
BRANCH  20  24
HETATM   24  C   UNL     1     -40.709  52.897 -51.417  1.00  0.00     0.010 A 
HETATM   25  C   UNL     1     -40.076  52.414 -52.587  1.00  0.00     0.152 A 
HETATM   26  N   UNL     1     -39.374  51.299 -52.374  1.00  0.00    -0.187 NA
HETATM   27  N   UNL     1     -39.559  51.057 -51.066  1.00  0.00    -0.289 N 
HETATM   28  H   UNL     1     -39.117  50.237 -50.663  1.00  0.00     0.188 HD
HETATM   29  C   UNL     1     -40.348  51.985 -50.447  1.00  0.00     0.123 A 
ENDBRANCH  20  24
ENDBRANCH   2  18
TORSDOF 6
ENDMDL
MODEL 9
REMARK VINA RESULT:      -6.7     16.055     17.795
REMARK  6 active torsions:
REMARK  status: ('A' for Active; 'I' for Inactive)
REMARK       I    between atoms: N_2  and  C_3 
REMARK    1  A    between atoms: C_3  and  C_4 
REMARK    2  A    between atoms: C_6  and  C_7 
REMARK    3  A    between atoms: C_7  and  C_8 
REMARK    4  A    between atoms: C_8  and  C_9 
REMARK       I    between atoms: C_9  and  N_10 
REMARK    5  A    between atoms: N_10  and  C_11 
REMARK    6  A    between atoms: C_13  and  C_14 
ROOT
HETATM    1  C   UNL     1     -37.154  39.635 -52.029  1.00  0.00     0.222 C 
HETATM    2  N   UNL     1     -35.905  39.104 -52.068  1.00  0.00    -0.327 N 
HETATM    3  O   UNL     1     -38.058  38.880 -51.646  1.00  0.00    -0.273 OA
HETATM    4  H   UNL     1     -35.957  38.124 -51.809  1.00  0.00     0.169 HD
ENDROOT
BRANCH   1   5
HETATM    5  C   UNL     1     -37.493  41.049 -52.438  1.00  0.00     0.108 C 
BRANCH   5   6
HETATM    6  C   UNL     1     -38.110  41.170 -53.833  1.00  0.00     0.048 C 
BRANCH   6   7
HETATM    7  C   UNL     1     -37.226  41.604 -54.985  1.00  0.00    -0.057 A 
HETATM    8  C   UNL     1     -37.574  41.457 -56.335  1.00  0.00     0.024 A 
HETATM    9  C   UNL     1     -36.670  41.794 -57.354  1.00  0.00     0.032 A 
HETATM   10  C   UNL     1     -35.421  42.331 -57.023  1.00  0.00     0.017 A 
HETATM   11  C   UNL     1     -35.066  42.495 -55.686  1.00  0.00     0.002 A 
HETATM   12  C   UNL     1     -35.956  42.122 -54.679  1.00  0.00     0.007 A 
BRANCH   9  13
HETATM   13  C   UNL     1     -36.991  41.590 -58.796  1.00  0.00     0.251 C 
HETATM   14  N   UNL     1     -37.049  40.284 -59.237  1.00  0.00    -0.361 N 
HETATM   15  C   UNL     1     -37.227  39.987 -60.635  1.00  0.00     0.149 C 
HETATM   16  H   UNL     1     -36.744  39.533 -58.631  1.00  0.00     0.162 HD
HETATM   17  O   UNL     1     -37.143  42.556 -59.536  1.00  0.00    -0.268 OA
ENDBRANCH   9  13
ENDBRANCH   6   7
ENDBRANCH   5   6
ENDBRANCH   1   5
BRANCH   2  18
HETATM   18  C   UNL     1     -34.615  39.568 -52.377  1.00  0.00     0.035 A 
HETATM   19  C   UNL     1     -33.949  39.400 -53.592  1.00  0.00     0.042 A 
HETATM   20  C   UNL     1     -32.633  39.868 -53.771  1.00  0.00    -0.021 A 
HETATM   21  C   UNL     1     -31.996  40.538 -52.721  1.00  0.00     0.012 A 
HETATM   22  C   UNL     1     -32.660  40.743 -51.516  1.00  0.00     0.003 A 
HETATM   23  C   UNL     1     -33.958  40.262 -51.349  1.00  0.00     0.029 A 
BRANCH  20  24
HETATM   24  C   UNL     1     -31.921  39.638 -55.017  1.00  0.00     0.010 A 
HETATM   25  C   UNL     1     -30.769  38.863 -55.291  1.00  0.00     0.152 A 
HETATM   26  N   UNL     1     -30.410  38.903 -56.575  1.00  0.00    -0.187 NA
HETATM   27  N   UNL     1     -31.327  39.711 -57.132  1.00  0.00    -0.289 N 
HETATM   28  H   UNL     1     -31.256  39.904 -58.126  1.00  0.00     0.188 HD
HETATM   29  C   UNL     1     -32.254  40.176 -56.243  1.00  0.00     0.123 A 
ENDBRANCH  20  24
ENDBRANCH   2  18
TORSDOF 6
ENDMDL
MODEL 10
REMARK VINA RESULT:      -6.6      3.275      7.020
REMARK  6 active torsions:
REMARK  status: ('A' for Active; 'I' for Inactive)
REMARK       I    between atoms: N_2  and  C_3 
REMARK    1  A    between atoms: C_3  and  C_4 
REMARK    2  A    between atoms: C_6  and  C_7 
REMARK    3  A    between atoms: C_7  and  C_8 
REMARK    4  A    between atoms: C_8  and  C_9 
REMARK       I    between atoms: C_9  and  N_10 
REMARK    5  A    between atoms: N_10  and  C_11 
REMARK    6  A    between atoms: C_13  and  C_14 
ROOT
HETATM    1  C   UNL     1     -42.818  55.301 -55.317  1.00  0.00     0.222 C 
HETATM    2  N   UNL     1     -43.429  55.850 -56.398  1.00  0.00    -0.327 N 
HETATM    3  O   UNL     1     -43.560  54.754 -54.488  1.00  0.00    -0.273 OA
HETATM    4  H   UNL     1     -44.434  55.747 -56.295  1.00  0.00     0.169 HD
ENDROOT
BRANCH   1   5
HETATM    5  C   UNL     1     -41.329  55.340 -55.066  1.00  0.00     0.108 C 
BRANCH   5   6
HETATM    6  C   UNL     1     -40.619  54.002 -55.278  1.00  0.00     0.048 C 
BRANCH   6   7
HETATM    7  C   UNL     1     -40.379  53.107 -54.079  1.00  0.00    -0.057 A 
HETATM    8  C   UNL     1     -40.647  53.484 -52.756  1.00  0.00     0.024 A 
HETATM    9  C   UNL     1     -40.312  52.643 -51.683  1.00  0.00     0.032 A 
HETATM   10  C   UNL     1     -39.749  51.388 -51.937  1.00  0.00     0.017 A 
HETATM   11  C   UNL     1     -39.488  50.993 -53.248  1.00  0.00     0.002 A 
HETATM   12  C   UNL     1     -39.789  51.851 -54.305  1.00  0.00     0.007 A 
BRANCH   9  13
HETATM   13  C   UNL     1     -40.529  53.045 -50.265  1.00  0.00     0.251 C 
HETATM   14  N   UNL     1     -40.926  54.349 -50.046  1.00  0.00    -0.361 N 
HETATM   15  C   UNL     1     -41.040  54.868 -48.707  1.00  0.00     0.149 C 
HETATM   16  H   UNL     1     -40.921  55.012 -50.810  1.00  0.00     0.162 HD
HETATM   17  O   UNL     1     -40.312  52.248 -49.357  1.00  0.00    -0.268 OA
ENDBRANCH   9  13
ENDBRANCH   6   7
ENDBRANCH   5   6
ENDBRANCH   1   5
BRANCH   2  18
HETATM   18  C   UNL     1     -43.018  56.506 -57.571  1.00  0.00     0.035 A 
HETATM   19  C   UNL     1     -42.589  57.831 -57.665  1.00  0.00     0.042 A 
HETATM   20  C   UNL     1     -42.246  58.398 -58.908  1.00  0.00    -0.021 A 
HETATM   21  C   UNL     1     -42.308  57.608 -60.061  1.00  0.00     0.012 A 
HETATM   22  C   UNL     1     -42.699  56.276 -59.977  1.00  0.00     0.003 A 
HETATM   23  C   UNL     1     -43.049  55.732 -58.741  1.00  0.00     0.029 A 
BRANCH  20  24
HETATM   24  C   UNL     1     -41.859  59.795 -59.011  1.00  0.00     0.010 A 
HETATM   25  C   UNL     1     -41.446  60.712 -58.015  1.00  0.00     0.152 A 
HETATM   26  N   UNL     1     -41.174  61.923 -58.506  1.00  0.00    -0.187 NA
HETATM   27  N   UNL     1     -41.418  61.790 -59.820  1.00  0.00    -0.289 N 
HETATM   28  H   UNL     1     -41.285  62.601 -60.417  1.00  0.00     0.188 HD
HETATM   29  C   UNL     1     -41.828  60.536 -60.174  1.00  0.00     0.123 A 
ENDBRANCH  20  24
ENDBRANCH   2  18
TORSDOF 6
ENDMDL
