MODEL 1
REMARK VINA RESULT:      -9.7      0.000      0.000
REMARK  5 active torsions:
REMARK  status: ('A' for Active; 'I' for Inactive)
REMARK    1  A    between atoms: C_4  and  C_5 
REMARK    2  A    between atoms: N_7  and  C_8 
REMARK    3  A    between atoms: C_8  and  C_9 
REMARK    4  A    between atoms: C_9  and  N_10 
REMARK       I    between atoms: N_10  and  C_11 
REMARK    5  A    between atoms: C_11  and  C_12 
ROOT
HETATM    1  N   UNL     1     -42.049  54.297 -54.678  1.00  0.00    -0.359 N 
HETATM    2  C   UNL     1     -42.089  53.930 -53.349  1.00  0.00     0.230 C 
HETATM    3  O   UNL     1     -43.146  53.826 -52.724  1.00  0.00    -0.272 OA
HETATM    4  H   UNL     1     -41.145  54.514 -55.082  1.00  0.00     0.162 HD
ENDROOT
BRANCH   1   5
HETATM    5  C   UNL     1     -43.229  54.744 -55.401  1.00  0.00     0.144 C 
BRANCH   5   6
HETATM    6  C   UNL     1     -43.160  56.181 -55.927  1.00  0.00     0.174 C 
BRANCH   6   7
HETATM    7  N   UNL     1     -43.487  57.148 -54.881  1.00  0.00    -0.233 N 
HETATM    8  N   UNL     1     -42.456  57.491 -54.033  1.00  0.00    -0.169 NA
HETATM    9  C   UNL     1     -42.684  58.385 -53.120  1.00  0.00     0.087 A 
HETATM   10  C   UNL     1     -44.000  59.029 -52.912  1.00  0.00     0.040 A 
HETATM   11  C   UNL     1     -44.968  58.718 -53.774  1.00  0.00     0.078 A 
HETATM   12  C   UNL     1     -44.731  57.762 -54.873  1.00  0.00     0.263 A 
HETATM   13  O   UNL     1     -45.626  57.560 -55.690  1.00  0.00    -0.267 OA
BRANCH   9  14
HETATM   14  C   UNL     1     -41.576  58.783 -52.203  1.00  0.00    -0.006 A 
HETATM   15  C   UNL     1     -40.232  58.734 -52.596  1.00  0.00     0.014 A 
HETATM   16  C   UNL     1     -39.224  59.104 -51.701  1.00  0.00     0.001 A 
HETATM   17  C   UNL     1     -39.552  59.515 -50.410  1.00  0.00     0.000 A 
HETATM   18  C   UNL     1     -40.886  59.550 -50.006  1.00  0.00     0.001 A 
HETATM   19  C   UNL     1     -41.895  59.181 -50.897  1.00  0.00     0.014 A 
ENDBRANCH   9  14
ENDBRANCH   6   7
ENDBRANCH   5   6
ENDBRANCH   1   5
BRANCH   2  20
HETATM   20  C   UNL     1     -40.730  53.721 -52.655  1.00  0.00     0.149 C 
HETATM   21  C   UNL     1     -40.248  52.304 -52.866  1.00  0.00    -0.007 A 
HETATM   22  C   UNL     1     -40.116  51.437 -51.780  1.00  0.00     0.083 A 
HETATM   23  C   UNL     1     -39.944  51.833 -54.155  1.00  0.00     0.011 A 
HETATM   24  C   UNL     1     -39.703  50.117 -51.974  1.00  0.00     0.038 A 
HETATM   25  O   UNL     1     -40.376  51.804 -50.482  1.00  0.00    -0.310 OA
HETATM   26  C   UNL     1     -39.408  49.656 -53.257  1.00  0.00     0.003 A 
HETATM   27  C   UNL     1     -39.527  50.516 -54.348  1.00  0.00     0.001 A 
HETATM   28  C   UNL     1     -40.569  53.136 -50.206  1.00  0.00     0.083 A 
HETATM   29  C   UNL     1     -40.736  54.112 -51.193  1.00  0.00    -0.007 A 
HETATM   30  C   UNL     1     -40.602  53.483 -48.854  1.00  0.00     0.038 A 
HETATM   31  C   UNL     1     -40.924  55.448 -50.804  1.00  0.00     0.011 A 
HETATM   32  C   UNL     1     -40.951  55.794 -49.453  1.00  0.00     0.001 A 
HETATM   33  C   UNL     1     -40.792  54.812 -48.478  1.00  0.00     0.003 A 
ENDBRANCH   2  20
TORSDOF 5
ENDMDL
MODEL 2
REMARK VINA RESULT:      -9.7      1.096      3.399
REMARK  5 active torsions:
REMARK  status: ('A' for Active; 'I' for Inactive)
REMARK    1  A    between atoms: C_4  and  C_5 
REMARK    2  A    between atoms: N_7  and  C_8 
REMARK    3  A    between atoms: C_8  and  C_9 
REMARK    4  A    between atoms: C_9  and  N_10 
REMARK       I    between atoms: N_10  and  C_11 
REMARK    5  A    between atoms: C_11  and  C_12 
ROOT
HETATM    1  N   UNL     1     -42.298  55.248 -55.065  1.00  0.00    -0.359 N 
HETATM    2  C   UNL     1     -41.241  54.691 -54.375  1.00  0.00     0.230 C 
HETATM    3  O   UNL     1     -40.067  54.927 -54.663  1.00  0.00    -0.272 OA
HETATM    4  H   UNL     1     -43.227  54.890 -54.876  1.00  0.00     0.162 HD
ENDROOT
BRANCH   1   5
HETATM    5  C   UNL     1     -42.115  56.023 -56.282  1.00  0.00     0.144 C 
BRANCH   5   6
HETATM    6  C   UNL     1     -43.196  57.074 -56.549  1.00  0.00     0.174 C 
BRANCH   6   7
HETATM    7  N   UNL     1     -43.600  57.749 -55.318  1.00  0.00    -0.233 N 
HETATM    8  N   UNL     1     -42.589  58.023 -54.421  1.00  0.00    -0.169 NA
HETATM    9  C   UNL     1     -42.890  58.668 -53.335  1.00  0.00     0.087 A 
HETATM   10  C   UNL     1     -44.264  59.091 -52.986  1.00  0.00     0.040 A 
HETATM   11  C   UNL     1     -45.217  58.859 -53.890  1.00  0.00     0.078 A 
HETATM   12  C   UNL     1     -44.905  58.195 -55.171  1.00  0.00     0.263 A 
HETATM   13  O   UNL     1     -45.796  58.067 -56.007  1.00  0.00    -0.267 OA
BRANCH   9  14
HETATM   14  C   UNL     1     -41.807  58.990 -52.360  1.00  0.00    -0.006 A 
HETATM   15  C   UNL     1     -40.463  58.690 -52.616  1.00  0.00     0.014 A 
HETATM   16  C   UNL     1     -39.482  58.998 -51.669  1.00  0.00     0.001 A 
HETATM   17  C   UNL     1     -39.838  59.596 -50.462  1.00  0.00     0.000 A 
HETATM   18  C   UNL     1     -41.176  59.882 -50.192  1.00  0.00     0.001 A 
HETATM   19  C   UNL     1     -42.158  59.575 -51.135  1.00  0.00     0.014 A 
ENDBRANCH   9  14
ENDBRANCH   6   7
ENDBRANCH   5   6
ENDBRANCH   1   5
BRANCH   2  20
HETATM   20  C   UNL     1     -41.602  53.696 -53.256  1.00  0.00     0.149 C 
HETATM   21  C   UNL     1     -41.453  54.353 -51.903  1.00  0.00    -0.007 A 
HETATM   22  C   UNL     1     -40.490  53.897 -51.002  1.00  0.00     0.083 A 
HETATM   23  C   UNL     1     -42.266  55.441 -51.540  1.00  0.00     0.011 A 
HETATM   24  C   UNL     1     -40.326  54.524 -49.764  1.00  0.00     0.038 A 
HETATM   25  O   UNL     1     -39.656  52.836 -51.257  1.00  0.00    -0.310 OA
HETATM   26  C   UNL     1     -41.134  55.605 -49.413  1.00  0.00     0.003 A 
HETATM   27  C   UNL     1     -42.106  56.062 -50.301  1.00  0.00     0.001 A 
HETATM   28  C   UNL     1     -39.916  52.051 -52.353  1.00  0.00     0.083 A 
HETATM   29  C   UNL     1     -40.840  52.391 -53.345  1.00  0.00    -0.007 A 
HETATM   30  C   UNL     1     -39.187  50.862 -52.442  1.00  0.00     0.038 A 
HETATM   31  C   UNL     1     -41.034  51.515 -54.425  1.00  0.00     0.011 A 
HETATM   32  C   UNL     1     -40.309  50.325 -54.509  1.00  0.00     0.001 A 
HETATM   33  C   UNL     1     -39.385  50.000 -53.519  1.00  0.00     0.003 A 
ENDBRANCH   2  20
TORSDOF 5
ENDMDL
MODEL 3
REMARK VINA RESULT:      -9.4      2.044      3.605
REMARK  5 active torsions:
REMARK  status: ('A' for Active; 'I' for Inactive)
REMARK    1  A    between atoms: C_4  and  C_5 
REMARK    2  A    between atoms: N_7  and  C_8 
REMARK    3  A    between atoms: C_8  and  C_9 
REMARK    4  A    between atoms: C_9  and  N_10 
REMARK       I    between atoms: N_10  and  C_11 
REMARK    5  A    between atoms: C_11  and  C_12 
ROOT
HETATM    1  N   UNL     1     -42.023  55.469 -56.602  1.00  0.00    -0.359 N 
HETATM    2  C   UNL     1     -42.136  55.116 -55.273  1.00  0.00     0.230 C 
HETATM    3  O   UNL     1     -43.190  54.704 -54.786  1.00  0.00    -0.272 OA
HETATM    4  H   UNL     1     -41.178  55.945 -56.895  1.00  0.00     0.162 HD
ENDROOT
BRANCH   1   5
HETATM    5  C   UNL     1     -43.172  55.539 -57.492  1.00  0.00     0.144 C 
BRANCH   5   6
HETATM    6  C   UNL     1     -43.252  56.806 -58.348  1.00  0.00     0.174 C 
BRANCH   6   7
HETATM    7  N   UNL     1     -44.079  57.828 -57.711  1.00  0.00    -0.233 N 
HETATM    8  N   UNL     1     -44.123  57.797 -56.334  1.00  0.00    -0.169 NA
HETATM    9  C   UNL     1     -44.803  58.717 -55.720  1.00  0.00     0.087 A 
HETATM   10  C   UNL     1     -45.568  59.774 -56.417  1.00  0.00     0.040 A 
HETATM   11  C   UNL     1     -45.472  59.814 -57.746  1.00  0.00     0.078 A 
HETATM   12  C   UNL     1     -44.649  58.833 -58.479  1.00  0.00     0.263 A 
HETATM   13  O   UNL     1     -44.527  58.949 -59.696  1.00  0.00    -0.267 OA
BRANCH   9  14
HETATM   14  C   UNL     1     -44.848  58.711 -54.228  1.00  0.00    -0.006 A 
HETATM   15  C   UNL     1     -44.994  59.889 -53.484  1.00  0.00     0.014 A 
HETATM   16  C   UNL     1     -45.019  59.838 -52.087  1.00  0.00     0.001 A 
HETATM   17  C   UNL     1     -44.890  58.617 -51.429  1.00  0.00     0.000 A 
HETATM   18  C   UNL     1     -44.728  57.442 -52.162  1.00  0.00     0.001 A 
HETATM   19  C   UNL     1     -44.702  57.489 -53.557  1.00  0.00     0.014 A 
ENDBRANCH   9  14
ENDBRANCH   6   7
ENDBRANCH   5   6
ENDBRANCH   1   5
BRANCH   2  20
HETATM   20  C   UNL     1     -40.885  55.327 -54.400  1.00  0.00     0.149 C 
HETATM   21  C   UNL     1     -40.510  54.040 -53.702  1.00  0.00    -0.007 A 
HETATM   22  C   UNL     1     -40.575  53.949 -52.311  1.00  0.00     0.083 A 
HETATM   23  C   UNL     1     -40.110  52.913 -54.441  1.00  0.00     0.011 A 
HETATM   24  C   UNL     1     -40.263  52.751 -51.665  1.00  0.00     0.038 A 
HETATM   25  O   UNL     1     -40.943  54.994 -51.500  1.00  0.00    -0.310 OA
HETATM   26  C   UNL     1     -39.871  51.636 -52.406  1.00  0.00     0.003 A 
HETATM   27  C   UNL     1     -39.793  51.718 -53.795  1.00  0.00     0.001 A 
HETATM   28  C   UNL     1     -41.047  56.246 -52.056  1.00  0.00     0.083 A 
HETATM   29  C   UNL     1     -41.017  56.484 -53.433  1.00  0.00    -0.007 A 
HETATM   30  C   UNL     1     -41.197  57.305 -51.158  1.00  0.00     0.038 A 
HETATM   31  C   UNL     1     -41.128  57.805 -53.899  1.00  0.00     0.011 A 
HETATM   32  C   UNL     1     -41.272  58.861 -52.999  1.00  0.00     0.001 A 
HETATM   33  C   UNL     1     -41.308  58.612 -51.629  1.00  0.00     0.003 A 
ENDBRANCH   2  20
TORSDOF 5
ENDMDL
MODEL 4
REMARK VINA RESULT:      -8.9      2.941      8.236
REMARK  5 active torsions:
REMARK  status: ('A' for Active; 'I' for Inactive)
REMARK    1  A    between atoms: C_4  and  C_5 
REMARK    2  A    between atoms: N_7  and  C_8 
REMARK    3  A    between atoms: C_8  and  C_9 
REMARK    4  A    between atoms: C_9  and  N_10 
REMARK       I    between atoms: N_10  and  C_11 
REMARK    5  A    between atoms: C_11  and  C_12 
ROOT
HETATM    1  N   UNL     1     -44.005  56.394 -55.665  1.00  0.00    -0.359 N 
HETATM    2  C   UNL     1     -42.920  56.189 -56.492  1.00  0.00     0.230 C 
HETATM    3  O   UNL     1     -41.973  55.470 -56.172  1.00  0.00    -0.272 OA
HETATM    4  H   UNL     1     -44.667  57.117 -55.923  1.00  0.00     0.162 HD
ENDROOT
BRANCH   1   5
HETATM    5  C   UNL     1     -44.044  55.912 -54.294  1.00  0.00     0.144 C 
BRANCH   5   6
HETATM    6  C   UNL     1     -43.500  56.888 -53.247  1.00  0.00     0.174 C 
BRANCH   6   7
HETATM    7  N   UNL     1     -42.542  56.237 -52.357  1.00  0.00    -0.233 N 
HETATM    8  N   UNL     1     -42.059  55.016 -52.779  1.00  0.00    -0.169 NA
HETATM    9  C   UNL     1     -41.166  54.423 -52.047  1.00  0.00     0.087 A 
HETATM   10  C   UNL     1     -40.666  54.962 -50.764  1.00  0.00     0.040 A 
HETATM   11  C   UNL     1     -41.111  56.165 -50.399  1.00  0.00     0.078 A 
HETATM   12  C   UNL     1     -42.070  56.909 -51.239  1.00  0.00     0.263 A 
HETATM   13  O   UNL     1     -42.397  58.045 -50.905  1.00  0.00    -0.267 OA
BRANCH   9  14
HETATM   14  C   UNL     1     -40.618  53.109 -52.497  1.00  0.00    -0.006 A 
HETATM   15  C   UNL     1     -40.748  52.662 -53.819  1.00  0.00     0.014 A 
HETATM   16  C   UNL     1     -40.230  51.420 -54.194  1.00  0.00     0.001 A 
HETATM   17  C   UNL     1     -39.590  50.615 -53.252  1.00  0.00     0.000 A 
HETATM   18  C   UNL     1     -39.472  51.046 -51.931  1.00  0.00     0.001 A 
HETATM   19  C   UNL     1     -39.988  52.286 -51.553  1.00  0.00     0.014 A 
ENDBRANCH   9  14
ENDBRANCH   6   7
ENDBRANCH   5   6
ENDBRANCH   1   5
BRANCH   2  20
HETATM   20  C   UNL     1     -42.916  56.967 -57.822  1.00  0.00     0.149 C 
HETATM   21  C   UNL     1     -43.053  58.449 -57.561  1.00  0.00    -0.007 A 
HETATM   22  C   UNL     1     -44.185  59.139 -57.999  1.00  0.00     0.083 A 
HETATM   23  C   UNL     1     -42.057  59.151 -56.860  1.00  0.00     0.011 A 
HETATM   24  C   UNL     1     -44.332  60.501 -57.730  1.00  0.00     0.038 A 
HETATM   25  O   UNL     1     -45.207  58.548 -58.701  1.00  0.00    -0.310 OA
HETATM   26  C   UNL     1     -43.340  61.189 -57.030  1.00  0.00     0.003 A 
HETATM   27  C   UNL     1     -42.201  60.513 -56.597  1.00  0.00     0.001 A 
HETATM   28  C   UNL     1     -45.018  57.275 -59.181  1.00  0.00     0.083 A 
HETATM   29  C   UNL     1     -43.942  56.463 -58.814  1.00  0.00    -0.007 A 
HETATM   30  C   UNL     1     -45.985  56.808 -60.074  1.00  0.00     0.038 A 
HETATM   31  C   UNL     1     -43.839  55.176 -59.367  1.00  0.00     0.011 A 
HETATM   32  C   UNL     1     -44.803  54.713 -60.263  1.00  0.00     0.001 A 
HETATM   33  C   UNL     1     -45.876  55.528 -60.616  1.00  0.00     0.003 A 
ENDBRANCH   2  20
TORSDOF 5
ENDMDL
MODEL 5
REMARK VINA RESULT:      -8.6      2.707      7.762
REMARK  5 active torsions:
REMARK  status: ('A' for Active; 'I' for Inactive)
REMARK    1  A    between atoms: C_4  and  C_5 
REMARK    2  A    between atoms: N_7  and  C_8 
REMARK    3  A    between atoms: C_8  and  C_9 
REMARK    4  A    between atoms: C_9  and  N_10 
REMARK       I    between atoms: N_10  and  C_11 
REMARK    5  A    between atoms: C_11  and  C_12 
ROOT
HETATM    1  N   UNL     1     -43.278  57.917 -51.037  1.00  0.00    -0.359 N 
HETATM    2  C   UNL     1     -44.639  58.104 -51.167  1.00  0.00     0.230 C 
HETATM    3  O   UNL     1     -45.455  57.220 -50.905  1.00  0.00    -0.272 OA
HETATM    4  H   UNL     1     -42.664  58.628 -51.417  1.00  0.00     0.162 HD
ENDROOT
BRANCH   1   5
HETATM    5  C   UNL     1     -42.693  56.619 -50.740  1.00  0.00     0.144 C 
BRANCH   5   6
HETATM    6  C   UNL     1     -41.200  56.493 -51.057  1.00  0.00     0.174 C 
BRANCH   6   7
HETATM    7  N   UNL     1     -40.979  55.763 -52.303  1.00  0.00    -0.233 N 
HETATM    8  N   UNL     1     -40.675  54.424 -52.173  1.00  0.00    -0.169 NA
HETATM    9  C   UNL     1     -40.521  53.722 -53.254  1.00  0.00     0.087 A 
HETATM   10  C   UNL     1     -40.612  54.285 -54.619  1.00  0.00     0.040 A 
HETATM   11  C   UNL     1     -40.954  55.570 -54.722  1.00  0.00     0.078 A 
HETATM   12  C   UNL     1     -41.213  56.387 -53.520  1.00  0.00     0.263 A 
HETATM   13  O   UNL     1     -41.598  57.545 -53.659  1.00  0.00    -0.267 OA
BRANCH   9  14
HETATM   14  C   UNL     1     -40.209  52.267 -53.134  1.00  0.00    -0.006 A 
HETATM   15  C   UNL     1     -39.832  51.685 -51.916  1.00  0.00     0.014 A 
HETATM   16  C   UNL     1     -39.538  50.321 -51.852  1.00  0.00     0.001 A 
HETATM   17  C   UNL     1     -39.609  49.534 -53.000  1.00  0.00     0.000 A 
HETATM   18  C   UNL     1     -39.967  50.110 -54.219  1.00  0.00     0.001 A 
HETATM   19  C   UNL     1     -40.262  51.472 -54.287  1.00  0.00     0.014 A 
ENDBRANCH   9  14
ENDBRANCH   6   7
ENDBRANCH   5   6
ENDBRANCH   1   5
BRANCH   2  20
HETATM   20  C   UNL     1     -45.092  59.467 -51.726  1.00  0.00     0.149 C 
HETATM   21  C   UNL     1     -44.580  59.649 -53.136  1.00  0.00    -0.007 A 
HETATM   22  C   UNL     1     -43.657  60.656 -53.425  1.00  0.00     0.083 A 
HETATM   23  C   UNL     1     -45.009  58.801 -54.171  1.00  0.00     0.011 A 
HETATM   24  C   UNL     1     -43.156  60.806 -54.719  1.00  0.00     0.038 A 
HETATM   25  O   UNL     1     -43.186  61.542 -52.488  1.00  0.00    -0.310 OA
HETATM   26  C   UNL     1     -43.584  59.957 -55.740  1.00  0.00     0.003 A 
HETATM   27  C   UNL     1     -44.513  58.955 -55.466  1.00  0.00     0.001 A 
HETATM   28  C   UNL     1     -43.801  61.584 -51.261  1.00  0.00     0.083 A 
HETATM   29  C   UNL     1     -44.731  60.632 -50.830  1.00  0.00    -0.007 A 
HETATM   30  C   UNL     1     -43.441  62.647 -50.430  1.00  0.00     0.038 A 
HETATM   31  C   UNL     1     -45.306  60.769 -49.557  1.00  0.00     0.011 A 
HETATM   32  C   UNL     1     -44.948  61.835 -48.730  1.00  0.00     0.001 A 
HETATM   33  C   UNL     1     -44.015  62.773 -49.166  1.00  0.00     0.003 A 
ENDBRANCH   2  20
TORSDOF 5
ENDMDL
MODEL 6
REMARK VINA RESULT:      -8.5      1.615      2.797
REMARK  5 active torsions:
REMARK  status: ('A' for Active; 'I' for Inactive)
REMARK    1  A    between atoms: C_4  and  C_5 
REMARK    2  A    between atoms: N_7  and  C_8 
REMARK    3  A    between atoms: C_8  and  C_9 
REMARK    4  A    between atoms: C_9  and  N_10 
REMARK       I    between atoms: N_10  and  C_11 
REMARK    5  A    between atoms: C_11  and  C_12 
ROOT
HETATM    1  N   UNL     1     -41.868  53.747 -54.557  1.00  0.00    -0.359 N 
HETATM    2  C   UNL     1     -41.926  53.605 -53.186  1.00  0.00     0.230 C 
HETATM    3  O   UNL     1     -42.979  53.705 -52.555  1.00  0.00    -0.272 OA
HETATM    4  H   UNL     1     -40.953  53.810 -54.988  1.00  0.00     0.162 HD
ENDROOT
BRANCH   1   5
HETATM    5  C   UNL     1     -43.009  54.184 -55.346  1.00  0.00     0.144 C 
BRANCH   5   6
HETATM    6  C   UNL     1     -42.888  55.591 -55.937  1.00  0.00     0.174 C 
BRANCH   6   7
HETATM    7  N   UNL     1     -42.501  56.566 -54.919  1.00  0.00    -0.233 N 
HETATM    8  N   UNL     1     -43.534  57.237 -54.301  1.00  0.00    -0.169 NA
HETATM    9  C   UNL     1     -43.242  58.075 -53.354  1.00  0.00     0.087 A 
HETATM   10  C   UNL     1     -41.860  58.382 -52.927  1.00  0.00     0.040 A 
HETATM   11  C   UNL     1     -40.880  57.687 -53.504  1.00  0.00     0.078 A 
HETATM   12  C   UNL     1     -41.172  56.670 -54.533  1.00  0.00     0.263 A 
HETATM   13  O   UNL     1     -40.248  55.999 -54.987  1.00  0.00    -0.267 OA
BRANCH   9  14
HETATM   14  C   UNL     1     -44.349  58.798 -52.660  1.00  0.00    -0.006 A 
HETATM   15  C   UNL     1     -44.786  58.435 -51.379  1.00  0.00     0.014 A 
HETATM   16  C   UNL     1     -45.834  59.132 -50.771  1.00  0.00     0.001 A 
HETATM   17  C   UNL     1     -46.456  60.184 -51.440  1.00  0.00     0.000 A 
HETATM   18  C   UNL     1     -46.038  60.540 -52.723  1.00  0.00     0.001 A 
HETATM   19  C   UNL     1     -44.992  59.846 -53.333  1.00  0.00     0.014 A 
ENDBRANCH   9  14
ENDBRANCH   6   7
ENDBRANCH   5   6
ENDBRANCH   1   5
BRANCH   2  20
HETATM   20  C   UNL     1     -40.583  53.382 -52.464  1.00  0.00     0.149 C 
HETATM   21  C   UNL     1     -40.128  51.951 -52.639  1.00  0.00    -0.007 A 
HETATM   22  C   UNL     1     -40.033  51.103 -51.534  1.00  0.00     0.083 A 
HETATM   23  C   UNL     1     -39.812  51.449 -53.913  1.00  0.00     0.011 A 
HETATM   24  C   UNL     1     -39.646  49.771 -51.696  1.00  0.00     0.038 A 
HETATM   25  O   UNL     1     -40.308  51.500 -50.249  1.00  0.00    -0.310 OA
HETATM   26  C   UNL     1     -39.338  49.279 -52.965  1.00  0.00     0.003 A 
HETATM   27  C   UNL     1     -39.419  50.120 -54.073  1.00  0.00     0.001 A 
HETATM   28  C   UNL     1     -40.478  52.841 -50.002  1.00  0.00     0.083 A 
HETATM   29  C   UNL     1     -40.608  53.801 -51.010  1.00  0.00    -0.007 A 
HETATM   30  C   UNL     1     -40.528  53.215 -48.657  1.00  0.00     0.038 A 
HETATM   31  C   UNL     1     -40.774  55.148 -50.650  1.00  0.00     0.011 A 
HETATM   32  C   UNL     1     -40.818  55.520 -49.306  1.00  0.00     0.001 A 
HETATM   33  C   UNL     1     -40.696  54.554 -48.310  1.00  0.00     0.003 A 
ENDBRANCH   2  20
TORSDOF 5
ENDMDL
MODEL 7
REMARK VINA RESULT:      -8.5      2.703      5.159
REMARK  5 active torsions:
REMARK  status: ('A' for Active; 'I' for Inactive)
REMARK    1  A    between atoms: C_4  and  C_5 
REMARK    2  A    between atoms: N_7  and  C_8 
REMARK    3  A    between atoms: C_8  and  C_9 
REMARK    4  A    between atoms: C_9  and  N_10 
REMARK       I    between atoms: N_10  and  C_11 
REMARK    5  A    between atoms: C_11  and  C_12 
ROOT
HETATM    1  N   UNL     1     -41.764  54.474 -54.430  1.00  0.00    -0.359 N 
HETATM    2  C   UNL     1     -41.860  53.883 -53.188  1.00  0.00     0.230 C 
HETATM    3  O   UNL     1     -42.943  53.657 -52.646  1.00  0.00    -0.272 OA
HETATM    4  H   UNL     1     -40.847  54.772 -54.743  1.00  0.00     0.162 HD
ENDROOT
BRANCH   1   5
HETATM    5  C   UNL     1     -42.917  55.022 -55.127  1.00  0.00     0.144 C 
BRANCH   5   6
HETATM    6  C   UNL     1     -43.207  56.498 -54.840  1.00  0.00     0.174 C 
BRANCH   6   7
HETATM    7  N   UNL     1     -43.215  57.289 -56.069  1.00  0.00    -0.233 N 
HETATM    8  N   UNL     1     -44.079  56.864 -57.055  1.00  0.00    -0.169 NA
HETATM    9  C   UNL     1     -44.159  57.564 -58.144  1.00  0.00     0.087 A 
HETATM   10  C   UNL     1     -43.345  58.771 -58.407  1.00  0.00     0.040 A 
HETATM   11  C   UNL     1     -42.552  59.191 -57.421  1.00  0.00     0.078 A 
HETATM   12  C   UNL     1     -42.486  58.467 -56.136  1.00  0.00     0.263 A 
HETATM   13  O   UNL     1     -41.799  58.929 -55.228  1.00  0.00    -0.267 OA
BRANCH   9  14
HETATM   14  C   UNL     1     -45.103  57.130 -59.216  1.00  0.00    -0.006 A 
HETATM   15  C   UNL     1     -46.300  57.812 -59.474  1.00  0.00     0.014 A 
HETATM   16  C   UNL     1     -47.161  57.364 -60.480  1.00  0.00     0.001 A 
HETATM   17  C   UNL     1     -46.838  56.231 -61.225  1.00  0.00     0.000 A 
HETATM   18  C   UNL     1     -45.656  55.537 -60.962  1.00  0.00     0.001 A 
HETATM   19  C   UNL     1     -44.795  55.982 -59.959  1.00  0.00     0.014 A 
ENDBRANCH   9  14
ENDBRANCH   6   7
ENDBRANCH   5   6
ENDBRANCH   1   5
BRANCH   2  20
HETATM   20  C   UNL     1     -40.532  53.578 -52.470  1.00  0.00     0.149 C 
HETATM   21  C   UNL     1     -40.111  52.151 -52.733  1.00  0.00    -0.007 A 
HETATM   22  C   UNL     1     -40.050  51.231 -51.685  1.00  0.00     0.083 A 
HETATM   23  C   UNL     1     -39.794  51.723 -54.034  1.00  0.00     0.011 A 
HETATM   24  C   UNL     1     -39.694  49.903 -51.929  1.00  0.00     0.038 A 
HETATM   25  O   UNL     1     -40.328  51.552 -50.379  1.00  0.00    -0.310 OA
HETATM   26  C   UNL     1     -39.386  49.486 -53.224  1.00  0.00     0.003 A 
HETATM   27  C   UNL     1     -39.434  50.398 -54.277  1.00  0.00     0.001 A 
HETATM   28  C   UNL     1     -40.466  52.877 -50.047  1.00  0.00     0.083 A 
HETATM   29  C   UNL     1     -40.560  53.903 -50.992  1.00  0.00    -0.007 A 
HETATM   30  C   UNL     1     -40.521  53.165 -48.682  1.00  0.00     0.038 A 
HETATM   31  C   UNL     1     -40.696  55.229 -50.548  1.00  0.00     0.011 A 
HETATM   32  C   UNL     1     -40.745  55.515 -49.183  1.00  0.00     0.001 A 
HETATM   33  C   UNL     1     -40.658  54.484 -48.250  1.00  0.00     0.003 A 
ENDBRANCH   2  20
TORSDOF 5
ENDMDL
MODEL 8
REMARK VINA RESULT:      -8.3     14.867     17.784
REMARK  5 active torsions:
REMARK  status: ('A' for Active; 'I' for Inactive)
REMARK    1  A    between atoms: C_4  and  C_5 
REMARK    2  A    between atoms: N_7  and  C_8 
REMARK    3  A    between atoms: C_8  and  C_9 
REMARK    4  A    between atoms: C_9  and  N_10 
REMARK       I    between atoms: N_10  and  C_11 
REMARK    5  A    between atoms: C_11  and  C_12 
ROOT
HETATM    1  N   UNL     1     -35.870  39.705 -52.576  1.00  0.00    -0.359 N 
HETATM    2  C   UNL     1     -35.527  38.399 -52.856  1.00  0.00     0.230 C 
HETATM    3  O   UNL     1     -36.362  37.496 -52.921  1.00  0.00    -0.272 OA
HETATM    4  H   UNL     1     -35.121  40.361 -52.384  1.00  0.00     0.162 HD
ENDROOT
BRANCH   1   5
HETATM    5  C   UNL     1     -37.214  40.091 -52.177  1.00  0.00     0.144 C 
BRANCH   5   6
HETATM    6  C   UNL     1     -37.910  41.080 -53.117  1.00  0.00     0.174 C 
BRANCH   6   7
HETATM    7  N   UNL     1     -37.096  41.356 -54.299  1.00  0.00    -0.233 N 
HETATM    8  N   UNL     1     -37.513  40.764 -55.472  1.00  0.00    -0.169 NA
HETATM    9  C   UNL     1     -36.852  41.022 -56.558  1.00  0.00     0.087 A 
HETATM   10  C   UNL     1     -35.650  41.883 -56.603  1.00  0.00     0.040 A 
HETATM   11  C   UNL     1     -35.292  42.482 -55.467  1.00  0.00     0.078 A 
HETATM   12  C   UNL     1     -36.061  42.277 -54.224  1.00  0.00     0.263 A 
HETATM   13  O   UNL     1     -35.743  42.905 -53.217  1.00  0.00    -0.267 OA
BRANCH   9  14
HETATM   14  C   UNL     1     -37.300  40.406 -57.842  1.00  0.00    -0.006 A 
HETATM   15  C   UNL     1     -38.031  39.211 -57.878  1.00  0.00     0.014 A 
HETATM   16  C   UNL     1     -38.419  38.662 -59.103  1.00  0.00     0.001 A 
HETATM   17  C   UNL     1     -38.074  39.296 -60.295  1.00  0.00     0.000 A 
HETATM   18  C   UNL     1     -37.332  40.477 -60.268  1.00  0.00     0.001 A 
HETATM   19  C   UNL     1     -36.942  41.028 -59.047  1.00  0.00     0.014 A 
ENDBRANCH   9  14
ENDBRANCH   6   7
ENDBRANCH   5   6
ENDBRANCH   1   5
BRANCH   2  20
HETATM   20  C   UNL     1     -34.023  38.105 -53.018  1.00  0.00     0.149 C 
HETATM   21  C   UNL     1     -33.262  38.591 -51.806  1.00  0.00    -0.007 A 
HETATM   22  C   UNL     1     -32.332  39.625 -51.927  1.00  0.00     0.083 A 
HETATM   23  C   UNL     1     -33.491  38.024 -50.540  1.00  0.00     0.011 A 
HETATM   24  C   UNL     1     -31.652  40.100 -50.803  1.00  0.00     0.038 A 
HETATM   25  O   UNL     1     -32.030  40.235 -53.119  1.00  0.00    -0.310 OA
HETATM   26  C   UNL     1     -31.888  39.535 -49.550  1.00  0.00     0.003 A 
HETATM   27  C   UNL     1     -32.807  38.495 -49.419  1.00  0.00     0.001 A 
HETATM   28  C   UNL     1     -32.498  39.669 -54.280  1.00  0.00     0.083 A 
HETATM   29  C   UNL     1     -33.444  38.641 -54.310  1.00  0.00    -0.007 A 
HETATM   30  C   UNL     1     -31.979  40.189 -55.468  1.00  0.00     0.038 A 
HETATM   31  C   UNL     1     -33.854  38.128 -55.551  1.00  0.00     0.011 A 
HETATM   32  C   UNL     1     -33.330  38.645 -56.737  1.00  0.00     0.001 A 
HETATM   33  C   UNL     1     -32.394  39.676 -56.696  1.00  0.00     0.003 A 
ENDBRANCH   2  20
TORSDOF 5
ENDMDL
MODEL 9
REMARK VINA RESULT:      -8.1     15.310     18.188
REMARK  5 active torsions:
REMARK  status: ('A' for Active; 'I' for Inactive)
REMARK    1  A    between atoms: C_4  and  C_5 
REMARK    2  A    between atoms: N_7  and  C_8 
REMARK    3  A    between atoms: C_8  and  C_9 
REMARK    4  A    between atoms: C_9  and  N_10 
REMARK       I    between atoms: N_10  and  C_11 
REMARK    5  A    between atoms: C_11  and  C_12 
ROOT
HETATM    1  N   UNL     1     -35.352  38.378 -57.140  1.00  0.00    -0.359 N 
HETATM    2  C   UNL     1     -36.483  38.283 -56.356  1.00  0.00     0.230 C 
HETATM    3  O   UNL     1     -36.876  37.212 -55.890  1.00  0.00    -0.272 OA
HETATM    4  H   UNL     1     -35.178  39.256 -57.616  1.00  0.00     0.162 HD
ENDROOT
BRANCH   1   5
HETATM    5  C   UNL     1     -34.627  37.209 -57.611  1.00  0.00     0.144 C 
BRANCH   5   6
HETATM    6  C   UNL     1     -33.539  36.695 -56.663  1.00  0.00     0.174 C 
BRANCH   6   7
HETATM    7  N   UNL     1     -32.870  37.796 -55.973  1.00  0.00    -0.233 N 
HETATM    8  N   UNL     1     -33.263  38.020 -54.671  1.00  0.00    -0.169 NA
HETATM    9  C   UNL     1     -32.661  38.953 -54.000  1.00  0.00     0.087 A 
HETATM   10  C   UNL     1     -31.603  39.819 -54.566  1.00  0.00     0.040 A 
HETATM   11  C   UNL     1     -31.206  39.554 -55.810  1.00  0.00     0.078 A 
HETATM   12  C   UNL     1     -31.812  38.452 -56.584  1.00  0.00     0.263 A 
HETATM   13  O   UNL     1     -31.366  38.193 -57.699  1.00  0.00    -0.267 OA
BRANCH   9  14
HETATM   14  C   UNL     1     -33.059  39.199 -52.582  1.00  0.00    -0.006 A 
HETATM   15  C   UNL     1     -32.650  40.341 -51.881  1.00  0.00     0.014 A 
HETATM   16  C   UNL     1     -33.037  40.525 -50.551  1.00  0.00     0.001 A 
HETATM   17  C   UNL     1     -33.824  39.568 -49.913  1.00  0.00     0.000 A 
HETATM   18  C   UNL     1     -34.222  38.421 -50.599  1.00  0.00     0.001 A 
HETATM   19  C   UNL     1     -33.837  38.234 -51.927  1.00  0.00     0.014 A 
ENDBRANCH   9  14
ENDBRANCH   6   7
ENDBRANCH   5   6
ENDBRANCH   1   5
BRANCH   2  20
HETATM   20  C   UNL     1     -37.281  39.583 -56.145  1.00  0.00     0.149 C 
HETATM   21  C   UNL     1     -37.348  40.371 -57.433  1.00  0.00    -0.007 A 
HETATM   22  C   UNL     1     -36.733  41.620 -57.527  1.00  0.00     0.083 A 
HETATM   23  C   UNL     1     -38.011  39.852 -58.559  1.00  0.00     0.011 A 
HETATM   24  C   UNL     1     -36.762  42.336 -58.725  1.00  0.00     0.038 A 
HETATM   25  O   UNL     1     -36.071  42.218 -56.482  1.00  0.00    -0.310 OA
HETATM   26  C   UNL     1     -37.419  41.812 -59.839  1.00  0.00     0.003 A 
HETATM   27  C   UNL     1     -38.045  40.570 -59.754  1.00  0.00     0.001 A 
HETATM   28  C   UNL     1     -36.196  41.669 -55.229  1.00  0.00     0.083 A 
HETATM   29  C   UNL     1     -36.773  40.418 -54.990  1.00  0.00    -0.007 A 
HETATM   30  C   UNL     1     -35.699  42.433 -54.172  1.00  0.00     0.038 A 
HETATM   31  C   UNL     1     -36.857  39.948 -53.669  1.00  0.00     0.011 A 
HETATM   32  C   UNL     1     -36.364  40.716 -52.613  1.00  0.00     0.001 A 
HETATM   33  C   UNL     1     -35.784  41.958 -52.864  1.00  0.00     0.003 A 
ENDBRANCH   2  20
TORSDOF 5
ENDMDL
MODEL 10
REMARK VINA RESULT:      -8.0     15.971     18.787
REMARK  5 active torsions:
REMARK  status: ('A' for Active; 'I' for Inactive)
REMARK    1  A    between atoms: C_4  and  C_5 
REMARK    2  A    between atoms: N_7  and  C_8 
REMARK    3  A    between atoms: C_8  and  C_9 
REMARK    4  A    between atoms: C_9  and  N_10 
REMARK       I    between atoms: N_10  and  C_11 
REMARK    5  A    between atoms: C_11  and  C_12 
ROOT
HETATM    1  N   UNL     1     -33.813  39.160 -55.384  1.00  0.00    -0.359 N 
HETATM    2  C   UNL     1     -33.414  40.394 -54.913  1.00  0.00     0.230 C 
HETATM    3  O   UNL     1     -32.230  40.684 -54.740  1.00  0.00    -0.272 OA
HETATM    4  H   UNL     1     -34.801  38.937 -55.352  1.00  0.00     0.162 HD
ENDROOT
BRANCH   1   5
HETATM    5  C   UNL     1     -32.885  38.054 -55.560  1.00  0.00     0.144 C 
BRANCH   5   6
HETATM    6  C   UNL     1     -31.942  38.183 -56.760  1.00  0.00     0.174 C 
BRANCH   6   7
HETATM    7  N   UNL     1     -32.612  37.815 -58.006  1.00  0.00    -0.233 N 
HETATM    8  N   UNL     1     -33.950  38.135 -58.089  1.00  0.00    -0.169 NA
HETATM    9  C   UNL     1     -34.575  37.875 -59.197  1.00  0.00     0.087 A 
HETATM   10  C   UNL     1     -33.944  37.216 -60.361  1.00  0.00     0.040 A 
HETATM   11  C   UNL     1     -32.639  36.959 -60.276  1.00  0.00     0.078 A 
HETATM   12  C   UNL     1     -31.872  37.307 -59.063  1.00  0.00     0.263 A 
HETATM   13  O   UNL     1     -30.657  37.122 -59.054  1.00  0.00    -0.267 OA
BRANCH   9  14
HETATM   14  C   UNL     1     -36.020  38.231 -59.313  1.00  0.00    -0.006 A 
HETATM   15  C   UNL     1     -36.980  37.751 -58.412  1.00  0.00     0.014 A 
HETATM   16  C   UNL     1     -38.324  38.100 -58.565  1.00  0.00     0.001 A 
HETATM   17  C   UNL     1     -38.718  38.920 -59.621  1.00  0.00     0.000 A 
HETATM   18  C   UNL     1     -37.771  39.388 -60.533  1.00  0.00     0.001 A 
HETATM   19  C   UNL     1     -36.428  39.041 -60.383  1.00  0.00     0.014 A 
ENDBRANCH   9  14
ENDBRANCH   6   7
ENDBRANCH   5   6
ENDBRANCH   1   5
BRANCH   2  20
HETATM   20  C   UNL     1     -34.538  41.381 -54.543  1.00  0.00     0.149 C 
HETATM   21  C   UNL     1     -35.094  41.052 -53.177  1.00  0.00    -0.007 A 
HETATM   22  C   UNL     1     -36.415  40.625 -53.039  1.00  0.00     0.083 A 
HETATM   23  C   UNL     1     -34.287  41.153 -52.030  1.00  0.00     0.011 A 
HETATM   24  C   UNL     1     -36.923  40.288 -51.782  1.00  0.00     0.038 A 
HETATM   25  O   UNL     1     -37.286  40.505 -54.094  1.00  0.00    -0.310 OA
HETATM   26  C   UNL     1     -36.114  40.386 -50.650  1.00  0.00     0.003 A 
HETATM   27  C   UNL     1     -34.796  40.821 -50.774  1.00  0.00     0.001 A 
HETATM   28  C   UNL     1     -36.916  41.028 -55.309  1.00  0.00     0.083 A 
HETATM   29  C   UNL     1     -35.623  41.476 -55.595  1.00  0.00    -0.007 A 
HETATM   30  C   UNL     1     -37.916  41.085 -56.282  1.00  0.00     0.038 A 
HETATM   31  C   UNL     1     -35.348  41.997 -56.869  1.00  0.00     0.011 A 
HETATM   32  C   UNL     1     -36.350  42.059 -57.838  1.00  0.00     0.001 A 
HETATM   33  C   UNL     1     -37.633  41.602 -57.546  1.00  0.00     0.003 A 
ENDBRANCH   2  20
TORSDOF 5
ENDMDL
