MODEL 1
REMARK VINA RESULT:      -9.0      0.000      0.000
REMARK  7 active torsions:
REMARK  status: ('A' for Active; 'I' for Inactive)
REMARK    1  A    between atoms: C_2  and  O_3 
REMARK    2  A    between atoms: O_3  and  C_4 
REMARK    3  A    between atoms: C_5  and  N_6 
REMARK       I    between atoms: N_6  and  C_7 
REMARK    4  A    between atoms: C_7  and  C_8 
REMARK    5  A    between atoms: C_8  and  N_9 
REMARK    6  A    between atoms: C_20  and  C_21 
REMARK       I    between atoms: C_21  and  N_22 
REMARK    7  A    between atoms: N_22  and  C_23 
ROOT
HETATM    1  N   UNL     1     -43.442  56.517 -53.713  1.00  0.00    -0.304 N 
HETATM    2  C   UNL     1     -44.343  57.585 -53.781  1.00  0.00     0.259 C 
HETATM    3  O   UNL     1     -45.410  57.524 -54.392  1.00  0.00    -0.270 OA
HETATM    4  C   UNL     1     -43.833  58.868 -53.100  1.00  0.00     0.141 C 
HETATM    5  C   UNL     1     -42.739  59.516 -53.966  1.00  0.00     0.057 C 
HETATM    6  C   UNL     1     -44.990  59.863 -52.948  1.00  0.00     0.057 C 
HETATM    7  O   UNL     1     -43.322  58.648 -51.786  1.00  0.00    -0.329 OA
HETATM    8  C   UNL     1     -42.589  57.499 -51.643  1.00  0.00     0.097 A 
HETATM    9  C   UNL     1     -42.581  56.446 -52.575  1.00  0.00     0.072 A 
HETATM   10  C   UNL     1     -41.861  57.425 -50.453  1.00  0.00     0.040 A 
HETATM   11  C   UNL     1     -41.083  56.304 -50.177  1.00  0.00     0.020 A 
HETATM   12  C   UNL     1     -41.020  55.265 -51.107  1.00  0.00     0.034 A 
HETATM   13  C   UNL     1     -41.770  55.337 -52.296  1.00  0.00     0.049 A 
ENDROOT
BRANCH   1  14
HETATM   14  C   UNL     1     -43.740  55.359 -54.552  1.00  0.00     0.235 C 
BRANCH  14  15
HETATM   15  C   UNL     1     -42.969  55.383 -55.888  1.00  0.00     0.240 C 
HETATM   16  N   UNL     1     -43.573  56.213 -56.815  1.00  0.00    -0.323 N 
HETATM   17  H   UNL     1     -44.562  56.421 -56.718  1.00  0.00     0.169 HD
HETATM   18  O   UNL     1     -41.968  54.702 -56.096  1.00  0.00    -0.271 OA
BRANCH  16  19
HETATM   19  C   UNL     1     -42.970  56.804 -57.945  1.00  0.00     0.068 A 
HETATM   20  C   UNL     1     -43.187  56.193 -59.195  1.00  0.00     0.095 A 
HETATM   21  C   UNL     1     -42.730  56.811 -60.363  1.00  0.00     0.039 A 
HETATM   22  C   UNL     1     -42.030  58.016 -60.286  1.00  0.00     0.003 A 
HETATM   23  C   UNL     1     -41.785  58.603 -59.045  1.00  0.00     0.002 A 
HETATM   24  C   UNL     1     -42.254  58.000 -57.877  1.00  0.00     0.032 A 
BRANCH  20  25
HETATM   25  O   UNL     1     -43.880  55.003 -59.179  1.00  0.00    -0.349 OA
BRANCH  25  26
HETATM   26  C   UNL     1     -44.735  54.783 -60.304  1.00  0.00     0.171 C 
HETATM   27  C   UNL     1     -45.961  55.664 -60.145  1.00  0.00     0.034 C 
ENDBRANCH  25  26
ENDBRANCH  20  25
ENDBRANCH  16  19
ENDBRANCH  14  15
ENDBRANCH   1  14
BRANCH  12  28
HETATM   28  C   UNL     1     -40.219  54.034 -50.856  1.00  0.00     0.252 C 
HETATM   29  N   UNL     1     -40.372  53.004 -51.759  1.00  0.00    -0.352 N 
HETATM   30  H   UNL     1     -41.052  53.079 -52.503  1.00  0.00     0.163 HD
HETATM   31  O   UNL     1     -39.490  53.972 -49.872  1.00  0.00    -0.268 OA
BRANCH  29  32
HETATM   32  C   UNL     1     -39.615  51.777 -51.642  1.00  0.00     0.084 C 
HETATM   33  C   UNL     1     -40.174  50.845 -50.572  1.00  0.00     0.025 C 
HETATM   34  C   UNL     1     -39.537  49.511 -50.924  1.00  0.00     0.002 C 
HETATM   35  C   UNL     1     -39.549  49.472 -52.448  1.00  0.00     0.002 C 
HETATM   36  C   UNL     1     -39.658  50.926 -52.914  1.00  0.00     0.025 C 
ENDBRANCH  29  32
ENDBRANCH  12  28
TORSDOF 7
ENDMDL
MODEL 2
REMARK VINA RESULT:      -8.7      2.062      7.694
REMARK  7 active torsions:
REMARK  status: ('A' for Active; 'I' for Inactive)
REMARK    1  A    between atoms: C_2  and  O_3 
REMARK    2  A    between atoms: O_3  and  C_4 
REMARK    3  A    between atoms: C_5  and  N_6 
REMARK       I    between atoms: N_6  and  C_7 
REMARK    4  A    between atoms: C_7  and  C_8 
REMARK    5  A    between atoms: C_8  and  N_9 
REMARK    6  A    between atoms: C_20  and  C_21 
REMARK       I    between atoms: C_21  and  N_22 
REMARK    7  A    between atoms: N_22  and  C_23 
ROOT
HETATM    1  N   UNL     1     -42.742  57.573 -52.057  1.00  0.00    -0.304 N 
HETATM    2  C   UNL     1     -41.703  57.933 -51.192  1.00  0.00     0.259 C 
HETATM    3  O   UNL     1     -41.287  57.195 -50.299  1.00  0.00    -0.270 OA
HETATM    4  C   UNL     1     -41.193  59.371 -51.403  1.00  0.00     0.141 C 
HETATM    5  C   UNL     1     -42.224  60.372 -50.855  1.00  0.00     0.057 C 
HETATM    6  C   UNL     1     -39.873  59.564 -50.648  1.00  0.00     0.057 C 
HETATM    7  O   UNL     1     -40.920  59.680 -52.770  1.00  0.00    -0.329 OA
HETATM    8  C   UNL     1     -41.825  59.172 -53.663  1.00  0.00     0.097 A 
HETATM    9  C   UNL     1     -42.764  58.171 -53.354  1.00  0.00     0.072 A 
HETATM   10  C   UNL     1     -41.723  59.702 -54.952  1.00  0.00     0.040 A 
HETATM   11  C   UNL     1     -42.576  59.263 -55.959  1.00  0.00     0.020 A 
HETATM   12  C   UNL     1     -43.549  58.304 -55.668  1.00  0.00     0.034 A 
HETATM   13  C   UNL     1     -43.635  57.760 -54.373  1.00  0.00     0.049 A 
ENDROOT
BRANCH   1  14
HETATM   14  C   UNL     1     -43.446  56.331 -51.748  1.00  0.00     0.235 C 
BRANCH  14  15
HETATM   15  C   UNL     1     -42.912  55.131 -52.556  1.00  0.00     0.240 C 
HETATM   16  N   UNL     1     -41.548  54.966 -52.394  1.00  0.00    -0.323 N 
HETATM   17  H   UNL     1     -40.987  55.765 -52.111  1.00  0.00     0.169 HD
HETATM   18  O   UNL     1     -43.624  54.445 -53.287  1.00  0.00    -0.271 OA
BRANCH  16  19
HETATM   19  C   UNL     1     -40.803  53.790 -52.613  1.00  0.00     0.068 A 
HETATM   20  C   UNL     1     -40.482  53.002 -51.491  1.00  0.00     0.095 A 
HETATM   21  C   UNL     1     -39.867  51.758 -51.663  1.00  0.00     0.039 A 
HETATM   22  C   UNL     1     -39.541  51.314 -52.946  1.00  0.00     0.003 A 
HETATM   23  C   UNL     1     -39.828  52.109 -54.054  1.00  0.00     0.002 A 
HETATM   24  C   UNL     1     -40.458  53.344 -53.890  1.00  0.00     0.032 A 
BRANCH  20  25
HETATM   25  O   UNL     1     -40.832  53.520 -50.263  1.00  0.00    -0.349 OA
BRANCH  25  26
HETATM   26  C   UNL     1     -39.742  54.018 -49.482  1.00  0.00     0.171 C 
HETATM   27  C   UNL     1     -40.164  54.015 -48.024  1.00  0.00     0.034 C 
ENDBRANCH  25  26
ENDBRANCH  20  25
ENDBRANCH  16  19
ENDBRANCH  14  15
ENDBRANCH   1  14
BRANCH  12  28
HETATM   28  C   UNL     1     -44.476  57.784 -56.712  1.00  0.00     0.252 C 
HETATM   29  N   UNL     1     -43.929  56.943 -57.657  1.00  0.00    -0.352 N 
HETATM   30  H   UNL     1     -42.935  56.763 -57.661  1.00  0.00     0.163 HD
HETATM   31  O   UNL     1     -45.652  58.129 -56.708  1.00  0.00    -0.268 OA
BRANCH  29  32
HETATM   32  C   UNL     1     -44.740  56.343 -58.695  1.00  0.00     0.084 C 
HETATM   33  C   UNL     1     -44.710  57.139 -59.994  1.00  0.00     0.025 C 
HETATM   34  C   UNL     1     -45.230  56.139 -61.013  1.00  0.00     0.002 C 
HETATM   35  C   UNL     1     -44.612  54.810 -60.592  1.00  0.00     0.002 C 
HETATM   36  C   UNL     1     -44.241  54.957 -59.114  1.00  0.00     0.025 C 
ENDBRANCH  29  32
ENDBRANCH  12  28
TORSDOF 7
ENDMDL
MODEL 3
REMARK VINA RESULT:      -8.1      1.741      2.743
REMARK  7 active torsions:
REMARK  status: ('A' for Active; 'I' for Inactive)
REMARK    1  A    between atoms: C_2  and  O_3 
REMARK    2  A    between atoms: O_3  and  C_4 
REMARK    3  A    between atoms: C_5  and  N_6 
REMARK       I    between atoms: N_6  and  C_7 
REMARK    4  A    between atoms: C_7  and  C_8 
REMARK    5  A    between atoms: C_8  and  N_9 
REMARK    6  A    between atoms: C_20  and  C_21 
REMARK       I    between atoms: C_21  and  N_22 
REMARK    7  A    between atoms: N_22  and  C_23 
ROOT
HETATM    1  N   UNL     1     -42.324  59.024 -53.533  1.00  0.00    -0.304 N 
HETATM    2  C   UNL     1     -43.255  59.929 -53.011  1.00  0.00     0.259 C 
HETATM    3  O   UNL     1     -43.833  60.770 -53.700  1.00  0.00    -0.270 OA
HETATM    4  C   UNL     1     -43.418  59.836 -51.483  1.00  0.00     0.141 C 
HETATM    5  C   UNL     1     -42.186  60.444 -50.791  1.00  0.00     0.057 C 
HETATM    6  C   UNL     1     -44.660  60.623 -51.049  1.00  0.00     0.057 C 
HETATM    7  O   UNL     1     -43.608  58.501 -51.014  1.00  0.00    -0.329 OA
HETATM    8  C   UNL     1     -42.841  57.559 -51.646  1.00  0.00     0.097 A 
HETATM    9  C   UNL     1     -42.160  57.777 -52.858  1.00  0.00     0.072 A 
HETATM   10  C   UNL     1     -42.813  56.316 -51.009  1.00  0.00     0.040 A 
HETATM   11  C   UNL     1     -42.081  55.265 -51.554  1.00  0.00     0.020 A 
HETATM   12  C   UNL     1     -41.358  55.469 -52.731  1.00  0.00     0.034 A 
HETATM   13  C   UNL     1     -41.404  56.717 -53.379  1.00  0.00     0.049 A 
ENDROOT
BRANCH   1  14
HETATM   14  C   UNL     1     -41.928  59.229 -54.924  1.00  0.00     0.235 C 
BRANCH  14  15
HETATM   15  C   UNL     1     -42.946  58.641 -55.922  1.00  0.00     0.240 C 
HETATM   16  N   UNL     1     -42.371  58.385 -57.154  1.00  0.00    -0.323 N 
HETATM   17  H   UNL     1     -41.532  58.894 -57.420  1.00  0.00     0.169 HD
HETATM   18  O   UNL     1     -44.133  58.472 -55.648  1.00  0.00    -0.271 OA
BRANCH  16  19
HETATM   19  C   UNL     1     -42.840  57.496 -58.142  1.00  0.00     0.068 A 
HETATM   20  C   UNL     1     -42.932  56.132 -57.802  1.00  0.00     0.095 A 
HETATM   21  C   UNL     1     -43.518  55.228 -58.693  1.00  0.00     0.039 A 
HETATM   22  C   UNL     1     -43.982  55.673 -59.932  1.00  0.00     0.003 A 
HETATM   23  C   UNL     1     -43.861  57.016 -60.283  1.00  0.00     0.002 A 
HETATM   24  C   UNL     1     -43.291  57.927 -59.390  1.00  0.00     0.032 A 
BRANCH  20  25
HETATM   25  O   UNL     1     -42.443  55.779 -56.564  1.00  0.00    -0.349 OA
BRANCH  25  26
HETATM   26  C   UNL     1     -43.008  54.590 -56.005  1.00  0.00     0.171 C 
HETATM   27  C   UNL     1     -44.002  54.997 -54.933  1.00  0.00     0.034 C 
ENDBRANCH  25  26
ENDBRANCH  20  25
ENDBRANCH  16  19
ENDBRANCH  14  15
ENDBRANCH   1  14
BRANCH  12  28
HETATM   28  C   UNL     1     -40.572  54.375 -53.368  1.00  0.00     0.252 C 
HETATM   29  N   UNL     1     -40.509  53.182 -52.681  1.00  0.00    -0.352 N 
HETATM   30  H   UNL     1     -40.922  53.103 -51.762  1.00  0.00     0.163 HD
HETATM   31  O   UNL     1     -40.008  54.574 -54.438  1.00  0.00    -0.268 OA
BRANCH  29  32
HETATM   32  C   UNL     1     -39.811  52.035 -53.221  1.00  0.00     0.084 C 
HETATM   33  C   UNL     1     -39.670  50.905 -52.207  1.00  0.00     0.025 C 
HETATM   34  C   UNL     1     -39.334  49.709 -53.081  1.00  0.00     0.002 C 
HETATM   35  C   UNL     1     -40.199  49.891 -54.324  1.00  0.00     0.002 C 
HETATM   36  C   UNL     1     -40.557  51.377 -54.386  1.00  0.00     0.025 C 
ENDBRANCH  29  32
ENDBRANCH  12  28
TORSDOF 7
ENDMDL
MODEL 4
REMARK VINA RESULT:      -8.0      1.768      2.713
REMARK  7 active torsions:
REMARK  status: ('A' for Active; 'I' for Inactive)
REMARK    1  A    between atoms: C_2  and  O_3 
REMARK    2  A    between atoms: O_3  and  C_4 
REMARK    3  A    between atoms: C_5  and  N_6 
REMARK       I    between atoms: N_6  and  C_7 
REMARK    4  A    between atoms: C_7  and  C_8 
REMARK    5  A    between atoms: C_8  and  N_9 
REMARK    6  A    between atoms: C_20  and  C_21 
REMARK       I    between atoms: C_21  and  N_22 
REMARK    7  A    between atoms: N_22  and  C_23 
ROOT
HETATM    1  N   UNL     1     -42.468  58.183 -53.014  1.00  0.00    -0.304 N 
HETATM    2  C   UNL     1     -43.580  59.031 -53.053  1.00  0.00     0.259 C 
HETATM    3  O   UNL     1     -43.852  59.737 -54.024  1.00  0.00    -0.270 OA
HETATM    4  C   UNL     1     -44.378  59.065 -51.737  1.00  0.00     0.141 C 
HETATM    5  C   UNL     1     -43.597  59.862 -50.677  1.00  0.00     0.057 C 
HETATM    6  C   UNL     1     -45.727  59.755 -51.971  1.00  0.00     0.057 C 
HETATM    7  O   UNL     1     -44.677  57.768 -51.221  1.00  0.00    -0.329 OA
HETATM    8  C   UNL     1     -43.663  56.856 -51.345  1.00  0.00     0.097 A 
HETATM    9  C   UNL     1     -42.541  57.029 -52.176  1.00  0.00     0.072 A 
HETATM   10  C   UNL     1     -43.844  55.688 -50.599  1.00  0.00     0.040 A 
HETATM   11  C   UNL     1     -42.893  54.674 -50.645  1.00  0.00     0.020 A 
HETATM   12  C   UNL     1     -41.747  54.840 -51.425  1.00  0.00     0.034 A 
HETATM   13  C   UNL     1     -41.579  56.010 -52.189  1.00  0.00     0.049 A 
ENDROOT
BRANCH   1  14
HETATM   14  C   UNL     1     -41.525  58.295 -54.123  1.00  0.00     0.235 C 
BRANCH  14  15
HETATM   15  C   UNL     1     -41.849  57.323 -55.276  1.00  0.00     0.240 C 
HETATM   16  N   UNL     1     -42.574  57.939 -56.280  1.00  0.00    -0.323 N 
HETATM   17  H   UNL     1     -43.118  58.768 -56.057  1.00  0.00     0.169 HD
HETATM   18  O   UNL     1     -41.530  56.136 -55.262  1.00  0.00    -0.271 OA
BRANCH  16  19
HETATM   19  C   UNL     1     -42.685  57.525 -57.624  1.00  0.00     0.068 A 
HETATM   20  C   UNL     1     -42.022  58.293 -58.600  1.00  0.00     0.095 A 
HETATM   21  C   UNL     1     -41.984  57.853 -59.927  1.00  0.00     0.039 A 
HETATM   22  C   UNL     1     -42.631  56.670 -60.288  1.00  0.00     0.003 A 
HETATM   23  C   UNL     1     -43.317  55.927 -59.328  1.00  0.00     0.002 A 
HETATM   24  C   UNL     1     -43.344  56.353 -57.998  1.00  0.00     0.032 A 
BRANCH  20  25
HETATM   25  O   UNL     1     -41.418  59.449 -58.159  1.00  0.00    -0.349 OA
BRANCH  25  26
HETATM   26  C   UNL     1     -41.933  60.657 -58.725  1.00  0.00     0.171 C 
HETATM   27  C   UNL     1     -40.892  61.747 -58.543  1.00  0.00     0.034 C 
ENDBRANCH  25  26
ENDBRANCH  20  25
ENDBRANCH  16  19
ENDBRANCH  14  15
ENDBRANCH   1  14
BRANCH  12  28
HETATM   28  C   UNL     1     -40.706  53.779 -51.526  1.00  0.00     0.252 C 
HETATM   29  N   UNL     1     -40.822  52.901 -52.582  1.00  0.00    -0.352 N 
HETATM   30  H   UNL     1     -41.621  52.951 -53.198  1.00  0.00     0.163 HD
HETATM   31  O   UNL     1     -39.821  53.712 -50.681  1.00  0.00    -0.268 OA
BRANCH  29  32
HETATM   32  C   UNL     1     -39.847  51.855 -52.806  1.00  0.00     0.084 C 
HETATM   33  C   UNL     1     -40.043  50.662 -51.878  1.00  0.00     0.025 C 
HETATM   34  C   UNL     1     -39.243  49.568 -52.563  1.00  0.00     0.002 C 
HETATM   35  C   UNL     1     -39.500  49.783 -54.051  1.00  0.00     0.002 C 
HETATM   36  C   UNL     1     -39.946  51.239 -54.205  1.00  0.00     0.025 C 
ENDBRANCH  29  32
ENDBRANCH  12  28
TORSDOF 7
ENDMDL
MODEL 5
REMARK VINA RESULT:      -7.9      1.989      2.775
REMARK  7 active torsions:
REMARK  status: ('A' for Active; 'I' for Inactive)
REMARK    1  A    between atoms: C_2  and  O_3 
REMARK    2  A    between atoms: O_3  and  C_4 
REMARK    3  A    between atoms: C_5  and  N_6 
REMARK       I    between atoms: N_6  and  C_7 
REMARK    4  A    between atoms: C_7  and  C_8 
REMARK    5  A    between atoms: C_8  and  N_9 
REMARK    6  A    between atoms: C_20  and  C_21 
REMARK       I    between atoms: C_21  and  N_22 
REMARK    7  A    between atoms: N_22  and  C_23 
ROOT
HETATM    1  N   UNL     1     -43.571  58.763 -53.531  1.00  0.00    -0.304 N 
HETATM    2  C   UNL     1     -44.623  59.513 -52.992  1.00  0.00     0.259 C 
HETATM    3  O   UNL     1     -45.373  60.207 -53.678  1.00  0.00    -0.270 OA
HETATM    4  C   UNL     1     -44.695  59.460 -51.455  1.00  0.00     0.141 C 
HETATM    5  C   UNL     1     -43.560  60.305 -50.852  1.00  0.00     0.057 C 
HETATM    6  C   UNL     1     -46.036  60.034 -50.983  1.00  0.00     0.057 C 
HETATM    7  O   UNL     1     -44.623  58.134 -50.929  1.00  0.00    -0.329 OA
HETATM    8  C   UNL     1     -43.731  57.315 -51.568  1.00  0.00     0.097 A 
HETATM    9  C   UNL     1     -43.157  57.595 -52.822  1.00  0.00     0.072 A 
HETATM   10  C   UNL     1     -43.453  56.125 -50.890  1.00  0.00     0.040 A 
HETATM   11  C   UNL     1     -42.572  55.197 -51.436  1.00  0.00     0.020 A 
HETATM   12  C   UNL     1     -41.952  55.472 -52.657  1.00  0.00     0.034 A 
HETATM   13  C   UNL     1     -42.250  56.663 -53.345  1.00  0.00     0.049 A 
ENDROOT
BRANCH   1  14
HETATM   14  C   UNL     1     -43.283  58.972 -54.947  1.00  0.00     0.235 C 
BRANCH  14  15
HETATM   15  C   UNL     1     -44.178  58.116 -55.866  1.00  0.00     0.240 C 
HETATM   16  N   UNL     1     -43.722  58.115 -57.173  1.00  0.00    -0.323 N 
HETATM   17  H   UNL     1     -43.140  58.884 -57.491  1.00  0.00     0.169 HD
HETATM   18  O   UNL     1     -45.196  57.550 -55.473  1.00  0.00    -0.271 OA
BRANCH  16  19
HETATM   19  C   UNL     1     -44.004  57.158 -58.169  1.00  0.00     0.068 A 
HETATM   20  C   UNL     1     -44.951  57.500 -59.153  1.00  0.00     0.095 A 
HETATM   21  C   UNL     1     -45.168  56.647 -60.240  1.00  0.00     0.039 A 
HETATM   22  C   UNL     1     -44.469  55.443 -60.331  1.00  0.00     0.003 A 
HETATM   23  C   UNL     1     -43.556  55.088 -59.339  1.00  0.00     0.002 A 
HETATM   24  C   UNL     1     -43.323  55.943 -58.260  1.00  0.00     0.032 A 
BRANCH  20  25
HETATM   25  O   UNL     1     -45.601  58.702 -58.981  1.00  0.00    -0.349 OA
BRANCH  25  26
HETATM   26  C   UNL     1     -46.974  58.600 -58.595  1.00  0.00     0.171 C 
HETATM   27  C   UNL     1     -47.316  59.804 -57.737  1.00  0.00     0.034 C 
ENDBRANCH  25  26
ENDBRANCH  20  25
ENDBRANCH  16  19
ENDBRANCH  14  15
ENDBRANCH   1  14
BRANCH  12  28
HETATM   28  C   UNL     1     -41.016  54.506 -53.296  1.00  0.00     0.252 C 
HETATM   29  N   UNL     1     -40.926  53.259 -52.716  1.00  0.00    -0.352 N 
HETATM   30  H   UNL     1     -41.426  53.061 -51.860  1.00  0.00     0.163 HD
HETATM   31  O   UNL     1     -40.360  54.850 -54.273  1.00  0.00    -0.268 OA
BRANCH  29  32
HETATM   32  C   UNL     1     -40.082  52.224 -53.273  1.00  0.00     0.084 C 
HETATM   33  C   UNL     1     -39.744  51.136 -52.261  1.00  0.00     0.025 C 
HETATM   34  C   UNL     1     -39.260  49.996 -53.142  1.00  0.00     0.002 C 
HETATM   35  C   UNL     1     -40.179  50.039 -54.358  1.00  0.00     0.002 C 
HETATM   36  C   UNL     1     -40.756  51.455 -54.413  1.00  0.00     0.025 C 
ENDBRANCH  29  32
ENDBRANCH  12  28
TORSDOF 7
ENDMDL
MODEL 6
REMARK VINA RESULT:      -7.8      2.061      3.166
REMARK  7 active torsions:
REMARK  status: ('A' for Active; 'I' for Inactive)
REMARK    1  A    between atoms: C_2  and  O_3 
REMARK    2  A    between atoms: O_3  and  C_4 
REMARK    3  A    between atoms: C_5  and  N_6 
REMARK       I    between atoms: N_6  and  C_7 
REMARK    4  A    between atoms: C_7  and  C_8 
REMARK    5  A    between atoms: C_8  and  N_9 
REMARK    6  A    between atoms: C_20  and  C_21 
REMARK       I    between atoms: C_21  and  N_22 
REMARK    7  A    between atoms: N_22  and  C_23 
ROOT
HETATM    1  N   UNL     1     -44.523  58.803 -53.949  1.00  0.00    -0.304 N 
HETATM    2  C   UNL     1     -44.809  60.151 -53.705  1.00  0.00     0.259 C 
HETATM    3  O   UNL     1     -45.875  60.679 -54.020  1.00  0.00    -0.270 OA
HETATM    4  C   UNL     1     -43.631  60.931 -53.091  1.00  0.00     0.141 C 
HETATM    5  C   UNL     1     -42.556  61.178 -54.164  1.00  0.00     0.057 C 
HETATM    6  C   UNL     1     -44.127  62.287 -52.574  1.00  0.00     0.057 C 
HETATM    7  O   UNL     1     -43.036  60.272 -51.974  1.00  0.00    -0.329 OA
HETATM    8  C   UNL     1     -42.919  58.914 -52.108  1.00  0.00     0.097 A 
HETATM    9  C   UNL     1     -43.592  58.154 -53.082  1.00  0.00     0.072 A 
HETATM   10  C   UNL     1     -42.093  58.310 -51.156  1.00  0.00     0.040 A 
HETATM   11  C   UNL     1     -41.897  56.932 -51.172  1.00  0.00     0.020 A 
HETATM   12  C   UNL     1     -42.516  56.161 -52.157  1.00  0.00     0.034 A 
HETATM   13  C   UNL     1     -43.362  56.771 -53.102  1.00  0.00     0.049 A 
ENDROOT
BRANCH   1  14
HETATM   14  C   UNL     1     -45.490  58.070 -54.761  1.00  0.00     0.235 C 
BRANCH  14  15
HETATM   15  C   UNL     1     -45.203  58.187 -56.272  1.00  0.00     0.240 C 
HETATM   16  N   UNL     1     -43.887  57.882 -56.571  1.00  0.00    -0.323 N 
HETATM   17  H   UNL     1     -43.184  57.972 -55.844  1.00  0.00     0.169 HD
HETATM   18  O   UNL     1     -46.046  58.553 -57.089  1.00  0.00    -0.271 OA
BRANCH  16  19
HETATM   19  C   UNL     1     -43.372  57.477 -57.820  1.00  0.00     0.068 A 
HETATM   20  C   UNL     1     -42.626  58.419 -58.554  1.00  0.00     0.095 A 
HETATM   21  C   UNL     1     -41.977  58.032 -59.731  1.00  0.00     0.039 A 
HETATM   22  C   UNL     1     -42.097  56.721 -60.194  1.00  0.00     0.003 A 
HETATM   23  C   UNL     1     -42.864  55.797 -59.485  1.00  0.00     0.002 A 
HETATM   24  C   UNL     1     -43.500  56.173 -58.300  1.00  0.00     0.032 A 
BRANCH  20  25
HETATM   25  O   UNL     1     -42.566  59.691 -58.030  1.00  0.00    -0.349 OA
BRANCH  25  26
HETATM   26  C   UNL     1     -41.947  60.666 -58.873  1.00  0.00     0.171 C 
HETATM   27  C   UNL     1     -41.275  61.700 -57.987  1.00  0.00     0.034 C 
ENDBRANCH  25  26
ENDBRANCH  20  25
ENDBRANCH  16  19
ENDBRANCH  14  15
ENDBRANCH   1  14
BRANCH  12  28
HETATM   28  C   UNL     1     -42.357  54.680 -52.210  1.00  0.00     0.252 C 
HETATM   29  N   UNL     1     -41.233  54.204 -52.850  1.00  0.00    -0.352 N 
HETATM   30  H   UNL     1     -40.604  54.845 -53.314  1.00  0.00     0.163 HD
HETATM   31  O   UNL     1     -43.216  53.958 -51.717  1.00  0.00    -0.268 OA
BRANCH  29  32
HETATM   32  C   UNL     1     -40.951  52.787 -52.928  1.00  0.00     0.084 C 
HETATM   33  C   UNL     1     -40.281  52.395 -54.240  1.00  0.00     0.025 C 
HETATM   34  C   UNL     1     -39.700  51.027 -53.925  1.00  0.00     0.002 C 
HETATM   35  C   UNL     1     -39.191  51.150 -52.493  1.00  0.00     0.002 C 
HETATM   36  C   UNL     1     -39.952  52.320 -51.865  1.00  0.00     0.025 C 
ENDBRANCH  29  32
ENDBRANCH  12  28
TORSDOF 7
ENDMDL
MODEL 7
REMARK VINA RESULT:      -7.7      2.486      8.091
REMARK  7 active torsions:
REMARK  status: ('A' for Active; 'I' for Inactive)
REMARK    1  A    between atoms: C_2  and  O_3 
REMARK    2  A    between atoms: O_3  and  C_4 
REMARK    3  A    between atoms: C_5  and  N_6 
REMARK       I    between atoms: N_6  and  C_7 
REMARK    4  A    between atoms: C_7  and  C_8 
REMARK    5  A    between atoms: C_8  and  N_9 
REMARK    6  A    between atoms: C_20  and  C_21 
REMARK       I    between atoms: C_21  and  N_22 
REMARK    7  A    between atoms: N_22  and  C_23 
ROOT
HETATM    1  N   UNL     1     -41.848  56.501 -54.756  1.00  0.00    -0.304 N 
HETATM    2  C   UNL     1     -42.206  55.800 -55.913  1.00  0.00     0.259 C 
HETATM    3  O   UNL     1     -41.833  54.650 -56.143  1.00  0.00    -0.270 OA
HETATM    4  C   UNL     1     -43.033  56.634 -56.909  1.00  0.00     0.141 C 
HETATM    5  C   UNL     1     -42.124  57.659 -57.608  1.00  0.00     0.057 C 
HETATM    6  C   UNL     1     -43.639  55.711 -57.973  1.00  0.00     0.057 C 
HETATM    7  O   UNL     1     -44.131  57.317 -56.303  1.00  0.00    -0.329 OA
HETATM    8  C   UNL     1     -43.860  57.853 -55.072  1.00  0.00     0.097 A 
HETATM    9  C   UNL     1     -42.737  57.519 -54.293  1.00  0.00     0.072 A 
HETATM   10  C   UNL     1     -44.826  58.751 -54.609  1.00  0.00     0.040 A 
HETATM   11  C   UNL     1     -44.679  59.358 -53.366  1.00  0.00     0.020 A 
HETATM   12  C   UNL     1     -43.549  59.080 -52.593  1.00  0.00     0.034 A 
HETATM   13  C   UNL     1     -42.589  58.160 -53.056  1.00  0.00     0.049 A 
ENDROOT
BRANCH   1  14
HETATM   14  C   UNL     1     -40.854  55.868 -53.894  1.00  0.00     0.235 C 
BRANCH  14  15
HETATM   15  C   UNL     1     -41.210  54.406 -53.555  1.00  0.00     0.240 C 
HETATM   16  N   UNL     1     -40.228  53.527 -53.976  1.00  0.00    -0.323 N 
HETATM   17  H   UNL     1     -39.605  53.808 -54.728  1.00  0.00     0.169 HD
HETATM   18  O   UNL     1     -42.266  54.079 -53.018  1.00  0.00    -0.271 OA
BRANCH  16  19
HETATM   19  C   UNL     1     -39.994  52.222 -53.495  1.00  0.00     0.068 A 
HETATM   20  C   UNL     1     -39.657  52.078 -52.136  1.00  0.00     0.095 A 
HETATM   21  C   UNL     1     -39.549  50.802 -51.574  1.00  0.00     0.039 A 
HETATM   22  C   UNL     1     -39.744  49.672 -52.369  1.00  0.00     0.003 A 
HETATM   23  C   UNL     1     -40.044  49.814 -53.723  1.00  0.00     0.002 A 
HETATM   24  C   UNL     1     -40.170  51.086 -54.286  1.00  0.00     0.032 A 
BRANCH  20  25
HETATM   25  O   UNL     1     -39.475  53.244 -51.427  1.00  0.00    -0.349 OA
BRANCH  25  26
HETATM   26  C   UNL     1     -40.181  53.316 -50.185  1.00  0.00     0.171 C 
HETATM   27  C   UNL     1     -40.422  54.780 -49.862  1.00  0.00     0.034 C 
ENDBRANCH  25  26
ENDBRANCH  20  25
ENDBRANCH  16  19
ENDBRANCH  14  15
ENDBRANCH   1  14
BRANCH  12  28
HETATM   28  C   UNL     1     -43.350  59.686 -51.248  1.00  0.00     0.252 C 
HETATM   29  N   UNL     1     -44.365  60.495 -50.781  1.00  0.00    -0.352 N 
HETATM   30  H   UNL     1     -45.157  60.706 -51.371  1.00  0.00     0.163 HD
HETATM   31  O   UNL     1     -42.314  59.471 -50.630  1.00  0.00    -0.268 OA
BRANCH  29  32
HETATM   32  C   UNL     1     -44.302  61.105 -49.470  1.00  0.00     0.084 C 
HETATM   33  C   UNL     1     -44.352  62.628 -49.530  1.00  0.00     0.025 C 
HETATM   34  C   UNL     1     -44.714  63.009 -48.105  1.00  0.00     0.002 C 
HETATM   35  C   UNL     1     -45.722  61.950 -47.671  1.00  0.00     0.002 C 
HETATM   36  C   UNL     1     -45.500  60.744 -48.587  1.00  0.00     0.025 C 
ENDBRANCH  29  32
ENDBRANCH  12  28
TORSDOF 7
ENDMDL
MODEL 8
REMARK VINA RESULT:      -7.7      2.231      7.227
REMARK  7 active torsions:
REMARK  status: ('A' for Active; 'I' for Inactive)
REMARK    1  A    between atoms: C_2  and  O_3 
REMARK    2  A    between atoms: O_3  and  C_4 
REMARK    3  A    between atoms: C_5  and  N_6 
REMARK       I    between atoms: N_6  and  C_7 
REMARK    4  A    between atoms: C_7  and  C_8 
REMARK    5  A    between atoms: C_8  and  N_9 
REMARK    6  A    between atoms: C_20  and  C_21 
REMARK       I    between atoms: C_21  and  N_22 
REMARK    7  A    between atoms: N_22  and  C_23 
ROOT
HETATM    1  N   UNL     1     -42.694  59.537 -52.468  1.00  0.00    -0.304 N 
HETATM    2  C   UNL     1     -43.023  60.413 -51.427  1.00  0.00     0.259 C 
HETATM    3  O   UNL     1     -42.184  60.909 -50.676  1.00  0.00    -0.270 OA
HETATM    4  C   UNL     1     -44.539  60.624 -51.254  1.00  0.00     0.141 C 
HETATM    5  C   UNL     1     -45.169  59.370 -50.624  1.00  0.00     0.057 C 
HETATM    6  C   UNL     1     -44.788  61.817 -50.323  1.00  0.00     0.057 C 
HETATM    7  O   UNL     1     -45.213  60.925 -52.476  1.00  0.00    -0.329 OA
HETATM    8  C   UNL     1     -44.773  60.212 -53.560  1.00  0.00     0.097 A 
HETATM    9  C   UNL     1     -43.570  59.484 -53.594  1.00  0.00     0.072 A 
HETATM   10  C   UNL     1     -45.606  60.294 -54.679  1.00  0.00     0.040 A 
HETATM   11  C   UNL     1     -45.270  59.627 -55.853  1.00  0.00     0.020 A 
HETATM   12  C   UNL     1     -44.105  58.858 -55.898  1.00  0.00     0.034 A 
HETATM   13  C   UNL     1     -43.260  58.794 -54.774  1.00  0.00     0.049 A 
ENDROOT
BRANCH   1  14
HETATM   14  C   UNL     1     -41.305  59.089 -52.525  1.00  0.00     0.235 C 
BRANCH  14  15
HETATM   15  C   UNL     1     -41.055  57.826 -51.675  1.00  0.00     0.240 C 
HETATM   16  N   UNL     1     -41.689  56.716 -52.205  1.00  0.00    -0.323 N 
HETATM   17  H   UNL     1     -42.492  56.851 -52.812  1.00  0.00     0.169 HD
HETATM   18  O   UNL     1     -40.406  57.838 -50.631  1.00  0.00    -0.271 OA
BRANCH  16  19
HETATM   19  C   UNL     1     -41.367  55.363 -51.971  1.00  0.00     0.068 A 
HETATM   20  C   UNL     1     -40.853  54.619 -53.051  1.00  0.00     0.095 A 
HETATM   21  C   UNL     1     -40.390  53.316 -52.843  1.00  0.00     0.039 A 
HETATM   22  C   UNL     1     -40.467  52.743 -51.572  1.00  0.00     0.003 A 
HETATM   23  C   UNL     1     -41.007  53.468 -50.511  1.00  0.00     0.002 A 
HETATM   24  C   UNL     1     -41.456  54.776 -50.709  1.00  0.00     0.032 A 
BRANCH  20  25
HETATM   25  O   UNL     1     -40.821  55.258 -54.270  1.00  0.00    -0.349 OA
BRANCH  25  26
HETATM   26  C   UNL     1     -41.406  54.528 -55.353  1.00  0.00     0.171 C 
HETATM   27  C   UNL     1     -42.894  54.825 -55.373  1.00  0.00     0.034 C 
ENDBRANCH  25  26
ENDBRANCH  20  25
ENDBRANCH  16  19
ENDBRANCH  14  15
ENDBRANCH   1  14
BRANCH  12  28
HETATM   28  C   UNL     1     -43.687  58.138 -57.133  1.00  0.00     0.252 C 
HETATM   29  N   UNL     1     -44.678  57.475 -57.824  1.00  0.00    -0.352 N 
HETATM   30  H   UNL     1     -45.617  57.436 -57.452  1.00  0.00     0.163 HD
HETATM   31  O   UNL     1     -42.509  58.141 -57.470  1.00  0.00    -0.268 OA
BRANCH  29  32
HETATM   32  C   UNL     1     -44.400  56.776 -59.061  1.00  0.00     0.084 C 
HETATM   33  C   UNL     1     -44.021  55.317 -58.835  1.00  0.00     0.025 C 
HETATM   34  C   UNL     1     -44.210  54.705 -60.213  1.00  0.00     0.002 C 
HETATM   35  C   UNL     1     -45.459  55.383 -60.764  1.00  0.00     0.002 C 
HETATM   36  C   UNL     1     -45.618  56.691 -59.984  1.00  0.00     0.025 C 
ENDBRANCH  29  32
ENDBRANCH  12  28
TORSDOF 7
ENDMDL
MODEL 9
REMARK VINA RESULT:      -7.6      2.788      7.347
REMARK  7 active torsions:
REMARK  status: ('A' for Active; 'I' for Inactive)
REMARK    1  A    between atoms: C_2  and  O_3 
REMARK    2  A    between atoms: O_3  and  C_4 
REMARK    3  A    between atoms: C_5  and  N_6 
REMARK       I    between atoms: N_6  and  C_7 
REMARK    4  A    between atoms: C_7  and  C_8 
REMARK    5  A    between atoms: C_8  and  N_9 
REMARK    6  A    between atoms: C_20  and  C_21 
REMARK       I    between atoms: C_21  and  N_22 
REMARK    7  A    between atoms: N_22  and  C_23 
ROOT
HETATM    1  N   UNL     1     -42.720  59.714 -52.938  1.00  0.00    -0.304 N 
HETATM    2  C   UNL     1     -42.834  60.418 -51.734  1.00  0.00     0.259 C 
HETATM    3  O   UNL     1     -41.863  60.727 -51.043  1.00  0.00    -0.270 OA
HETATM    4  C   UNL     1     -44.289  60.688 -51.310  1.00  0.00     0.141 C 
HETATM    5  C   UNL     1     -44.933  59.385 -50.805  1.00  0.00     0.057 C 
HETATM    6  C   UNL     1     -44.312  61.717 -50.174  1.00  0.00     0.057 C 
HETATM    7  O   UNL     1     -45.093  61.232 -52.357  1.00  0.00    -0.329 OA
HETATM    8  C   UNL     1     -44.863  60.690 -53.594  1.00  0.00     0.097 A 
HETATM    9  C   UNL     1     -43.741  59.907 -53.918  1.00  0.00     0.072 A 
HETATM   10  C   UNL     1     -45.828  61.011 -54.552  1.00  0.00     0.040 A 
HETATM   11  C   UNL     1     -45.709  60.534 -55.854  1.00  0.00     0.020 A 
HETATM   12  C   UNL     1     -44.629  59.716 -56.190  1.00  0.00     0.034 A 
HETATM   13  C   UNL     1     -43.650  59.411 -55.226  1.00  0.00     0.049 A 
ENDROOT
BRANCH   1  14
HETATM   14  C   UNL     1     -41.394  59.199 -53.267  1.00  0.00     0.235 C 
BRANCH  14  15
HETATM   15  C   UNL     1     -41.205  57.731 -52.835  1.00  0.00     0.240 C 
HETATM   16  N   UNL     1     -41.686  56.848 -53.786  1.00  0.00    -0.323 N 
HETATM   17  H   UNL     1     -42.394  57.169 -54.440  1.00  0.00     0.169 HD
HETATM   18  O   UNL     1     -40.725  57.407 -51.751  1.00  0.00    -0.271 OA
BRANCH  16  19
HETATM   19  C   UNL     1     -41.327  55.494 -53.946  1.00  0.00     0.068 A 
HETATM   20  C   UNL     1     -42.149  54.525 -53.339  1.00  0.00     0.095 A 
HETATM   21  C   UNL     1     -41.921  53.167 -53.578  1.00  0.00     0.039 A 
HETATM   22  C   UNL     1     -40.858  52.772 -54.392  1.00  0.00     0.003 A 
HETATM   23  C   UNL     1     -40.024  53.729 -54.966  1.00  0.00     0.002 A 
HETATM   24  C   UNL     1     -40.257  55.089 -54.745  1.00  0.00     0.032 A 
BRANCH  20  25
HETATM   25  O   UNL     1     -43.168  55.002 -52.545  1.00  0.00    -0.349 OA
BRANCH  25  26
HETATM   26  C   UNL     1     -43.427  54.237 -51.365  1.00  0.00     0.171 C 
HETATM   27  C   UNL     1     -42.489  54.718 -50.273  1.00  0.00     0.034 C 
ENDBRANCH  25  26
ENDBRANCH  20  25
ENDBRANCH  16  19
ENDBRANCH  14  15
ENDBRANCH   1  14
BRANCH  12  28
HETATM   28  C   UNL     1     -44.441  59.193 -57.572  1.00  0.00     0.252 C 
HETATM   29  N   UNL     1     -44.677  57.848 -57.759  1.00  0.00    -0.352 N 
HETATM   30  H   UNL     1     -44.895  57.257 -56.969  1.00  0.00     0.163 HD
HETATM   31  O   UNL     1     -44.072  59.948 -58.464  1.00  0.00    -0.268 OA
BRANCH  29  32
HETATM   32  C   UNL     1     -44.568  57.235 -59.065  1.00  0.00     0.084 C 
HETATM   33  C   UNL     1     -43.915  55.858 -59.013  1.00  0.00     0.025 C 
HETATM   34  C   UNL     1     -44.301  55.254 -60.353  1.00  0.00     0.002 C 
HETATM   35  C   UNL     1     -45.735  55.718 -60.583  1.00  0.00     0.002 C 
HETATM   36  C   UNL     1     -45.929  56.961 -59.710  1.00  0.00     0.025 C 
ENDBRANCH  29  32
ENDBRANCH  12  28
TORSDOF 7
ENDMDL
MODEL 10
REMARK VINA RESULT:      -7.4      2.418      7.051
REMARK  7 active torsions:
REMARK  status: ('A' for Active; 'I' for Inactive)
REMARK    1  A    between atoms: C_2  and  O_3 
REMARK    2  A    between atoms: O_3  and  C_4 
REMARK    3  A    between atoms: C_5  and  N_6 
REMARK       I    between atoms: N_6  and  C_7 
REMARK    4  A    between atoms: C_7  and  C_8 
REMARK    5  A    between atoms: C_8  and  N_9 
REMARK    6  A    between atoms: C_20  and  C_21 
REMARK       I    between atoms: C_21  and  N_22 
REMARK    7  A    between atoms: N_22  and  C_23 
ROOT
HETATM    1  N   UNL     1     -40.867  56.964 -52.465  1.00  0.00    -0.304 N 
HETATM    2  C   UNL     1     -40.941  56.701 -51.093  1.00  0.00     0.259 C 
HETATM    3  O   UNL     1     -40.689  57.546 -50.233  1.00  0.00    -0.270 OA
HETATM    4  C   UNL     1     -41.274  55.235 -50.761  1.00  0.00     0.141 C 
HETATM    5  C   UNL     1     -40.047  54.349 -51.038  1.00  0.00     0.057 C 
HETATM    6  C   UNL     1     -41.641  55.114 -49.278  1.00  0.00     0.057 C 
HETATM    7  O   UNL     1     -42.392  54.729 -51.491  1.00  0.00    -0.329 OA
HETATM    8  C   UNL     1     -42.449  55.131 -52.799  1.00  0.00     0.097 A 
HETATM    9  C   UNL     1     -41.695  56.191 -53.335  1.00  0.00     0.072 A 
HETATM   10  C   UNL     1     -43.367  54.423 -53.580  1.00  0.00     0.040 A 
HETATM   11  C   UNL     1     -43.533  54.739 -54.925  1.00  0.00     0.020 A 
HETATM   12  C   UNL     1     -42.762  55.756 -55.493  1.00  0.00     0.034 A 
HETATM   13  C   UNL     1     -41.854  56.478 -54.698  1.00  0.00     0.049 A 
ENDROOT
BRANCH   1  14
HETATM   14  C   UNL     1     -40.305  58.256 -52.851  1.00  0.00     0.235 C 
BRANCH  14  15
HETATM   15  C   UNL     1     -41.294  59.420 -52.635  1.00  0.00     0.240 C 
HETATM   16  N   UNL     1     -41.885  59.819 -53.821  1.00  0.00    -0.323 N 
HETATM   17  H   UNL     1     -41.410  59.622 -54.697  1.00  0.00     0.169 HD
HETATM   18  O   UNL     1     -41.484  59.944 -51.540  1.00  0.00    -0.271 OA
BRANCH  16  19
HETATM   19  C   UNL     1     -43.096  60.525 -53.970  1.00  0.00     0.068 A 
HETATM   20  C   UNL     1     -44.295  59.803 -53.811  1.00  0.00     0.095 A 
HETATM   21  C   UNL     1     -45.521  60.477 -53.812  1.00  0.00     0.039 A 
HETATM   22  C   UNL     1     -45.556  61.859 -54.002  1.00  0.00     0.003 A 
HETATM   23  C   UNL     1     -44.372  62.569 -54.194  1.00  0.00     0.002 A 
HETATM   24  C   UNL     1     -43.144  61.904 -54.177  1.00  0.00     0.032 A 
BRANCH  20  25
HETATM   25  O   UNL     1     -44.169  58.443 -53.637  1.00  0.00    -0.349 OA
BRANCH  25  26
HETATM   26  C   UNL     1     -45.058  57.870 -52.674  1.00  0.00     0.171 C 
HETATM   27  C   UNL     1     -44.371  57.895 -51.321  1.00  0.00     0.034 C 
ENDBRANCH  25  26
ENDBRANCH  20  25
ENDBRANCH  16  19
ENDBRANCH  14  15
ENDBRANCH   1  14
BRANCH  12  28
HETATM   28  C   UNL     1     -42.913  56.149 -56.922  1.00  0.00     0.252 C 
HETATM   29  N   UNL     1     -43.660  55.306 -57.717  1.00  0.00    -0.352 N 
HETATM   30  H   UNL     1     -44.014  54.437 -57.342  1.00  0.00     0.163 HD
HETATM   31  O   UNL     1     -42.366  57.165 -57.335  1.00  0.00    -0.268 OA
BRANCH  29  32
HETATM   32  C   UNL     1     -43.910  55.606 -59.110  1.00  0.00     0.084 C 
HETATM   33  C   UNL     1     -44.476  54.413 -59.873  1.00  0.00     0.025 C 
HETATM   34  C   UNL     1     -45.052  55.056 -61.123  1.00  0.00     0.002 C 
HETATM   35  C   UNL     1     -45.665  56.363 -60.630  1.00  0.00     0.002 C 
HETATM   36  C   UNL     1     -44.973  56.690 -59.305  1.00  0.00     0.025 C 
ENDBRANCH  29  32
ENDBRANCH  12  28
TORSDOF 7
ENDMDL
