MODEL 1
REMARK VINA RESULT:      -7.6      0.000      0.000
REMARK  6 active torsions:
REMARK  status: ('A' for Active; 'I' for Inactive)
REMARK    1  A    between atoms: C_3  and  C_4 
REMARK    2  A    between atoms: C_4  and  C_5 
REMARK    3  A    between atoms: C_5  and  C_6 
REMARK    4  A    between atoms: C_6  and  C_7 
REMARK       I    between atoms: C_7  and  N_8 
REMARK    5  A    between atoms: N_8  and  C_9 
REMARK    6  A    between atoms: C_11  and  C_12 
ROOT
HETATM    1  C   UNL     1     -42.000  55.074 -55.615  1.00  0.00     0.222 C 
HETATM    2  N   UNL     1     -42.087  53.813 -55.050  1.00  0.00    -0.327 N 
HETATM    3  O   UNL     1     -41.260  55.984 -55.258  1.00  0.00    -0.273 OA
HETATM    4  H   UNL     1     -42.751  53.170 -55.461  1.00  0.00     0.169 HD
ENDROOT
BRANCH   2   5
HETATM    5  C   UNL     1     -41.342  53.304 -53.963  1.00  0.00     0.035 A 
HETATM    6  C   UNL     1     -41.418  53.803 -52.658  1.00  0.00     0.042 A 
HETATM    7  C   UNL     1     -40.653  53.245 -51.617  1.00  0.00    -0.021 A 
HETATM    8  C   UNL     1     -39.795  52.179 -51.913  1.00  0.00     0.012 A 
HETATM    9  C   UNL     1     -39.707  51.678 -53.212  1.00  0.00     0.003 A 
HETATM   10  C   UNL     1     -40.479  52.236 -54.230  1.00  0.00     0.029 A 
BRANCH   7  11
HETATM   11  C   UNL     1     -40.742  53.756 -50.256  1.00  0.00     0.010 A 
HETATM   12  C   UNL     1     -41.203  55.002 -49.760  1.00  0.00     0.152 A 
HETATM   13  N   UNL     1     -41.110  55.101 -48.430  1.00  0.00    -0.187 NA
HETATM   14  N   UNL     1     -40.592  53.919 -48.065  1.00  0.00    -0.289 N 
HETATM   15  H   UNL     1     -40.425  53.749 -47.079  1.00  0.00     0.188 HD
HETATM   16  C   UNL     1     -40.350  53.084 -49.116  1.00  0.00     0.123 A 
ENDBRANCH   7  11
ENDBRANCH   2   5
BRANCH   1  17
HETATM   17  C   UNL     1     -42.946  55.257 -56.791  1.00  0.00     0.103 C 
BRANCH  17  18
HETATM   18  C   UNL     1     -42.903  56.690 -57.320  1.00  0.00     0.014 C 
BRANCH  18  19
HETATM   19  C   UNL     1     -43.010  56.733 -58.849  1.00  0.00     0.047 C 
BRANCH  19  20
HETATM   20  C   UNL     1     -44.440  56.831 -59.301  1.00  0.00    -0.012 A 
HETATM   21  C   UNL     1     -45.243  55.834 -59.834  1.00  0.00    -0.049 A 
HETATM   22  C   UNL     1     -44.826  54.417 -60.065  1.00  0.00     0.049 C 
HETATM   23  C   UNL     1     -46.554  56.335 -60.129  1.00  0.00     0.015 A 
HETATM   24  C   UNL     1     -46.696  57.668 -59.823  1.00  0.00     0.051 A 
HETATM   25  S   UNL     1     -45.264  58.329 -59.173  1.00  0.00    -0.106 SA
ENDBRANCH  19  20
ENDBRANCH  18  19
ENDBRANCH  17  18
ENDBRANCH   1  17
TORSDOF 6
ENDMDL
MODEL 2
REMARK VINA RESULT:      -7.6      2.537      4.140
REMARK  6 active torsions:
REMARK  status: ('A' for Active; 'I' for Inactive)
REMARK    1  A    between atoms: C_3  and  C_4 
REMARK    2  A    between atoms: C_4  and  C_5 
REMARK    3  A    between atoms: C_5  and  C_6 
REMARK    4  A    between atoms: C_6  and  C_7 
REMARK       I    between atoms: C_7  and  N_8 
REMARK    5  A    between atoms: N_8  and  C_9 
REMARK    6  A    between atoms: C_11  and  C_12 
ROOT
HETATM    1  C   UNL     1     -42.600  54.764 -55.832  1.00  0.00     0.222 C 
HETATM    2  N   UNL     1     -41.308  54.674 -55.346  1.00  0.00    -0.327 N 
HETATM    3  O   UNL     1     -43.584  54.172 -55.404  1.00  0.00    -0.273 OA
HETATM    4  H   UNL     1     -40.601  55.230 -55.813  1.00  0.00     0.169 HD
ENDROOT
BRANCH   2   5
HETATM    5  C   UNL     1     -40.851  53.902 -54.255  1.00  0.00     0.035 A 
HETATM    6  C   UNL     1     -40.988  54.280 -52.916  1.00  0.00     0.042 A 
HETATM    7  C   UNL     1     -40.517  53.461 -51.873  1.00  0.00    -0.021 A 
HETATM    8  C   UNL     1     -39.889  52.253 -52.201  1.00  0.00     0.012 A 
HETATM    9  C   UNL     1     -39.742  51.869 -53.535  1.00  0.00     0.003 A 
HETATM   10  C   UNL     1     -40.223  52.688 -54.555  1.00  0.00     0.029 A 
BRANCH   7  11
HETATM   11  C   UNL     1     -40.671  53.850 -50.478  1.00  0.00     0.010 A 
HETATM   12  C   UNL     1     -40.495  53.108 -49.282  1.00  0.00     0.152 A 
HETATM   13  N   UNL     1     -40.749  53.823 -48.182  1.00  0.00    -0.187 NA
HETATM   14  N   UNL     1     -41.086  55.028 -48.664  1.00  0.00    -0.289 N 
HETATM   15  H   UNL     1     -41.328  55.761 -48.007  1.00  0.00     0.188 HD
HETATM   16  C   UNL     1     -41.060  55.095 -50.027  1.00  0.00     0.123 A 
ENDBRANCH   7  11
ENDBRANCH   2   5
BRANCH   1  17
HETATM   17  C   UNL     1     -42.720  55.718 -57.011  1.00  0.00     0.103 C 
BRANCH  17  18
HETATM   18  C   UNL     1     -42.437  57.159 -56.590  1.00  0.00     0.014 C 
BRANCH  18  19
HETATM   19  C   UNL     1     -43.438  57.651 -55.539  1.00  0.00     0.047 C 
BRANCH  19  20
HETATM   20  C   UNL     1     -42.748  58.079 -54.275  1.00  0.00    -0.012 A 
HETATM   21  C   UNL     1     -42.877  57.544 -53.001  1.00  0.00    -0.049 A 
HETATM   22  C   UNL     1     -43.758  56.394 -52.631  1.00  0.00     0.049 C 
HETATM   23  C   UNL     1     -42.036  58.234 -52.068  1.00  0.00     0.015 A 
HETATM   24  C   UNL     1     -41.317  59.252 -52.651  1.00  0.00     0.051 A 
HETATM   25  S   UNL     1     -41.637  59.384 -54.320  1.00  0.00    -0.106 SA
ENDBRANCH  19  20
ENDBRANCH  18  19
ENDBRANCH  17  18
ENDBRANCH   1  17
TORSDOF 6
ENDMDL
MODEL 3
REMARK VINA RESULT:      -7.4      3.239      4.991
REMARK  6 active torsions:
REMARK  status: ('A' for Active; 'I' for Inactive)
REMARK    1  A    between atoms: C_3  and  C_4 
REMARK    2  A    between atoms: C_4  and  C_5 
REMARK    3  A    between atoms: C_5  and  C_6 
REMARK    4  A    between atoms: C_6  and  C_7 
REMARK       I    between atoms: C_7  and  N_8 
REMARK    5  A    between atoms: N_8  and  C_9 
REMARK    6  A    between atoms: C_11  and  C_12 
ROOT
HETATM    1  C   UNL     1     -42.406  56.428 -51.580  1.00  0.00     0.222 C 
HETATM    2  N   UNL     1     -42.691  55.413 -52.476  1.00  0.00    -0.327 N 
HETATM    3  O   UNL     1     -41.291  56.819 -51.250  1.00  0.00    -0.273 OA
HETATM    4  H   UNL     1     -43.669  55.208 -52.643  1.00  0.00     0.169 HD
ENDROOT
BRANCH   2   5
HETATM    5  C   UNL     1     -41.773  54.628 -53.208  1.00  0.00     0.035 A 
HETATM    6  C   UNL     1     -41.341  53.357 -52.815  1.00  0.00     0.042 A 
HETATM    7  C   UNL     1     -40.429  52.622 -53.594  1.00  0.00    -0.021 A 
HETATM    8  C   UNL     1     -39.944  53.193 -54.777  1.00  0.00     0.012 A 
HETATM    9  C   UNL     1     -40.364  54.463 -55.175  1.00  0.00     0.003 A 
HETATM   10  C   UNL     1     -41.277  55.174 -54.396  1.00  0.00     0.029 A 
BRANCH   7  11
HETATM   11  C   UNL     1     -39.988  51.293 -53.189  1.00  0.00     0.010 A 
HETATM   12  C   UNL     1     -39.810  50.105 -53.942  1.00  0.00     0.152 A 
HETATM   13  N   UNL     1     -39.400  49.073 -53.198  1.00  0.00    -0.187 NA
HETATM   14  N   UNL     1     -39.310  49.593 -51.965  1.00  0.00    -0.289 N 
HETATM   15  H   UNL     1     -39.011  48.990 -51.207  1.00  0.00     0.188 HD
HETATM   16  C   UNL     1     -39.655  50.912 -51.906  1.00  0.00     0.123 A 
ENDBRANCH   7  11
ENDBRANCH   2   5
BRANCH   1  17
HETATM   17  C   UNL     1     -43.657  57.070 -51.000  1.00  0.00     0.103 C 
BRANCH  17  18
HETATM   18  C   UNL     1     -44.651  57.442 -52.099  1.00  0.00     0.014 C 
BRANCH  18  19
HETATM   19  C   UNL     1     -44.256  58.745 -52.804  1.00  0.00     0.047 C 
BRANCH  19  20
HETATM   20  C   UNL     1     -43.800  58.495 -54.214  1.00  0.00    -0.012 A 
HETATM   21  C   UNL     1     -42.527  58.641 -54.745  1.00  0.00    -0.049 A 
HETATM   22  C   UNL     1     -41.319  59.089 -53.986  1.00  0.00     0.049 C 
HETATM   23  C   UNL     1     -42.508  58.291 -56.135  1.00  0.00     0.015 A 
HETATM   24  C   UNL     1     -43.742  57.905 -56.604  1.00  0.00     0.051 A 
HETATM   25  S   UNL     1     -44.931  57.951 -55.382  1.00  0.00    -0.106 SA
ENDBRANCH  19  20
ENDBRANCH  18  19
ENDBRANCH  17  18
ENDBRANCH   1  17
TORSDOF 6
ENDMDL
MODEL 4
REMARK VINA RESULT:      -7.4      2.462      3.276
REMARK  6 active torsions:
REMARK  status: ('A' for Active; 'I' for Inactive)
REMARK    1  A    between atoms: C_3  and  C_4 
REMARK    2  A    between atoms: C_4  and  C_5 
REMARK    3  A    between atoms: C_5  and  C_6 
REMARK    4  A    between atoms: C_6  and  C_7 
REMARK       I    between atoms: C_7  and  N_8 
REMARK    5  A    between atoms: N_8  and  C_9 
REMARK    6  A    between atoms: C_11  and  C_12 
ROOT
HETATM    1  C   UNL     1     -42.617  56.330 -55.969  1.00  0.00     0.222 C 
HETATM    2  N   UNL     1     -41.433  55.671 -55.690  1.00  0.00    -0.327 N 
HETATM    3  O   UNL     1     -43.619  56.362 -55.263  1.00  0.00    -0.273 OA
HETATM    4  H   UNL     1     -40.694  55.741 -56.379  1.00  0.00     0.169 HD
ENDROOT
BRANCH   2   5
HETATM    5  C   UNL     1     -41.120  54.914 -54.539  1.00  0.00     0.035 A 
HETATM    6  C   UNL     1     -40.745  53.567 -54.565  1.00  0.00     0.042 A 
HETATM    7  C   UNL     1     -40.439  52.871 -53.381  1.00  0.00    -0.021 A 
HETATM    8  C   UNL     1     -40.527  53.552 -52.160  1.00  0.00     0.012 A 
HETATM    9  C   UNL     1     -40.906  54.895 -52.123  1.00  0.00     0.003 A 
HETATM   10  C   UNL     1     -41.196  55.572 -53.307  1.00  0.00     0.029 A 
BRANCH   7  11
HETATM   11  C   UNL     1     -40.038  51.471 -53.409  1.00  0.00     0.010 A 
HETATM   12  C   UNL     1     -39.968  50.546 -54.481  1.00  0.00     0.152 A 
HETATM   13  N   UNL     1     -39.561  49.332 -54.098  1.00  0.00    -0.187 NA
HETATM   14  N   UNL     1     -39.365  49.471 -52.778  1.00  0.00    -0.289 N 
HETATM   15  H   UNL     1     -39.046  48.666 -52.250  1.00  0.00     0.188 HD
HETATM   16  C   UNL     1     -39.640  50.725 -52.318  1.00  0.00     0.123 A 
ENDBRANCH   7  11
ENDBRANCH   2   5
BRANCH   1  17
HETATM   17  C   UNL     1     -42.581  57.065 -57.300  1.00  0.00     0.103 C 
BRANCH  17  18
HETATM   18  C   UNL     1     -42.913  56.130 -58.461  1.00  0.00     0.014 C 
BRANCH  18  19
HETATM   19  C   UNL     1     -43.166  56.904 -59.759  1.00  0.00     0.047 C 
BRANCH  19  20
HETATM   20  C   UNL     1     -44.628  56.943 -60.104  1.00  0.00    -0.012 A 
HETATM   21  C   UNL     1     -45.453  55.891 -60.473  1.00  0.00    -0.049 A 
HETATM   22  C   UNL     1     -45.030  54.463 -60.600  1.00  0.00     0.049 C 
HETATM   23  C   UNL     1     -46.791  56.348 -60.711  1.00  0.00     0.015 A 
HETATM   24  C   UNL     1     -46.932  57.703 -60.524  1.00  0.00     0.051 A 
HETATM   25  S   UNL     1     -45.467  58.438 -60.056  1.00  0.00    -0.106 SA
ENDBRANCH  19  20
ENDBRANCH  18  19
ENDBRANCH  17  18
ENDBRANCH   1  17
TORSDOF 6
ENDMDL
MODEL 5
REMARK VINA RESULT:      -7.4      4.699      6.233
REMARK  6 active torsions:
REMARK  status: ('A' for Active; 'I' for Inactive)
REMARK    1  A    between atoms: C_3  and  C_4 
REMARK    2  A    between atoms: C_4  and  C_5 
REMARK    3  A    between atoms: C_5  and  C_6 
REMARK    4  A    between atoms: C_6  and  C_7 
REMARK       I    between atoms: C_7  and  N_8 
REMARK    5  A    between atoms: N_8  and  C_9 
REMARK    6  A    between atoms: C_11  and  C_12 
ROOT
HETATM    1  C   UNL     1     -43.257  55.488 -51.537  1.00  0.00     0.222 C 
HETATM    2  N   UNL     1     -42.177  55.668 -52.383  1.00  0.00    -0.327 N 
HETATM    3  O   UNL     1     -43.773  54.419 -51.229  1.00  0.00    -0.273 OA
HETATM    4  H   UNL     1     -41.868  56.619 -52.538  1.00  0.00     0.169 HD
ENDROOT
BRANCH   2   5
HETATM    5  C   UNL     1     -41.434  54.671 -53.054  1.00  0.00     0.035 A 
HETATM    6  C   UNL     1     -41.042  53.461 -52.473  1.00  0.00     0.042 A 
HETATM    7  C   UNL     1     -40.309  52.505 -53.199  1.00  0.00    -0.021 A 
HETATM    8  C   UNL     1     -39.961  52.792 -54.525  1.00  0.00     0.012 A 
HETATM    9  C   UNL     1     -40.342  53.999 -55.113  1.00  0.00     0.003 A 
HETATM   10  C   UNL     1     -41.077  54.931 -54.382  1.00  0.00     0.029 A 
BRANCH   7  11
HETATM   11  C   UNL     1     -39.910  51.240 -52.597  1.00  0.00     0.010 A 
HETATM   12  C   UNL     1     -39.612  50.904 -51.252  1.00  0.00     0.152 A 
HETATM   13  N   UNL     1     -39.267  49.622 -51.097  1.00  0.00    -0.187 NA
HETATM   14  N   UNL     1     -39.344  49.127 -52.341  1.00  0.00    -0.289 N 
HETATM   15  H   UNL     1     -39.124  48.148 -52.486  1.00  0.00     0.188 HD
HETATM   16  C   UNL     1     -39.719  50.052 -53.272  1.00  0.00     0.123 A 
ENDBRANCH   7  11
ENDBRANCH   2   5
BRANCH   1  17
HETATM   17  C   UNL     1     -43.790  56.797 -50.977  1.00  0.00     0.103 C 
BRANCH  17  18
HETATM   18  C   UNL     1     -44.069  57.806 -52.090  1.00  0.00     0.014 C 
BRANCH  18  19
HETATM   19  C   UNL     1     -43.468  59.180 -51.774  1.00  0.00     0.047 C 
BRANCH  19  20
HETATM   20  C   UNL     1     -41.966  59.147 -51.799  1.00  0.00    -0.012 A 
HETATM   21  C   UNL     1     -41.128  58.963 -52.889  1.00  0.00    -0.049 A 
HETATM   22  C   UNL     1     -41.577  58.758 -54.300  1.00  0.00     0.049 C 
HETATM   23  C   UNL     1     -39.752  59.007 -52.490  1.00  0.00     0.015 A 
HETATM   24  C   UNL     1     -39.595  59.212 -51.139  1.00  0.00     0.051 A 
HETATM   25  S   UNL     1     -41.093  59.361 -50.339  1.00  0.00    -0.106 SA
ENDBRANCH  19  20
ENDBRANCH  18  19
ENDBRANCH  17  18
ENDBRANCH   1  17
TORSDOF 6
ENDMDL
MODEL 6
REMARK VINA RESULT:      -7.2      2.782      4.674
REMARK  6 active torsions:
REMARK  status: ('A' for Active; 'I' for Inactive)
REMARK    1  A    between atoms: C_3  and  C_4 
REMARK    2  A    between atoms: C_4  and  C_5 
REMARK    3  A    between atoms: C_5  and  C_6 
REMARK    4  A    between atoms: C_6  and  C_7 
REMARK       I    between atoms: C_7  and  N_8 
REMARK    5  A    between atoms: N_8  and  C_9 
REMARK    6  A    between atoms: C_11  and  C_12 
ROOT
HETATM    1  C   UNL     1     -43.222  57.110 -51.340  1.00  0.00     0.222 C 
HETATM    2  N   UNL     1     -41.898  56.824 -51.624  1.00  0.00    -0.327 N 
HETATM    3  O   UNL     1     -44.016  56.383 -50.753  1.00  0.00    -0.273 OA
HETATM    4  H   UNL     1     -41.371  57.532 -52.119  1.00  0.00     0.169 HD
ENDROOT
BRANCH   2   5
HETATM    5  C   UNL     1     -41.180  55.654 -51.291  1.00  0.00     0.035 A 
HETATM    6  C   UNL     1     -41.023  54.559 -52.147  1.00  0.00     0.042 A 
HETATM    7  C   UNL     1     -40.288  53.426 -51.756  1.00  0.00    -0.021 A 
HETATM    8  C   UNL     1     -39.718  53.404 -50.477  1.00  0.00     0.012 A 
HETATM    9  C   UNL     1     -39.873  54.488 -49.613  1.00  0.00     0.003 A 
HETATM   10  C   UNL     1     -40.597  55.608 -50.020  1.00  0.00     0.029 A 
BRANCH   7  11
HETATM   11  C   UNL     1     -40.116  52.290 -52.652  1.00  0.00     0.010 A 
HETATM   12  C   UNL     1     -40.500  52.107 -54.005  1.00  0.00     0.152 A 
HETATM   13  N   UNL     1     -40.173  50.903 -54.483  1.00  0.00    -0.187 NA
HETATM   14  N   UNL     1     -39.575  50.306 -53.441  1.00  0.00    -0.289 N 
HETATM   15  H   UNL     1     -39.230  49.360 -53.559  1.00  0.00     0.188 HD
HETATM   16  C   UNL     1     -39.520  51.089 -52.325  1.00  0.00     0.123 A 
ENDBRANCH   7  11
ENDBRANCH   2   5
BRANCH   1  17
HETATM   17  C   UNL     1     -43.646  58.483 -51.836  1.00  0.00     0.103 C 
BRANCH  17  18
HETATM   18  C   UNL     1     -43.410  58.629 -53.338  1.00  0.00     0.014 C 
BRANCH  18  19
HETATM   19  C   UNL     1     -44.438  57.837 -54.154  1.00  0.00     0.047 C 
BRANCH  19  20
HETATM   20  C   UNL     1     -43.791  57.097 -55.291  1.00  0.00    -0.012 A 
HETATM   21  C   UNL     1     -43.450  55.754 -55.359  1.00  0.00    -0.049 A 
HETATM   22  C   UNL     1     -43.672  54.749 -54.275  1.00  0.00     0.049 C 
HETATM   23  C   UNL     1     -42.858  55.440 -56.626  1.00  0.00     0.015 A 
HETATM   24  C   UNL     1     -42.767  56.533 -57.457  1.00  0.00     0.051 A 
HETATM   25  S   UNL     1     -43.395  57.941 -56.729  1.00  0.00    -0.106 SA
ENDBRANCH  19  20
ENDBRANCH  18  19
ENDBRANCH  17  18
ENDBRANCH   1  17
TORSDOF 6
ENDMDL
MODEL 7
REMARK VINA RESULT:      -7.2      3.670      8.214
REMARK  6 active torsions:
REMARK  status: ('A' for Active; 'I' for Inactive)
REMARK    1  A    between atoms: C_3  and  C_4 
REMARK    2  A    between atoms: C_4  and  C_5 
REMARK    3  A    between atoms: C_5  and  C_6 
REMARK    4  A    between atoms: C_6  and  C_7 
REMARK       I    between atoms: C_7  and  N_8 
REMARK    5  A    between atoms: N_8  and  C_9 
REMARK    6  A    between atoms: C_11  and  C_12 
ROOT
HETATM    1  C   UNL     1     -41.766  55.863 -50.924  1.00  0.00     0.222 C 
HETATM    2  N   UNL     1     -42.772  55.525 -51.811  1.00  0.00    -0.327 N 
HETATM    3  O   UNL     1     -41.154  56.925 -50.884  1.00  0.00    -0.273 OA
HETATM    4  H   UNL     1     -43.180  54.603 -51.715  1.00  0.00     0.169 HD
ENDROOT
BRANCH   2   5
HETATM    5  C   UNL     1     -43.318  56.326 -52.839  1.00  0.00     0.035 A 
HETATM    6  C   UNL     1     -43.064  56.134 -54.201  1.00  0.00     0.042 A 
HETATM    7  C   UNL     1     -43.646  56.964 -55.177  1.00  0.00    -0.021 A 
HETATM    8  C   UNL     1     -44.484  58.005 -54.759  1.00  0.00     0.012 A 
HETATM    9  C   UNL     1     -44.739  58.209 -53.402  1.00  0.00     0.003 A 
HETATM   10  C   UNL     1     -44.162  57.371 -52.449  1.00  0.00     0.029 A 
BRANCH   7  11
HETATM   11  C   UNL     1     -43.390  56.756 -56.596  1.00  0.00     0.010 A 
HETATM   12  C   UNL     1     -43.706  57.555 -57.723  1.00  0.00     0.152 A 
HETATM   13  N   UNL     1     -43.312  57.010 -58.878  1.00  0.00    -0.187 NA
HETATM   14  N   UNL     1     -42.739  55.858 -58.498  1.00  0.00    -0.289 N 
HETATM   15  H   UNL     1     -42.353  55.251 -59.214  1.00  0.00     0.188 HD
HETATM   16  C   UNL     1     -42.764  55.658 -57.149  1.00  0.00     0.123 A 
ENDBRANCH   7  11
ENDBRANCH   2   5
BRANCH   1  17
HETATM   17  C   UNL     1     -41.456  54.750 -49.935  1.00  0.00     0.103 C 
BRANCH  17  18
HETATM   18  C   UNL     1     -41.300  53.405 -50.642  1.00  0.00     0.014 C 
BRANCH  18  19
HETATM   19  C   UNL     1     -39.931  53.276 -51.320  1.00  0.00     0.047 C 
BRANCH  19  20
HETATM   20  C   UNL     1     -39.901  52.130 -52.293  1.00  0.00    -0.012 A 
HETATM   21  C   UNL     1     -40.140  52.156 -53.659  1.00  0.00    -0.049 A 
HETATM   22  C   UNL     1     -40.484  53.374 -54.454  1.00  0.00     0.049 C 
HETATM   23  C   UNL     1     -40.003  50.847 -54.228  1.00  0.00     0.015 A 
HETATM   24  C   UNL     1     -39.676  49.892 -53.293  1.00  0.00     0.051 A 
HETATM   25  S   UNL     1     -39.524  50.555 -51.730  1.00  0.00    -0.106 SA
ENDBRANCH  19  20
ENDBRANCH  18  19
ENDBRANCH  17  18
ENDBRANCH   1  17
TORSDOF 6
ENDMDL
MODEL 8
REMARK VINA RESULT:      -7.1      3.554      8.422
REMARK  6 active torsions:
REMARK  status: ('A' for Active; 'I' for Inactive)
REMARK    1  A    between atoms: C_3  and  C_4 
REMARK    2  A    between atoms: C_4  and  C_5 
REMARK    3  A    between atoms: C_5  and  C_6 
REMARK    4  A    between atoms: C_6  and  C_7 
REMARK       I    between atoms: C_7  and  N_8 
REMARK    5  A    between atoms: N_8  and  C_9 
REMARK    6  A    between atoms: C_11  and  C_12 
ROOT
HETATM    1  C   UNL     1     -42.239  57.021 -52.834  1.00  0.00     0.222 C 
HETATM    2  N   UNL     1     -43.468  56.833 -53.443  1.00  0.00    -0.327 N 
HETATM    3  O   UNL     1     -41.270  57.603 -53.310  1.00  0.00    -0.273 OA
HETATM    4  H   UNL     1     -44.170  56.328 -52.916  1.00  0.00     0.169 HD
ENDROOT
BRANCH   2   5
HETATM    5  C   UNL     1     -43.872  57.277 -54.721  1.00  0.00     0.035 A 
HETATM    6  C   UNL     1     -43.169  57.013 -55.901  1.00  0.00     0.042 A 
HETATM    7  C   UNL     1     -43.630  57.479 -57.146  1.00  0.00    -0.021 A 
HETATM    8  C   UNL     1     -44.810  58.231 -57.186  1.00  0.00     0.012 A 
HETATM    9  C   UNL     1     -45.516  58.506 -56.013  1.00  0.00     0.003 A 
HETATM   10  C   UNL     1     -45.050  58.028 -54.789  1.00  0.00     0.029 A 
BRANCH   7  11
HETATM   11  C   UNL     1     -42.904  57.193 -58.377  1.00  0.00     0.010 A 
HETATM   12  C   UNL     1     -42.949  56.073 -59.244  1.00  0.00     0.152 A 
HETATM   13  N   UNL     1     -42.109  56.178 -60.278  1.00  0.00    -0.187 NA
HETATM   14  N   UNL     1     -41.521  57.367 -60.082  1.00  0.00    -0.289 N 
HETATM   15  H   UNL     1     -40.826  57.678 -60.752  1.00  0.00     0.188 HD
HETATM   16  C   UNL     1     -41.956  58.010 -58.960  1.00  0.00     0.123 A 
ENDBRANCH   7  11
ENDBRANCH   2   5
BRANCH   1  17
HETATM   17  C   UNL     1     -42.176  56.420 -51.439  1.00  0.00     0.103 C 
BRANCH  17  18
HETATM   18  C   UNL     1     -41.112  55.328 -51.352  1.00  0.00     0.014 C 
BRANCH  18  19
HETATM   19  C   UNL     1     -41.728  53.927 -51.445  1.00  0.00     0.047 C 
BRANCH  19  20
HETATM   20  C   UNL     1     -40.962  53.048 -52.393  1.00  0.00    -0.012 A 
HETATM   21  C   UNL     1     -41.096  52.948 -53.771  1.00  0.00    -0.049 A 
HETATM   22  C   UNL     1     -42.060  53.728 -54.605  1.00  0.00     0.049 C 
HETATM   23  C   UNL     1     -40.168  51.996 -54.307  1.00  0.00     0.015 A 
HETATM   24  C   UNL     1     -39.383  51.413 -53.340  1.00  0.00     0.051 A 
HETATM   25  S   UNL     1     -39.745  52.007 -51.783  1.00  0.00    -0.106 SA
ENDBRANCH  19  20
ENDBRANCH  18  19
ENDBRANCH  17  18
ENDBRANCH   1  17
TORSDOF 6
ENDMDL
MODEL 9
REMARK VINA RESULT:      -7.1      3.594      9.202
REMARK  6 active torsions:
REMARK  status: ('A' for Active; 'I' for Inactive)
REMARK    1  A    between atoms: C_3  and  C_4 
REMARK    2  A    between atoms: C_4  and  C_5 
REMARK    3  A    between atoms: C_5  and  C_6 
REMARK    4  A    between atoms: C_6  and  C_7 
REMARK       I    between atoms: C_7  and  N_8 
REMARK    5  A    between atoms: N_8  and  C_9 
REMARK    6  A    between atoms: C_11  and  C_12 
ROOT
HETATM    1  C   UNL     1     -41.891  56.055 -54.883  1.00  0.00     0.222 C 
HETATM    2  N   UNL     1     -41.780  56.706 -56.099  1.00  0.00    -0.327 N 
HETATM    3  O   UNL     1     -42.917  55.899 -54.229  1.00  0.00    -0.273 OA
HETATM    4  H   UNL     1     -40.858  56.752 -56.513  1.00  0.00     0.169 HD
ENDROOT
BRANCH   2   5
HETATM    5  C   UNL     1     -42.814  57.310 -56.849  1.00  0.00     0.035 A 
HETATM    6  C   UNL     1     -43.479  56.687 -57.909  1.00  0.00     0.042 A 
HETATM    7  C   UNL     1     -44.507  57.342 -58.612  1.00  0.00    -0.021 A 
HETATM    8  C   UNL     1     -44.849  58.648 -58.238  1.00  0.00     0.012 A 
HETATM    9  C   UNL     1     -44.187  59.280 -57.185  1.00  0.00     0.003 A 
HETATM   10  C   UNL     1     -43.178  58.613 -56.493  1.00  0.00     0.029 A 
BRANCH   7  11
HETATM   11  C   UNL     1     -45.208  56.688 -59.710  1.00  0.00     0.010 A 
HETATM   12  C   UNL     1     -46.585  56.660 -60.046  1.00  0.00     0.152 A 
HETATM   13  N   UNL     1     -46.841  55.928 -61.135  1.00  0.00    -0.187 NA
HETATM   14  N   UNL     1     -45.631  55.485 -61.505  1.00  0.00    -0.289 N 
HETATM   15  H   UNL     1     -45.563  54.894 -62.326  1.00  0.00     0.188 HD
HETATM   16  C   UNL     1     -44.624  55.906 -60.685  1.00  0.00     0.123 A 
ENDBRANCH   7  11
ENDBRANCH   2   5
BRANCH   1  17
HETATM   17  C   UNL     1     -40.563  55.507 -54.385  1.00  0.00     0.103 C 
BRANCH  17  18
HETATM   18  C   UNL     1     -40.216  54.186 -55.069  1.00  0.00     0.014 C 
BRANCH  18  19
HETATM   19  C   UNL     1     -41.111  53.042 -54.581  1.00  0.00     0.047 C 
BRANCH  19  20
HETATM   20  C   UNL     1     -40.526  52.357 -53.378  1.00  0.00    -0.012 A 
HETATM   21  C   UNL     1     -39.900  51.121 -53.312  1.00  0.00    -0.049 A 
HETATM   22  C   UNL     1     -39.676  50.202 -54.470  1.00  0.00     0.049 C 
HETATM   23  C   UNL     1     -39.474  50.833 -51.974  1.00  0.00     0.015 A 
HETATM   24  C   UNL     1     -39.790  51.835 -51.087  1.00  0.00     0.051 A 
HETATM   25  S   UNL     1     -40.592  53.132 -51.850  1.00  0.00    -0.106 SA
ENDBRANCH  19  20
ENDBRANCH  18  19
ENDBRANCH  17  18
ENDBRANCH   1  17
TORSDOF 6
ENDMDL
MODEL 10
REMARK VINA RESULT:      -7.0      2.477      3.644
REMARK  6 active torsions:
REMARK  status: ('A' for Active; 'I' for Inactive)
REMARK    1  A    between atoms: C_3  and  C_4 
REMARK    2  A    between atoms: C_4  and  C_5 
REMARK    3  A    between atoms: C_5  and  C_6 
REMARK    4  A    between atoms: C_6  and  C_7 
REMARK       I    between atoms: C_7  and  N_8 
REMARK    5  A    between atoms: N_8  and  C_9 
REMARK    6  A    between atoms: C_11  and  C_12 
ROOT
HETATM    1  C   UNL     1     -42.841  56.457 -54.957  1.00  0.00     0.222 C 
HETATM    2  N   UNL     1     -41.570  56.108 -54.535  1.00  0.00    -0.327 N 
HETATM    3  O   UNL     1     -43.897  55.954 -54.588  1.00  0.00    -0.273 OA
HETATM    4  H   UNL     1     -40.796  56.622 -54.937  1.00  0.00     0.169 HD
ENDROOT
BRANCH   2   5
HETATM    5  C   UNL     1     -41.219  55.120 -53.589  1.00  0.00     0.035 A 
HETATM    6  C   UNL     1     -40.863  53.809 -53.921  1.00  0.00     0.042 A 
HETATM    7  C   UNL     1     -40.516  52.873 -52.930  1.00  0.00    -0.021 A 
HETATM    8  C   UNL     1     -40.543  53.275 -51.589  1.00  0.00     0.012 A 
HETATM    9  C   UNL     1     -40.902  54.580 -51.246  1.00  0.00     0.003 A 
HETATM   10  C   UNL     1     -41.234  55.497 -52.242  1.00  0.00     0.029 A 
BRANCH   7  11
HETATM   11  C   UNL     1     -40.134  51.510 -53.277  1.00  0.00     0.010 A 
HETATM   12  C   UNL     1     -39.627  50.456 -52.477  1.00  0.00     0.152 A 
HETATM   13  N   UNL     1     -39.382  49.342 -53.174  1.00  0.00    -0.187 NA
HETATM   14  N   UNL     1     -39.731  49.675 -54.425  1.00  0.00    -0.289 N 
HETATM   15  H   UNL     1     -39.634  48.979 -55.156  1.00  0.00     0.188 HD
HETATM   16  C   UNL     1     -40.182  50.958 -54.540  1.00  0.00     0.123 A 
ENDBRANCH   7  11
ENDBRANCH   2   5
BRANCH   1  17
HETATM   17  C   UNL     1     -42.834  57.588 -55.973  1.00  0.00     0.103 C 
BRANCH  17  18
HETATM   18  C   UNL     1     -44.207  57.764 -56.620  1.00  0.00     0.014 C 
BRANCH  18  19
HETATM   19  C   UNL     1     -44.094  58.087 -58.114  1.00  0.00     0.047 C 
BRANCH  19  20
HETATM   20  C   UNL     1     -44.563  56.940 -58.965  1.00  0.00    -0.012 A 
HETATM   21  C   UNL     1     -45.783  56.788 -59.606  1.00  0.00    -0.049 A 
HETATM   22  C   UNL     1     -46.906  57.775 -59.574  1.00  0.00     0.049 C 
HETATM   23  C   UNL     1     -45.832  55.551 -60.328  1.00  0.00     0.015 A 
HETATM   24  C   UNL     1     -44.675  54.818 -60.208  1.00  0.00     0.051 A 
HETATM   25  S   UNL     1     -43.518  55.609 -59.237  1.00  0.00    -0.106 SA
ENDBRANCH  19  20
ENDBRANCH  18  19
ENDBRANCH  17  18
ENDBRANCH   1  17
TORSDOF 6
ENDMDL
