MODEL 1
REMARK VINA RESULT:      -9.1      0.000      0.000
REMARK  4 active torsions:
REMARK  status: ('A' for Active; 'I' for Inactive)
REMARK    1  A    between atoms: N_3  and  C_4 
REMARK    2  A    between atoms: C_4  and  C_5 
REMARK    3  A    between atoms: C_5  and  C_6 
REMARK       I    between atoms: C_6  and  N_7 
REMARK    4  A    between atoms: N_7  and  C_8 
ROOT
HETATM    1  C   UNL     1     -43.416  55.343 -54.893  1.00  0.00     0.035 A 
HETATM    2  C   UNL     1     -43.414  55.245 -53.503  1.00  0.00     0.049 A 
HETATM    3  C   UNL     1     -42.610  54.297 -52.842  1.00  0.00     0.061 A 
HETATM    4  C   UNL     1     -41.802  53.427 -53.586  1.00  0.00     0.050 A 
HETATM    5  N   UNL     1     -40.844  52.541 -53.061  1.00  0.00    -0.324 N 
HETATM    6  C   UNL     1     -40.065  52.716 -51.945  1.00  0.00     0.245 C 
HETATM    7  O   UNL     1     -39.123  51.941 -51.771  1.00  0.00    -0.271 OA
HETATM    8  C   UNL     1     -40.282  53.969 -51.095  1.00  0.00     0.180 C 
HETATM    9  N   UNL     1     -41.649  54.007 -50.602  1.00  0.00    -0.334 N 
HETATM   10  C   UNL     1     -42.764  54.237 -51.368  1.00  0.00     0.256 C 
HETATM   11  O   UNL     1     -43.876  54.413 -50.878  1.00  0.00    -0.267 OA
HETATM   12  C   UNL     1     -39.418  53.996 -49.829  1.00  0.00     0.037 C 
HETATM   13  C   UNL     1     -40.323  54.647 -48.791  1.00  0.00     0.022 C 
HETATM   14  C   UNL     1     -41.692  54.100 -49.155  1.00  0.00     0.127 C 
HETATM   15  C   UNL     1     -41.913  53.442 -54.983  1.00  0.00     0.033 A 
HETATM   16  C   UNL     1     -42.700  54.400 -55.631  1.00  0.00     0.032 A 
HETATM   17  H   UNL     1     -40.479  51.813 -53.663  1.00  0.00     0.169 HD
ENDROOT
BRANCH   1  18
HETATM   18  N   UNL     1     -44.028  56.397 -55.605  1.00  0.00    -0.327 N 
HETATM   19  C   UNL     1     -43.395  57.330 -56.402  1.00  0.00     0.224 C 
HETATM   20  O   UNL     1     -42.198  57.601 -56.395  1.00  0.00    -0.273 OA
HETATM   21  H   UNL     1     -45.043  56.427 -55.575  1.00  0.00     0.169 HD
BRANCH  19  22
HETATM   22  C   UNL     1     -44.312  58.006 -57.403  1.00  0.00     0.134 C 
BRANCH  22  23
HETATM   23  C   UNL     1     -44.335  57.370 -58.815  1.00  0.00     0.044 C 
HETATM   24  C   UNL     1     -45.836  57.250 -59.235  1.00  0.00     0.032 C 
HETATM   25  C   UNL     1     -46.046  56.467 -60.529  1.00  0.00     0.002 C 
HETATM   26  C   UNL     1     -45.464  55.065 -60.420  1.00  0.00     0.000 C 
HETATM   27  C   UNL     1     -43.993  55.105 -60.028  1.00  0.00     0.002 C 
HETATM   28  C   UNL     1     -43.763  55.920 -58.752  1.00  0.00     0.032 C 
BRANCH  23  29
HETATM   29  N   UNL     1     -43.600  58.265 -59.740  1.00  0.00    -0.356 N 
HETATM   30  C   UNL     1     -44.128  59.396 -60.329  1.00  0.00     0.091 A 
HETATM   31  C   UNL     1     -43.143  60.016 -61.065  1.00  0.00     0.019 A 
HETATM   32  C   UNL     1     -41.963  59.266 -60.894  1.00  0.00     0.019 A 
HETATM   33  C   UNL     1     -42.264  58.212 -60.059  1.00  0.00     0.091 A 
ENDBRANCH  23  29
ENDBRANCH  22  23
ENDBRANCH  19  22
ENDBRANCH   1  18
TORSDOF 4
ENDMDL
MODEL 2
REMARK VINA RESULT:      -8.9      0.835      2.228
REMARK  4 active torsions:
REMARK  status: ('A' for Active; 'I' for Inactive)
REMARK    1  A    between atoms: N_3  and  C_4 
REMARK    2  A    between atoms: C_4  and  C_5 
REMARK    3  A    between atoms: C_5  and  C_6 
REMARK       I    between atoms: C_6  and  N_7 
REMARK    4  A    between atoms: N_7  and  C_8 
ROOT
HETATM    1  C   UNL     1     -43.572  55.339 -54.790  1.00  0.00     0.035 A 
HETATM    2  C   UNL     1     -43.532  55.211 -53.402  1.00  0.00     0.049 A 
HETATM    3  C   UNL     1     -42.681  54.276 -52.782  1.00  0.00     0.061 A 
HETATM    4  C   UNL     1     -41.864  53.450 -53.564  1.00  0.00     0.050 A 
HETATM    5  N   UNL     1     -40.865  52.586 -53.082  1.00  0.00    -0.324 N 
HETATM    6  C   UNL     1     -40.064  52.763 -51.981  1.00  0.00     0.245 C 
HETATM    7  O   UNL     1     -39.093  52.017 -51.847  1.00  0.00    -0.271 OA
HETATM    8  C   UNL     1     -40.302  53.990 -51.099  1.00  0.00     0.180 C 
HETATM    9  N   UNL     1     -41.656  53.972 -50.573  1.00  0.00    -0.334 N 
HETATM   10  C   UNL     1     -42.797  54.180 -51.307  1.00  0.00     0.256 C 
HETATM   11  O   UNL     1     -43.902  54.308 -50.786  1.00  0.00    -0.267 OA
HETATM   12  C   UNL     1     -39.408  54.019 -49.853  1.00  0.00     0.037 C 
HETATM   13  C   UNL     1     -40.308  54.617 -48.780  1.00  0.00     0.022 C 
HETATM   14  C   UNL     1     -41.667  54.033 -49.123  1.00  0.00     0.127 C 
HETATM   15  C   UNL     1     -42.009  53.491 -54.958  1.00  0.00     0.033 A 
HETATM   16  C   UNL     1     -42.843  54.436 -55.565  1.00  0.00     0.032 A 
HETATM   17  H   UNL     1     -40.491  51.883 -53.708  1.00  0.00     0.169 HD
ENDROOT
BRANCH   1  18
HETATM   18  N   UNL     1     -44.236  56.386 -55.464  1.00  0.00    -0.327 N 
HETATM   19  C   UNL     1     -43.656  57.514 -56.007  1.00  0.00     0.224 C 
HETATM   20  O   UNL     1     -42.541  57.957 -55.746  1.00  0.00    -0.273 OA
HETATM   21  H   UNL     1     -45.232  56.259 -55.617  1.00  0.00     0.169 HD
BRANCH  19  22
HETATM   22  C   UNL     1     -44.504  58.192 -57.066  1.00  0.00     0.134 C 
BRANCH  22  23
HETATM   23  C   UNL     1     -44.056  57.948 -58.528  1.00  0.00     0.044 C 
HETATM   24  C   UNL     1     -43.188  56.647 -58.526  1.00  0.00     0.032 C 
HETATM   25  C   UNL     1     -42.509  56.366 -59.864  1.00  0.00     0.002 C 
HETATM   26  C   UNL     1     -41.626  57.532 -60.284  1.00  0.00     0.000 C 
HETATM   27  C   UNL     1     -42.412  58.836 -60.324  1.00  0.00     0.002 C 
HETATM   28  C   UNL     1     -43.131  59.111 -59.000  1.00  0.00     0.032 C 
BRANCH  23  29
HETATM   29  N   UNL     1     -45.269  57.770 -59.363  1.00  0.00    -0.356 N 
HETATM   30  C   UNL     1     -45.920  56.569 -59.560  1.00  0.00     0.091 A 
HETATM   31  C   UNL     1     -47.041  56.793 -60.327  1.00  0.00     0.019 A 
HETATM   32  C   UNL     1     -47.104  58.177 -60.578  1.00  0.00     0.019 A 
HETATM   33  C   UNL     1     -46.019  58.756 -59.956  1.00  0.00     0.091 A 
ENDBRANCH  23  29
ENDBRANCH  22  23
ENDBRANCH  19  22
ENDBRANCH   1  18
TORSDOF 4
ENDMDL
MODEL 3
REMARK VINA RESULT:      -8.2      2.376      8.960
REMARK  4 active torsions:
REMARK  status: ('A' for Active; 'I' for Inactive)
REMARK    1  A    between atoms: N_3  and  C_4 
REMARK    2  A    between atoms: C_4  and  C_5 
REMARK    3  A    between atoms: C_5  and  C_6 
REMARK       I    between atoms: C_6  and  N_7 
REMARK    4  A    between atoms: N_7  and  C_8 
ROOT
HETATM    1  C   UNL     1     -43.128  57.480 -56.381  1.00  0.00     0.035 A 
HETATM    2  C   UNL     1     -43.840  58.258 -57.292  1.00  0.00     0.049 A 
HETATM    3  C   UNL     1     -44.158  57.769 -58.573  1.00  0.00     0.061 A 
HETATM    4  C   UNL     1     -43.748  56.484 -58.952  1.00  0.00     0.050 A 
HETATM    5  N   UNL     1     -44.121  55.815 -60.131  1.00  0.00    -0.324 N 
HETATM    6  C   UNL     1     -45.312  55.908 -60.806  1.00  0.00     0.245 C 
HETATM    7  O   UNL     1     -45.544  55.077 -61.686  1.00  0.00    -0.271 OA
HETATM    8  C   UNL     1     -46.359  56.902 -60.300  1.00  0.00     0.180 C 
HETATM    9  N   UNL     1     -45.817  58.251 -60.318  1.00  0.00    -0.334 N 
HETATM   10  C   UNL     1     -44.843  58.726 -59.476  1.00  0.00     0.256 C 
HETATM   11  O   UNL     1     -44.533  59.914 -59.431  1.00  0.00    -0.267 OA
HETATM   12  C   UNL     1     -47.601  56.978 -61.196  1.00  0.00     0.037 C 
HETATM   13  C   UNL     1     -47.989  58.451 -61.147  1.00  0.00     0.022 C 
HETATM   14  C   UNL     1     -46.641  59.148 -61.106  1.00  0.00     0.127 C 
HETATM   15  C   UNL     1     -42.919  55.763 -58.082  1.00  0.00     0.033 A 
HETATM   16  C   UNL     1     -42.624  56.249 -56.803  1.00  0.00     0.032 A 
HETATM   17  H   UNL     1     -43.599  54.991 -60.404  1.00  0.00     0.169 HD
ENDROOT
BRANCH   1  18
HETATM   18  N   UNL     1     -42.959  57.819 -55.022  1.00  0.00    -0.327 N 
HETATM   19  C   UNL     1     -43.612  57.255 -53.944  1.00  0.00     0.224 C 
HETATM   20  O   UNL     1     -44.648  56.598 -53.984  1.00  0.00    -0.273 OA
HETATM   21  H   UNL     1     -42.236  58.502 -54.818  1.00  0.00     0.169 HD
BRANCH  19  22
HETATM   22  C   UNL     1     -42.898  57.452 -52.621  1.00  0.00     0.134 C 
BRANCH  22  23
HETATM   23  C   UNL     1     -42.253  56.178 -52.022  1.00  0.00     0.044 C 
HETATM   24  C   UNL     1     -43.381  55.417 -51.251  1.00  0.00     0.032 C 
HETATM   25  C   UNL     1     -42.869  54.230 -50.440  1.00  0.00     0.002 C 
HETATM   26  C   UNL     1     -41.814  54.668 -49.435  1.00  0.00     0.000 C 
HETATM   27  C   UNL     1     -40.670  55.405 -50.119  1.00  0.00     0.002 C 
HETATM   28  C   UNL     1     -41.173  56.577 -50.969  1.00  0.00     0.032 C 
BRANCH  23  29
HETATM   29  N   UNL     1     -41.728  55.353 -53.136  1.00  0.00    -0.356 N 
HETATM   30  C   UNL     1     -40.536  55.583 -53.793  1.00  0.00     0.091 A 
HETATM   31  C   UNL     1     -40.337  54.581 -54.717  1.00  0.00     0.019 A 
HETATM   32  C   UNL     1     -41.420  53.687 -54.599  1.00  0.00     0.019 A 
HETATM   33  C   UNL     1     -42.245  54.170 -53.607  1.00  0.00     0.091 A 
ENDBRANCH  23  29
ENDBRANCH  22  23
ENDBRANCH  19  22
ENDBRANCH   1  18
TORSDOF 4
ENDMDL
MODEL 4
REMARK VINA RESULT:      -8.0      2.065      3.250
REMARK  4 active torsions:
REMARK  status: ('A' for Active; 'I' for Inactive)
REMARK    1  A    between atoms: N_3  and  C_4 
REMARK    2  A    between atoms: C_4  and  C_5 
REMARK    3  A    between atoms: C_5  and  C_6 
REMARK       I    between atoms: C_6  and  N_7 
REMARK    4  A    between atoms: N_7  and  C_8 
ROOT
HETATM    1  C   UNL     1     -44.757  57.642 -54.825  1.00  0.00     0.035 A 
HETATM    2  C   UNL     1     -43.684  56.752 -54.854  1.00  0.00     0.049 A 
HETATM    3  C   UNL     1     -42.831  56.605 -53.744  1.00  0.00     0.061 A 
HETATM    4  C   UNL     1     -43.049  57.368 -52.590  1.00  0.00     0.050 A 
HETATM    5  N   UNL     1     -42.376  57.219 -51.364  1.00  0.00    -0.324 N 
HETATM    6  C   UNL     1     -41.890  56.061 -50.812  1.00  0.00     0.245 C 
HETATM    7  O   UNL     1     -41.537  56.087 -49.631  1.00  0.00    -0.271 OA
HETATM    8  C   UNL     1     -41.999  54.767 -51.621  1.00  0.00     0.180 C 
HETATM    9  N   UNL     1     -41.286  54.904 -52.880  1.00  0.00    -0.334 N 
HETATM   10  C   UNL     1     -41.679  55.690 -53.934  1.00  0.00     0.256 C 
HETATM   11  O   UNL     1     -41.125  55.650 -55.030  1.00  0.00    -0.267 OA
HETATM   12  C   UNL     1     -41.334  53.568 -50.934  1.00  0.00     0.037 C 
HETATM   13  C   UNL     1     -40.738  52.777 -52.092  1.00  0.00     0.022 C 
HETATM   14  C   UNL     1     -40.280  53.871 -53.040  1.00  0.00     0.127 C 
HETATM   15  C   UNL     1     -44.044  58.356 -52.619  1.00  0.00     0.033 A 
HETATM   16  C   UNL     1     -44.899  58.481 -53.719  1.00  0.00     0.032 A 
HETATM   17  H   UNL     1     -42.457  57.958 -50.676  1.00  0.00     0.169 HD
ENDROOT
BRANCH   1  18
HETATM   18  N   UNL     1     -45.767  57.687 -55.809  1.00  0.00    -0.327 N 
HETATM   19  C   UNL     1     -45.840  58.561 -56.876  1.00  0.00     0.224 C 
HETATM   20  O   UNL     1     -45.234  59.622 -56.990  1.00  0.00    -0.273 OA
HETATM   21  H   UNL     1     -46.474  56.960 -55.759  1.00  0.00     0.169 HD
BRANCH  19  22
HETATM   22  C   UNL     1     -46.725  58.076 -58.008  1.00  0.00     0.134 C 
BRANCH  22  23
HETATM   23  C   UNL     1     -45.974  57.562 -59.261  1.00  0.00     0.044 C 
HETATM   24  C   UNL     1     -46.893  56.489 -59.932  1.00  0.00     0.032 C 
HETATM   25  C   UNL     1     -46.219  55.744 -61.081  1.00  0.00     0.002 C 
HETATM   26  C   UNL     1     -44.943  55.059 -60.614  1.00  0.00     0.000 C 
HETATM   27  C   UNL     1     -43.989  56.050 -59.961  1.00  0.00     0.002 C 
HETATM   28  C   UNL     1     -44.664  56.834 -58.831  1.00  0.00     0.032 C 
BRANCH  23  29
HETATM   29  N   UNL     1     -45.751  58.709 -60.173  1.00  0.00    -0.356 N 
HETATM   30  C   UNL     1     -46.752  59.429 -60.794  1.00  0.00     0.091 A 
HETATM   31  C   UNL     1     -46.182  60.461 -61.505  1.00  0.00     0.019 A 
HETATM   32  C   UNL     1     -44.792  60.398 -61.286  1.00  0.00     0.019 A 
HETATM   33  C   UNL     1     -44.557  59.331 -60.447  1.00  0.00     0.091 A 
ENDBRANCH  23  29
ENDBRANCH  22  23
ENDBRANCH  19  22
ENDBRANCH   1  18
TORSDOF 4
ENDMDL
MODEL 5
REMARK VINA RESULT:      -8.0      2.445      8.748
REMARK  4 active torsions:
REMARK  status: ('A' for Active; 'I' for Inactive)
REMARK    1  A    between atoms: N_3  and  C_4 
REMARK    2  A    between atoms: C_4  and  C_5 
REMARK    3  A    between atoms: C_5  and  C_6 
REMARK       I    between atoms: C_6  and  N_7 
REMARK    4  A    between atoms: N_7  and  C_8 
ROOT
HETATM    1  C   UNL     1     -42.926  56.388 -57.300  1.00  0.00     0.035 A 
HETATM    2  C   UNL     1     -42.640  57.737 -57.098  1.00  0.00     0.049 A 
HETATM    3  C   UNL     1     -42.407  58.602 -58.183  1.00  0.00     0.061 A 
HETATM    4  C   UNL     1     -42.453  58.108 -59.493  1.00  0.00     0.050 A 
HETATM    5  N   UNL     1     -42.391  58.879 -60.667  1.00  0.00    -0.324 N 
HETATM    6  C   UNL     1     -42.873  60.149 -60.861  1.00  0.00     0.245 C 
HETATM    7  O   UNL     1     -42.934  60.574 -62.016  1.00  0.00    -0.271 OA
HETATM    8  C   UNL     1     -43.488  60.883 -59.669  1.00  0.00     0.180 C 
HETATM    9  N   UNL     1     -42.506  61.019 -58.605  1.00  0.00    -0.334 N 
HETATM   10  C   UNL     1     -42.030  59.992 -57.829  1.00  0.00     0.256 C 
HETATM   11  O   UNL     1     -41.320  60.184 -56.845  1.00  0.00    -0.267 OA
HETATM   12  C   UNL     1     -43.899  62.325 -59.995  1.00  0.00     0.037 C 
HETATM   13  C   UNL     1     -43.584  63.086 -58.713  1.00  0.00     0.022 C 
HETATM   14  C   UNL     1     -42.317  62.406 -58.226  1.00  0.00     0.127 C 
HETATM   15  C   UNL     1     -42.606  56.727 -59.681  1.00  0.00     0.033 A 
HETATM   16  C   UNL     1     -42.855  55.878 -58.598  1.00  0.00     0.032 A 
HETATM   17  H   UNL     1     -42.213  58.407 -61.546  1.00  0.00     0.169 HD
ENDROOT
BRANCH   1  18
HETATM   18  N   UNL     1     -43.372  55.517 -56.284  1.00  0.00    -0.327 N 
HETATM   19  C   UNL     1     -42.590  54.685 -55.509  1.00  0.00     0.224 C 
HETATM   20  O   UNL     1     -41.443  54.325 -55.757  1.00  0.00    -0.273 OA
HETATM   21  H   UNL     1     -44.362  55.561 -56.061  1.00  0.00     0.169 HD
BRANCH  19  22
HETATM   22  C   UNL     1     -43.247  54.257 -54.211  1.00  0.00     0.134 C 
BRANCH  22  23
HETATM   23  C   UNL     1     -42.566  54.778 -52.922  1.00  0.00     0.044 C 
HETATM   24  C   UNL     1     -41.237  53.973 -52.752  1.00  0.00     0.032 C 
HETATM   25  C   UNL     1     -40.532  54.233 -51.423  1.00  0.00     0.002 C 
HETATM   26  C   UNL     1     -41.443  53.908 -50.249  1.00  0.00     0.000 C 
HETATM   27  C   UNL     1     -42.757  54.673 -50.339  1.00  0.00     0.002 C 
HETATM   28  C   UNL     1     -43.456  54.451 -51.683  1.00  0.00     0.032 C 
BRANCH  23  29
HETATM   29  N   UNL     1     -42.286  56.224 -53.094  1.00  0.00    -0.356 N 
HETATM   30  C   UNL     1     -41.061  56.753 -53.446  1.00  0.00     0.091 A 
HETATM   31  C   UNL     1     -41.189  58.117 -53.585  1.00  0.00     0.019 A 
HETATM   32  C   UNL     1     -42.542  58.433 -53.350  1.00  0.00     0.019 A 
HETATM   33  C   UNL     1     -43.197  57.253 -53.075  1.00  0.00     0.091 A 
ENDBRANCH  23  29
ENDBRANCH  22  23
ENDBRANCH  19  22
ENDBRANCH   1  18
TORSDOF 4
ENDMDL
MODEL 6
REMARK VINA RESULT:      -8.0      1.864      2.832
REMARK  4 active torsions:
REMARK  status: ('A' for Active; 'I' for Inactive)
REMARK    1  A    between atoms: N_3  and  C_4 
REMARK    2  A    between atoms: C_4  and  C_5 
REMARK    3  A    between atoms: C_5  and  C_6 
REMARK       I    between atoms: C_6  and  N_7 
REMARK    4  A    between atoms: N_7  and  C_8 
ROOT
HETATM    1  C   UNL     1     -42.993  56.402 -53.563  1.00  0.00     0.035 A 
HETATM    2  C   UNL     1     -42.141  55.310 -53.716  1.00  0.00     0.049 A 
HETATM    3  C   UNL     1     -41.283  54.905 -52.676  1.00  0.00     0.061 A 
HETATM    4  C   UNL     1     -41.271  55.611 -51.466  1.00  0.00     0.050 A 
HETATM    5  N   UNL     1     -40.583  55.234 -50.299  1.00  0.00    -0.324 N 
HETATM    6  C   UNL     1     -40.331  53.961 -49.851  1.00  0.00     0.245 C 
HETATM    7  O   UNL     1     -39.920  53.827 -48.697  1.00  0.00    -0.271 OA
HETATM    8  C   UNL     1     -40.758  52.783 -50.727  1.00  0.00     0.180 C 
HETATM    9  N   UNL     1     -40.099  52.857 -52.020  1.00  0.00    -0.334 N 
HETATM   10  C   UNL     1     -40.367  53.784 -52.997  1.00  0.00     0.256 C 
HETATM   11  O   UNL     1     -39.892  53.707 -54.127  1.00  0.00    -0.267 OA
HETATM   12  C   UNL     1     -40.333  51.423 -50.159  1.00  0.00     0.037 C 
HETATM   13  C   UNL     1     -39.982  50.611 -51.399  1.00  0.00     0.022 C 
HETATM   14  C   UNL     1     -39.349  51.649 -52.308  1.00  0.00     0.127 C 
HETATM   15  C   UNL     1     -42.030  56.786 -51.370  1.00  0.00     0.033 A 
HETATM   16  C   UNL     1     -42.894  57.170 -52.401  1.00  0.00     0.032 A 
HETATM   17  H   UNL     1     -40.467  55.921 -49.564  1.00  0.00     0.169 HD
ENDROOT
BRANCH   1  18
HETATM   18  N   UNL     1     -44.019  56.732 -54.473  1.00  0.00    -0.327 N 
HETATM   19  C   UNL     1     -44.135  57.903 -55.196  1.00  0.00     0.224 C 
HETATM   20  O   UNL     1     -43.563  58.963 -54.962  1.00  0.00    -0.273 OA
HETATM   21  H   UNL     1     -44.703  56.005 -54.659  1.00  0.00     0.169 HD
BRANCH  19  22
HETATM   22  C   UNL     1     -45.023  57.784 -56.420  1.00  0.00     0.134 C 
BRANCH  22  23
HETATM   23  C   UNL     1     -44.276  57.589 -57.762  1.00  0.00     0.044 C 
HETATM   24  C   UNL     1     -45.365  57.336 -58.855  1.00  0.00     0.032 C 
HETATM   25  C   UNL     1     -44.787  56.936 -60.210  1.00  0.00     0.002 C 
HETATM   26  C   UNL     1     -43.928  55.686 -60.091  1.00  0.00     0.000 C 
HETATM   27  C   UNL     1     -42.830  55.866 -59.051  1.00  0.00     0.002 C 
HETATM   28  C   UNL     1     -43.393  56.305 -57.696  1.00  0.00     0.032 C 
BRANCH  23  29
HETATM   29  N   UNL     1     -43.514  58.826 -58.056  1.00  0.00    -0.356 N 
HETATM   30  C   UNL     1     -42.138  58.912 -58.104  1.00  0.00     0.091 A 
HETATM   31  C   UNL     1     -41.784  60.190 -58.474  1.00  0.00     0.019 A 
HETATM   32  C   UNL     1     -42.978  60.903 -58.697  1.00  0.00     0.019 A 
HETATM   33  C   UNL     1     -44.023  60.038 -58.457  1.00  0.00     0.091 A 
ENDBRANCH  23  29
ENDBRANCH  22  23
ENDBRANCH  19  22
ENDBRANCH   1  18
TORSDOF 4
ENDMDL
MODEL 7
REMARK VINA RESULT:      -7.8      1.753      3.549
REMARK  4 active torsions:
REMARK  status: ('A' for Active; 'I' for Inactive)
REMARK    1  A    between atoms: N_3  and  C_4 
REMARK    2  A    between atoms: C_4  and  C_5 
REMARK    3  A    between atoms: C_5  and  C_6 
REMARK       I    between atoms: C_6  and  N_7 
REMARK    4  A    between atoms: N_7  and  C_8 
ROOT
HETATM    1  C   UNL     1     -43.209  56.321 -53.703  1.00  0.00     0.035 A 
HETATM    2  C   UNL     1     -42.315  55.261 -53.855  1.00  0.00     0.049 A 
HETATM    3  C   UNL     1     -41.424  54.908 -52.824  1.00  0.00     0.061 A 
HETATM    4  C   UNL     1     -41.419  55.633 -51.625  1.00  0.00     0.050 A 
HETATM    5  N   UNL     1     -40.697  55.302 -50.465  1.00  0.00    -0.324 N 
HETATM    6  C   UNL     1     -40.385  54.048 -50.002  1.00  0.00     0.245 C 
HETATM    7  O   UNL     1     -39.949  53.949 -48.854  1.00  0.00    -0.271 OA
HETATM    8  C   UNL     1     -40.779  52.840 -50.853  1.00  0.00     0.180 C 
HETATM    9  N   UNL     1     -40.146  52.920 -52.159  1.00  0.00    -0.334 N 
HETATM   10  C   UNL     1     -40.468  53.820 -53.144  1.00  0.00     0.256 C 
HETATM   11  O   UNL     1     -40.011  53.744 -54.282  1.00  0.00    -0.267 OA
HETATM   12  C   UNL     1     -40.289  51.508 -50.272  1.00  0.00     0.037 C 
HETATM   13  C   UNL     1     -39.926  50.691 -51.506  1.00  0.00     0.022 C 
HETATM   14  C   UNL     1     -39.352  51.739 -52.441  1.00  0.00     0.127 C 
HETATM   15  C   UNL     1     -42.224  56.778 -51.533  1.00  0.00     0.033 A 
HETATM   16  C   UNL     1     -43.120  57.110 -52.555  1.00  0.00     0.032 A 
HETATM   17  H   UNL     1     -40.596  56.005 -49.743  1.00  0.00     0.169 HD
ENDROOT
BRANCH   1  18
HETATM   18  N   UNL     1     -44.263  56.594 -54.600  1.00  0.00    -0.327 N 
HETATM   19  C   UNL     1     -44.506  57.790 -55.246  1.00  0.00     0.224 C 
HETATM   20  O   UNL     1     -44.055  58.889 -54.938  1.00  0.00    -0.273 OA
HETATM   21  H   UNL     1     -44.862  55.810 -54.839  1.00  0.00     0.169 HD
BRANCH  19  22
HETATM   22  C   UNL     1     -45.372  57.654 -56.483  1.00  0.00     0.134 C 
BRANCH  22  23
HETATM   23  C   UNL     1     -44.653  57.925 -57.827  1.00  0.00     0.044 C 
HETATM   24  C   UNL     1     -43.190  57.395 -57.675  1.00  0.00     0.032 C 
HETATM   25  C   UNL     1     -42.285  57.755 -58.851  1.00  0.00     0.002 C 
HETATM   26  C   UNL     1     -42.230  59.261 -59.057  1.00  0.00     0.000 C 
HETATM   27  C   UNL     1     -43.625  59.848 -59.230  1.00  0.00     0.002 C 
HETATM   28  C   UNL     1     -44.555  59.462 -58.075  1.00  0.00     0.032 C 
BRANCH  23  29
HETATM   29  N   UNL     1     -45.370  57.190 -58.896  1.00  0.00    -0.356 N 
HETATM   30  C   UNL     1     -44.863  56.106 -59.584  1.00  0.00     0.091 A 
HETATM   31  C   UNL     1     -45.828  55.635 -60.446  1.00  0.00     0.019 A 
HETATM   32  C   UNL     1     -46.976  56.430 -60.258  1.00  0.00     0.019 A 
HETATM   33  C   UNL     1     -46.677  57.359 -59.286  1.00  0.00     0.091 A 
ENDBRANCH  23  29
ENDBRANCH  22  23
ENDBRANCH  19  22
ENDBRANCH   1  18
TORSDOF 4
ENDMDL
MODEL 8
REMARK VINA RESULT:      -7.8     15.540     17.971
REMARK  4 active torsions:
REMARK  status: ('A' for Active; 'I' for Inactive)
REMARK    1  A    between atoms: N_3  and  C_4 
REMARK    2  A    between atoms: C_4  and  C_5 
REMARK    3  A    between atoms: C_5  and  C_6 
REMARK       I    between atoms: C_6  and  N_7 
REMARK    4  A    between atoms: N_7  and  C_8 
ROOT
HETATM    1  C   UNL     1     -35.632  41.196 -57.207  1.00  0.00     0.035 A 
HETATM    2  C   UNL     1     -34.523  40.712 -56.515  1.00  0.00     0.049 A 
HETATM    3  C   UNL     1     -34.275  41.090 -55.183  1.00  0.00     0.061 A 
HETATM    4  C   UNL     1     -35.146  41.974 -54.533  1.00  0.00     0.050 A 
HETATM    5  N   UNL     1     -35.106  42.317 -53.170  1.00  0.00    -0.324 N 
HETATM    6  C   UNL     1     -34.723  41.523 -52.118  1.00  0.00     0.245 C 
HETATM    7  O   UNL     1     -34.973  41.916 -50.977  1.00  0.00    -0.271 OA
HETATM    8  C   UNL     1     -34.195  40.120 -52.420  1.00  0.00     0.180 C 
HETATM    9  N   UNL     1     -33.018  40.202 -53.270  1.00  0.00    -0.334 N 
HETATM   10  C   UNL     1     -33.016  40.573 -54.591  1.00  0.00     0.256 C 
HETATM   11  O   UNL     1     -32.020  40.476 -55.302  1.00  0.00    -0.267 OA
HETATM   12  C   UNL     1     -33.712  39.375 -51.169  1.00  0.00     0.037 C 
HETATM   13  C   UNL     1     -32.506  38.586 -51.665  1.00  0.00     0.022 C 
HETATM   14  C   UNL     1     -31.878  39.536 -52.668  1.00  0.00     0.127 C 
HETATM   15  C   UNL     1     -36.180  42.560 -55.277  1.00  0.00     0.033 A 
HETATM   16  C   UNL     1     -36.431  42.164 -56.595  1.00  0.00     0.032 A 
HETATM   17  H   UNL     1     -35.638  43.121 -52.859  1.00  0.00     0.169 HD
ENDROOT
BRANCH   1  18
HETATM   18  N   UNL     1     -36.056  40.702 -58.459  1.00  0.00    -0.327 N 
HETATM   19  C   UNL     1     -37.332  40.300 -58.797  1.00  0.00     0.224 C 
HETATM   20  O   UNL     1     -38.236  40.012 -58.018  1.00  0.00    -0.273 OA
HETATM   21  H   UNL     1     -35.361  40.706 -59.199  1.00  0.00     0.169 HD
BRANCH  19  22
HETATM   22  C   UNL     1     -37.598  40.292 -60.290  1.00  0.00     0.134 C 
BRANCH  22  23
HETATM   23  C   UNL     1     -37.717  38.889 -60.933  1.00  0.00     0.044 C 
HETATM   24  C   UNL     1     -37.639  39.090 -62.482  1.00  0.00     0.032 C 
HETATM   25  C   UNL     1     -37.929  37.820 -63.277  1.00  0.00     0.002 C 
HETATM   26  C   UNL     1     -39.304  37.264 -62.935  1.00  0.00     0.000 C 
HETATM   27  C   UNL     1     -39.448  37.025 -61.438  1.00  0.00     0.002 C 
HETATM   28  C   UNL     1     -39.121  38.282 -60.625  1.00  0.00     0.032 C 
BRANCH  23  29
HETATM   29  N   UNL     1     -36.587  38.058 -60.453  1.00  0.00    -0.356 N 
HETATM   30  C   UNL     1     -35.286  38.161 -60.904  1.00  0.00     0.091 A 
HETATM   31  C   UNL     1     -34.497  37.289 -60.187  1.00  0.00     0.019 A 
HETATM   32  C   UNL     1     -35.328  36.658 -59.241  1.00  0.00     0.019 A 
HETATM   33  C   UNL     1     -36.599  37.165 -59.409  1.00  0.00     0.091 A 
ENDBRANCH  23  29
ENDBRANCH  22  23
ENDBRANCH  19  22
ENDBRANCH   1  18
TORSDOF 4
ENDMDL
MODEL 9
REMARK VINA RESULT:      -7.7      7.088      9.683
REMARK  4 active torsions:
REMARK  status: ('A' for Active; 'I' for Inactive)
REMARK    1  A    between atoms: N_3  and  C_4 
REMARK    2  A    between atoms: C_4  and  C_5 
REMARK    3  A    between atoms: C_5  and  C_6 
REMARK       I    between atoms: C_6  and  N_7 
REMARK    4  A    between atoms: N_7  and  C_8 
ROOT
HETATM    1  C   UNL     1     -45.029  60.432 -51.677  1.00  0.00     0.035 A 
HETATM    2  C   UNL     1     -44.689  61.252 -50.602  1.00  0.00     0.049 A 
HETATM    3  C   UNL     1     -45.540  62.292 -50.183  1.00  0.00     0.061 A 
HETATM    4  C   UNL     1     -46.747  62.521 -50.856  1.00  0.00     0.050 A 
HETATM    5  N   UNL     1     -47.756  63.416 -50.457  1.00  0.00    -0.324 N 
HETATM    6  C   UNL     1     -48.112  63.760 -49.177  1.00  0.00     0.245 C 
HETATM    7  O   UNL     1     -49.166  64.379 -49.017  1.00  0.00    -0.271 OA
HETATM    8  C   UNL     1     -47.295  63.190 -48.017  1.00  0.00     0.180 C 
HETATM    9  N   UNL     1     -45.905  63.598 -48.136  1.00  0.00    -0.334 N 
HETATM   10  C   UNL     1     -45.023  63.144 -49.085  1.00  0.00     0.256 C 
HETATM   11  O   UNL     1     -43.822  63.402 -49.046  1.00  0.00    -0.267 OA
HETATM   12  C   UNL     1     -47.734  63.727 -46.649  1.00  0.00     0.037 C 
HETATM   13  C   UNL     1     -46.427  63.851 -45.876  1.00  0.00     0.022 C 
HETATM   14  C   UNL     1     -45.448  64.294 -46.948  1.00  0.00     0.127 C 
HETATM   15  C   UNL     1     -47.017  61.781 -52.016  1.00  0.00     0.033 A 
HETATM   16  C   UNL     1     -46.175  60.737 -52.414  1.00  0.00     0.032 A 
HETATM   17  H   UNL     1     -48.477  63.659 -51.125  1.00  0.00     0.169 HD
ENDROOT
BRANCH   1  18
HETATM   18  N   UNL     1     -44.334  59.252 -52.016  1.00  0.00    -0.327 N 
HETATM   19  C   UNL     1     -44.679  57.962 -51.664  1.00  0.00     0.224 C 
HETATM   20  O   UNL     1     -45.448  57.634 -50.765  1.00  0.00    -0.273 OA
HETATM   21  H   UNL     1     -43.537  59.364 -52.635  1.00  0.00     0.169 HD
BRANCH  19  22
HETATM   22  C   UNL     1     -44.062  56.897 -52.549  1.00  0.00     0.134 C 
BRANCH  22  23
HETATM   23  C   UNL     1     -42.764  56.253 -52.004  1.00  0.00     0.044 C 
HETATM   24  C   UNL     1     -42.420  55.055 -52.948  1.00  0.00     0.032 C 
HETATM   25  C   UNL     1     -41.267  54.192 -52.441  1.00  0.00     0.002 C 
HETATM   26  C   UNL     1     -41.566  53.640 -51.055  1.00  0.00     0.000 C 
HETATM   27  C   UNL     1     -41.895  54.757 -50.073  1.00  0.00     0.002 C 
HETATM   28  C   UNL     1     -43.025  55.655 -50.588  1.00  0.00     0.032 C 
BRANCH  23  29
HETATM   29  N   UNL     1     -41.689  57.273 -52.035  1.00  0.00    -0.356 N 
HETATM   30  C   UNL     1     -41.155  57.821 -53.184  1.00  0.00     0.091 A 
HETATM   31  C   UNL     1     -40.234  58.783 -52.832  1.00  0.00     0.019 A 
HETATM   32  C   UNL     1     -40.228  58.856 -51.425  1.00  0.00     0.019 A 
HETATM   33  C   UNL     1     -41.145  57.938 -50.962  1.00  0.00     0.091 A 
ENDBRANCH  23  29
ENDBRANCH  22  23
ENDBRANCH  19  22
ENDBRANCH   1  18
TORSDOF 4
ENDMDL
MODEL 10
REMARK VINA RESULT:      -7.7      2.270      3.702
REMARK  4 active torsions:
REMARK  status: ('A' for Active; 'I' for Inactive)
REMARK    1  A    between atoms: N_3  and  C_4 
REMARK    2  A    between atoms: C_4  and  C_5 
REMARK    3  A    between atoms: C_5  and  C_6 
REMARK       I    between atoms: C_6  and  N_7 
REMARK    4  A    between atoms: N_7  and  C_8 
ROOT
HETATM    1  C   UNL     1     -42.830  56.024 -56.602  1.00  0.00     0.035 A 
HETATM    2  C   UNL     1     -42.820  56.964 -55.572  1.00  0.00     0.049 A 
HETATM    3  C   UNL     1     -43.014  56.578 -54.233  1.00  0.00     0.061 A 
HETATM    4  C   UNL     1     -43.230  55.230 -53.918  1.00  0.00     0.050 A 
HETATM    5  N   UNL     1     -43.287  54.685 -52.623  1.00  0.00    -0.324 N 
HETATM    6  C   UNL     1     -42.596  55.095 -51.511  1.00  0.00     0.245 C 
HETATM    7  O   UNL     1     -42.598  54.356 -50.525  1.00  0.00    -0.271 OA
HETATM    8  C   UNL     1     -41.706  56.333 -51.624  1.00  0.00     0.180 C 
HETATM    9  N   UNL     1     -42.501  57.487 -52.011  1.00  0.00    -0.334 N 
HETATM   10  C   UNL     1     -43.067  57.684 -53.245  1.00  0.00     0.256 C 
HETATM   11  O   UNL     1     -43.596  58.744 -53.566  1.00  0.00    -0.267 OA
HETATM   12  C   UNL     1     -41.066  56.740 -50.290  1.00  0.00     0.037 C 
HETATM   13  C   UNL     1     -41.064  58.262 -50.343  1.00  0.00     0.022 C 
HETATM   14  C   UNL     1     -42.368  58.572 -51.057  1.00  0.00     0.127 C 
HETATM   15  C   UNL     1     -43.373  54.313 -54.969  1.00  0.00     0.033 A 
HETATM   16  C   UNL     1     -43.160  54.702 -56.296  1.00  0.00     0.032 A 
HETATM   17  H   UNL     1     -43.662  53.751 -52.509  1.00  0.00     0.169 HD
ENDROOT
BRANCH   1  18
HETATM   18  N   UNL     1     -42.437  56.306 -57.927  1.00  0.00    -0.327 N 
HETATM   19  C   UNL     1     -43.267  56.632 -58.981  1.00  0.00     0.224 C 
HETATM   20  O   UNL     1     -44.478  56.442 -59.040  1.00  0.00    -0.273 OA
HETATM   21  H   UNL     1     -41.437  56.332 -58.101  1.00  0.00     0.169 HD
BRANCH  19  22
HETATM   22  C   UNL     1     -42.564  57.346 -60.119  1.00  0.00     0.134 C 
BRANCH  22  23
HETATM   23  C   UNL     1     -42.828  58.869 -60.208  1.00  0.00     0.044 C 
HETATM   24  C   UNL     1     -44.240  59.048 -60.853  1.00  0.00     0.032 C 
HETATM   25  C   UNL     1     -44.578  60.499 -61.186  1.00  0.00     0.002 C 
HETATM   26  C   UNL     1     -43.542  61.100 -62.125  1.00  0.00     0.000 C 
HETATM   27  C   UNL     1     -42.137  60.975 -61.551  1.00  0.00     0.002 C 
HETATM   28  C   UNL     1     -41.799  59.529 -61.176  1.00  0.00     0.032 C 
BRANCH  23  29
HETATM   29  N   UNL     1     -42.802  59.428 -58.834  1.00  0.00    -0.356 N 
HETATM   30  C   UNL     1     -41.658  59.786 -58.150  1.00  0.00     0.091 A 
HETATM   31  C   UNL     1     -42.017  60.332 -56.938  1.00  0.00     0.019 A 
HETATM   32  C   UNL     1     -43.425  60.345 -56.890  1.00  0.00     0.019 A 
HETATM   33  C   UNL     1     -43.881  59.808 -58.073  1.00  0.00     0.091 A 
ENDBRANCH  23  29
ENDBRANCH  22  23
ENDBRANCH  19  22
ENDBRANCH   1  18
TORSDOF 4
ENDMDL
