MODEL 1
REMARK VINA RESULT:      -8.4      0.000      0.000
REMARK  8 active torsions:
REMARK  status: ('A' for Active; 'I' for Inactive)
REMARK    1  A    between atoms: O_2  and  C_3 
REMARK    2  A    between atoms: C_7  and  C_9 
REMARK    3  A    between atoms: C_9  and  C_10 
REMARK    4  A    between atoms: C_9  and  N_18 
REMARK    5  A    between atoms: C_10  and  C_11 
REMARK    6  A    between atoms: C_11  and  N_12 
REMARK       I    between atoms: N_18  and  C_19 
REMARK    7  A    between atoms: C_19  and  C_21 
REMARK    8  A    between atoms: C_24  and  C_27 
ROOT
HETATM    1  C   UNL     1     -42.178  59.235 -55.897  1.00  0.00     0.119 C 
ENDROOT
BRANCH   1   2
HETATM    2  C   UNL     1     -42.113  59.273 -57.416  1.00  0.00    -0.033 A 
HETATM    3  C   UNL     1     -42.001  60.459 -58.156  1.00  0.00     0.009 A 
HETATM    4  C   UNL     1     -41.962  60.422 -59.551  1.00  0.00     0.003 A 
HETATM    5  C   UNL     1     -42.059  59.205 -60.222  1.00  0.00     0.037 A 
HETATM    6  C   UNL     1     -42.205  58.015 -59.512  1.00  0.00     0.068 A 
HETATM    7  C   UNL     1     -42.222  58.052 -58.117  1.00  0.00     0.046 A 
BRANCH   6   8
HETATM    8  O   UNL     1     -42.312  56.895 -60.287  1.00  0.00    -0.356 OA
HETATM    9  C   UNL     1     -43.001  55.784 -59.725  1.00  0.00     0.210 C 
ENDBRANCH   6   8
ENDBRANCH   1   2
BRANCH   1  10
HETATM   10  C   UNL     1     -43.480  59.807 -55.287  1.00  0.00     0.057 C 
BRANCH  10  11
HETATM   11  C   UNL     1     -44.572  58.744 -55.168  1.00  0.00     0.237 C 
BRANCH  11  12
HETATM   12  N   UNL     1     -44.984  58.551 -53.725  1.00  0.00    -0.071 N 
HETATM   13  H   UNL     1     -46.013  58.592 -53.685  1.00  0.00     0.279 HD
HETATM   14  C   UNL     1     -44.445  59.575 -52.743  1.00  0.00     0.235 C 
HETATM   15  C   UNL     1     -43.656  58.770 -51.727  1.00  0.00     0.029 C 
HETATM   16  C   UNL     1     -44.334  57.416 -51.730  1.00  0.00     0.029 C 
HETATM   17  C   UNL     1     -44.587  57.179 -53.203  1.00  0.00     0.235 C 
ENDBRANCH  11  12
ENDBRANCH  10  11
ENDBRANCH   1  10
BRANCH   1  18
HETATM   18  N   UNL     1     -41.953  57.860 -55.470  1.00  0.00    -0.348 N 
HETATM   19  C   UNL     1     -41.210  57.550 -54.352  1.00  0.00     0.252 C 
HETATM   20  O   UNL     1     -40.800  58.420 -53.588  1.00  0.00    -0.268 OA
HETATM   21  H   UNL     1     -42.328  57.125 -56.056  1.00  0.00     0.163 HD
BRANCH  19  22
HETATM   22  C   UNL     1     -41.008  56.107 -54.043  1.00  0.00     0.032 A 
HETATM   23  C   UNL     1     -41.141  55.582 -52.755  1.00  0.00     0.018 A 
HETATM   24  C   UNL     1     -40.863  54.230 -52.517  1.00  0.00     0.013 A 
HETATM   25  C   UNL     1     -40.457  53.376 -53.557  1.00  0.00    -0.026 A 
HETATM   26  C   UNL     1     -40.373  53.909 -54.852  1.00  0.00     0.013 A 
HETATM   27  C   UNL     1     -40.648  55.258 -55.096  1.00  0.00     0.018 A 
BRANCH  25  28
HETATM   28  C   UNL     1     -40.113  51.970 -53.294  1.00  0.00    -0.023 A 
HETATM   29  C   UNL     1     -40.118  51.014 -54.316  1.00  0.00     0.031 A 
HETATM   30  C   UNL     1     -39.798  49.700 -54.009  1.00  0.00     0.117 A 
HETATM   31  N   UNL     1     -39.479  49.276 -52.769  1.00  0.00    -0.273 NA
HETATM   32  C   UNL     1     -39.476  50.206 -51.793  1.00  0.00     0.117 A 
HETATM   33  C   UNL     1     -39.779  51.541 -52.003  1.00  0.00     0.031 A 
ENDBRANCH  25  28
ENDBRANCH  19  22
ENDBRANCH   1  18
TORSDOF 8
ENDMDL
MODEL 2
REMARK VINA RESULT:      -8.3      1.284      2.313
REMARK  8 active torsions:
REMARK  status: ('A' for Active; 'I' for Inactive)
REMARK    1  A    between atoms: O_2  and  C_3 
REMARK    2  A    between atoms: C_7  and  C_9 
REMARK    3  A    between atoms: C_9  and  C_10 
REMARK    4  A    between atoms: C_9  and  N_18 
REMARK    5  A    between atoms: C_10  and  C_11 
REMARK    6  A    between atoms: C_11  and  N_12 
REMARK       I    between atoms: N_18  and  C_19 
REMARK    7  A    between atoms: C_19  and  C_21 
REMARK    8  A    between atoms: C_24  and  C_27 
ROOT
HETATM    1  C   UNL     1     -42.387  59.197 -55.761  1.00  0.00     0.119 C 
ENDROOT
BRANCH   1   2
HETATM    2  C   UNL     1     -42.276  59.270 -57.276  1.00  0.00    -0.033 A 
HETATM    3  C   UNL     1     -42.205  60.476 -57.990  1.00  0.00     0.009 A 
HETATM    4  C   UNL     1     -42.120  60.470 -59.383  1.00  0.00     0.003 A 
HETATM    5  C   UNL     1     -42.128  59.263 -60.080  1.00  0.00     0.037 A 
HETATM    6  C   UNL     1     -42.232  58.053 -59.398  1.00  0.00     0.068 A 
HETATM    7  C   UNL     1     -42.296  58.060 -58.003  1.00  0.00     0.046 A 
BRANCH   6   8
HETATM    8  O   UNL     1     -42.254  56.945 -60.197  1.00  0.00    -0.356 OA
HETATM    9  C   UNL     1     -42.903  55.789 -59.681  1.00  0.00     0.210 C 
ENDBRANCH   6   8
ENDBRANCH   1   2
BRANCH   1  10
HETATM   10  C   UNL     1     -43.727  59.711 -55.182  1.00  0.00     0.057 C 
BRANCH  10  11
HETATM   11  C   UNL     1     -44.828  58.655 -55.262  1.00  0.00     0.237 C 
BRANCH  11  12
HETATM   12  N   UNL     1     -45.904  59.068 -56.244  1.00  0.00    -0.071 N 
HETATM   13  H   UNL     1     -46.814  58.968 -55.771  1.00  0.00     0.279 HD
HETATM   14  C   UNL     1     -45.964  58.267 -57.531  1.00  0.00     0.235 C 
HETATM   15  C   UNL     1     -45.767  59.286 -58.638  1.00  0.00     0.029 C 
HETATM   16  C   UNL     1     -46.308  60.572 -58.051  1.00  0.00     0.029 C 
HETATM   17  C   UNL     1     -45.779  60.532 -56.634  1.00  0.00     0.235 C 
ENDBRANCH  11  12
ENDBRANCH  10  11
ENDBRANCH   1  10
BRANCH   1  18
HETATM   18  N   UNL     1     -42.128  57.822 -55.355  1.00  0.00    -0.348 N 
HETATM   19  C   UNL     1     -41.347  57.513 -54.263  1.00  0.00     0.252 C 
HETATM   20  O   UNL     1     -40.928  58.382 -53.502  1.00  0.00    -0.268 OA
HETATM   21  H   UNL     1     -42.509  57.087 -55.938  1.00  0.00     0.163 HD
BRANCH  19  22
HETATM   22  C   UNL     1     -41.113  56.071 -53.976  1.00  0.00     0.032 A 
HETATM   23  C   UNL     1     -41.203  55.530 -52.690  1.00  0.00     0.018 A 
HETATM   24  C   UNL     1     -40.896  54.181 -52.475  1.00  0.00     0.013 A 
HETATM   25  C   UNL     1     -40.505  53.344 -53.534  1.00  0.00    -0.026 A 
HETATM   26  C   UNL     1     -40.465  53.892 -54.825  1.00  0.00     0.013 A 
HETATM   27  C   UNL     1     -40.769  55.238 -55.046  1.00  0.00     0.018 A 
BRANCH  25  28
HETATM   28  C   UNL     1     -40.131  51.942 -53.296  1.00  0.00    -0.023 A 
HETATM   29  C   UNL     1     -40.149  50.995 -54.327  1.00  0.00     0.031 A 
HETATM   30  C   UNL     1     -39.800  49.684 -54.043  1.00  0.00     0.117 A 
HETATM   31  N   UNL     1     -39.439  49.253 -52.817  1.00  0.00    -0.273 NA
HETATM   32  C   UNL     1     -39.423  50.173 -51.832  1.00  0.00     0.117 A 
HETATM   33  C   UNL     1     -39.753  51.505 -52.020  1.00  0.00     0.031 A 
ENDBRANCH  25  28
ENDBRANCH  19  22
ENDBRANCH   1  18
TORSDOF 8
ENDMDL
MODEL 3
REMARK VINA RESULT:      -8.0      1.153      1.991
REMARK  8 active torsions:
REMARK  status: ('A' for Active; 'I' for Inactive)
REMARK    1  A    between atoms: O_2  and  C_3 
REMARK    2  A    between atoms: C_7  and  C_9 
REMARK    3  A    between atoms: C_9  and  C_10 
REMARK    4  A    between atoms: C_9  and  N_18 
REMARK    5  A    between atoms: C_10  and  C_11 
REMARK    6  A    between atoms: C_11  and  N_12 
REMARK       I    between atoms: N_18  and  C_19 
REMARK    7  A    between atoms: C_19  and  C_21 
REMARK    8  A    between atoms: C_24  and  C_27 
ROOT
HETATM    1  C   UNL     1     -42.224  59.415 -55.530  1.00  0.00     0.119 C 
ENDROOT
BRANCH   1   2
HETATM    2  C   UNL     1     -42.152  59.518 -57.047  1.00  0.00    -0.033 A 
HETATM    3  C   UNL     1     -42.198  58.407 -57.901  1.00  0.00     0.009 A 
HETATM    4  C   UNL     1     -42.111  58.573 -59.284  1.00  0.00     0.003 A 
HETATM    5  C   UNL     1     -41.955  59.847 -59.828  1.00  0.00     0.037 A 
HETATM    6  C   UNL     1     -41.873  60.965 -59.000  1.00  0.00     0.068 A 
HETATM    7  C   UNL     1     -41.981  60.798 -57.618  1.00  0.00     0.046 A 
BRANCH   6   8
HETATM    8  O   UNL     1     -41.697  62.151 -59.655  1.00  0.00    -0.356 OA
HETATM    9  C   UNL     1     -41.060  62.098 -60.926  1.00  0.00     0.210 C 
ENDBRANCH   6   8
ENDBRANCH   1   2
BRANCH   1  10
HETATM   10  C   UNL     1     -43.526  59.965 -54.903  1.00  0.00     0.057 C 
BRANCH  10  11
HETATM   11  C   UNL     1     -44.588  58.879 -54.742  1.00  0.00     0.237 C 
BRANCH  11  12
HETATM   12  N   UNL     1     -44.938  58.674 -53.283  1.00  0.00    -0.071 N 
HETATM   13  H   UNL     1     -45.958  58.776 -53.188  1.00  0.00     0.279 HD
HETATM   14  C   UNL     1     -44.286  59.638 -52.309  1.00  0.00     0.235 C 
HETATM   15  C   UNL     1     -43.498  58.760 -51.355  1.00  0.00     0.029 C 
HETATM   16  C   UNL     1     -44.257  57.450 -51.352  1.00  0.00     0.029 C 
HETATM   17  C   UNL     1     -44.600  57.268 -52.815  1.00  0.00     0.235 C 
ENDBRANCH  11  12
ENDBRANCH  10  11
ENDBRANCH   1  10
BRANCH   1  18
HETATM   18  N   UNL     1     -42.006  58.022 -55.162  1.00  0.00    -0.348 N 
HETATM   19  C   UNL     1     -41.186  57.659 -54.116  1.00  0.00     0.252 C 
HETATM   20  O   UNL     1     -40.692  58.494 -53.363  1.00  0.00    -0.268 OA
HETATM   21  H   UNL     1     -42.447  57.316 -55.737  1.00  0.00     0.163 HD
BRANCH  19  22
HETATM   22  C   UNL     1     -41.002  56.203 -53.865  1.00  0.00     0.032 A 
HETATM   23  C   UNL     1     -41.144  55.628 -52.599  1.00  0.00     0.018 A 
HETATM   24  C   UNL     1     -40.883  54.264 -52.416  1.00  0.00     0.013 A 
HETATM   25  C   UNL     1     -40.485  53.447 -53.488  1.00  0.00    -0.026 A 
HETATM   26  C   UNL     1     -40.393  54.031 -54.761  1.00  0.00     0.013 A 
HETATM   27  C   UNL     1     -40.651  55.392 -54.951  1.00  0.00     0.018 A 
BRANCH  25  28
HETATM   28  C   UNL     1     -40.159  52.028 -53.282  1.00  0.00    -0.023 A 
HETATM   29  C   UNL     1     -39.790  51.539 -52.023  1.00  0.00     0.031 A 
HETATM   30  C   UNL     1     -39.480  50.194 -51.889  1.00  0.00     0.117 A 
HETATM   31  N   UNL     1     -39.508  49.312 -52.909  1.00  0.00    -0.273 NA
HETATM   32  C   UNL     1     -39.865  49.794 -54.116  1.00  0.00     0.117 A 
HETATM   33  C   UNL     1     -40.195  51.120 -54.347  1.00  0.00     0.031 A 
ENDBRANCH  25  28
ENDBRANCH  19  22
ENDBRANCH   1  18
TORSDOF 8
ENDMDL
MODEL 4
REMARK VINA RESULT:      -7.9      2.676      8.126
REMARK  8 active torsions:
REMARK  status: ('A' for Active; 'I' for Inactive)
REMARK    1  A    between atoms: O_2  and  C_3 
REMARK    2  A    between atoms: C_7  and  C_9 
REMARK    3  A    between atoms: C_9  and  C_10 
REMARK    4  A    between atoms: C_9  and  N_18 
REMARK    5  A    between atoms: C_10  and  C_11 
REMARK    6  A    between atoms: C_11  and  N_12 
REMARK       I    between atoms: N_18  and  C_19 
REMARK    7  A    between atoms: C_19  and  C_21 
REMARK    8  A    between atoms: C_24  and  C_27 
ROOT
HETATM    1  C   UNL     1     -41.845  54.673 -52.640  1.00  0.00     0.119 C 
ENDROOT
BRANCH   1   2
HETATM    2  C   UNL     1     -41.019  53.450 -53.011  1.00  0.00    -0.033 A 
HETATM    3  C   UNL     1     -40.880  52.979 -54.325  1.00  0.00     0.009 A 
HETATM    4  C   UNL     1     -40.119  51.841 -54.592  1.00  0.00     0.003 A 
HETATM    5  C   UNL     1     -39.507  51.146 -53.549  1.00  0.00     0.037 A 
HETATM    6  C   UNL     1     -39.657  51.573 -52.232  1.00  0.00     0.068 A 
HETATM    7  C   UNL     1     -40.402  52.724 -51.968  1.00  0.00     0.046 A 
BRANCH   6   8
HETATM    8  O   UNL     1     -39.028  50.793 -51.302  1.00  0.00    -0.356 OA
HETATM    9  C   UNL     1     -39.828  49.840 -50.611  1.00  0.00     0.210 C 
ENDBRANCH   6   8
ENDBRANCH   1   2
BRANCH   1  10
HETATM   10  C   UNL     1     -41.401  55.387 -51.342  1.00  0.00     0.057 C 
BRANCH  10  11
HETATM   11  C   UNL     1     -42.548  56.160 -50.692  1.00  0.00     0.237 C 
BRANCH  11  12
HETATM   12  N   UNL     1     -42.211  57.630 -50.571  1.00  0.00    -0.071 N 
HETATM   13  H   UNL     1     -42.588  57.965 -49.673  1.00  0.00     0.279 HD
HETATM   14  C   UNL     1     -42.764  58.525 -51.665  1.00  0.00     0.235 C 
HETATM   15  C   UNL     1     -41.547  59.179 -52.292  1.00  0.00     0.029 C 
HETATM   16  C   UNL     1     -40.534  59.219 -51.168  1.00  0.00     0.029 C 
HETATM   17  C   UNL     1     -40.709  57.862 -50.521  1.00  0.00     0.235 C 
ENDBRANCH  11  12
ENDBRANCH  10  11
ENDBRANCH   1  10
BRANCH   1  18
HETATM   18  N   UNL     1     -41.836  55.585 -53.776  1.00  0.00    -0.348 N 
HETATM   19  C   UNL     1     -42.946  55.783 -54.567  1.00  0.00     0.252 C 
HETATM   20  O   UNL     1     -44.037  55.294 -54.285  1.00  0.00    -0.268 OA
HETATM   21  H   UNL     1     -40.960  56.042 -53.997  1.00  0.00     0.163 HD
BRANCH  19  22
HETATM   22  C   UNL     1     -42.802  56.703 -55.730  1.00  0.00     0.032 A 
HETATM   23  C   UNL     1     -42.901  56.271 -57.055  1.00  0.00     0.018 A 
HETATM   24  C   UNL     1     -42.680  57.172 -58.104  1.00  0.00     0.013 A 
HETATM   25  C   UNL     1     -42.365  58.518 -57.855  1.00  0.00    -0.026 A 
HETATM   26  C   UNL     1     -42.315  58.946 -56.518  1.00  0.00     0.013 A 
HETATM   27  C   UNL     1     -42.534  58.051 -55.467  1.00  0.00     0.018 A 
BRANCH  25  28
HETATM   28  C   UNL     1     -42.079  59.449 -58.957  1.00  0.00    -0.023 A 
HETATM   29  C   UNL     1     -42.210  59.059 -60.295  1.00  0.00     0.031 A 
HETATM   30  C   UNL     1     -41.915  59.973 -61.295  1.00  0.00     0.117 A 
HETATM   31  N   UNL     1     -41.499  61.234 -61.058  1.00  0.00    -0.273 NA
HETATM   32  C   UNL     1     -41.378  61.599 -59.767  1.00  0.00     0.117 A 
HETATM   33  C   UNL     1     -41.653  60.758 -58.701  1.00  0.00     0.031 A 
ENDBRANCH  25  28
ENDBRANCH  19  22
ENDBRANCH   1  18
TORSDOF 8
ENDMDL
MODEL 5
REMARK VINA RESULT:      -7.5      1.821      2.417
REMARK  8 active torsions:
REMARK  status: ('A' for Active; 'I' for Inactive)
REMARK    1  A    between atoms: O_2  and  C_3 
REMARK    2  A    between atoms: C_7  and  C_9 
REMARK    3  A    between atoms: C_9  and  C_10 
REMARK    4  A    between atoms: C_9  and  N_18 
REMARK    5  A    between atoms: C_10  and  C_11 
REMARK    6  A    between atoms: C_11  and  N_12 
REMARK       I    between atoms: N_18  and  C_19 
REMARK    7  A    between atoms: C_19  and  C_21 
REMARK    8  A    between atoms: C_24  and  C_27 
ROOT
HETATM    1  C   UNL     1     -44.110  58.420 -55.512  1.00  0.00     0.119 C 
ENDROOT
BRANCH   1   2
HETATM    2  C   UNL     1     -44.931  58.135 -56.761  1.00  0.00    -0.033 A 
HETATM    3  C   UNL     1     -46.293  58.448 -56.880  1.00  0.00     0.009 A 
HETATM    4  C   UNL     1     -46.989  58.144 -58.051  1.00  0.00     0.003 A 
HETATM    5  C   UNL     1     -46.340  57.504 -59.106  1.00  0.00     0.037 A 
HETATM    6  C   UNL     1     -44.996  57.152 -59.000  1.00  0.00     0.068 A 
HETATM    7  C   UNL     1     -44.296  57.475 -57.836  1.00  0.00     0.046 A 
BRANCH   6   8
HETATM    8  O   UNL     1     -44.485  56.509 -60.092  1.00  0.00    -0.356 OA
HETATM    9  C   UNL     1     -43.161  56.000 -59.981  1.00  0.00     0.210 C 
ENDBRANCH   6   8
ENDBRANCH   1   2
BRANCH   1  10
HETATM   10  C   UNL     1     -44.910  59.025 -54.333  1.00  0.00     0.057 C 
BRANCH  10  11
HETATM   11  C   UNL     1     -44.701  60.534 -54.214  1.00  0.00     0.237 C 
BRANCH  11  12
HETATM   12  N   UNL     1     -44.445  60.934 -52.777  1.00  0.00    -0.071 N 
HETATM   13  H   UNL     1     -44.711  61.923 -52.675  1.00  0.00     0.279 HD
HETATM   14  C   UNL     1     -43.011  60.793 -52.300  1.00  0.00     0.235 C 
HETATM   15  C   UNL     1     -43.080  59.840 -51.121  1.00  0.00     0.029 C 
HETATM   16  C   UNL     1     -44.469  60.055 -50.559  1.00  0.00     0.029 C 
HETATM   17  C   UNL     1     -45.317  60.150 -51.810  1.00  0.00     0.235 C 
ENDBRANCH  11  12
ENDBRANCH  10  11
ENDBRANCH   1  10
BRANCH   1  18
HETATM   18  N   UNL     1     -43.442  57.186 -55.119  1.00  0.00    -0.348 N 
HETATM   19  C   UNL     1     -42.153  57.172 -54.633  1.00  0.00     0.252 C 
HETATM   20  O   UNL     1     -41.543  58.210 -54.390  1.00  0.00    -0.268 OA
HETATM   21  H   UNL     1     -43.947  56.320 -55.261  1.00  0.00     0.163 HD
BRANCH  19  22
HETATM   22  C   UNL     1     -41.558  55.845 -54.312  1.00  0.00     0.032 A 
HETATM   23  C   UNL     1     -40.754  55.137 -55.209  1.00  0.00     0.018 A 
HETATM   24  C   UNL     1     -40.287  53.860 -54.875  1.00  0.00     0.013 A 
HETATM   25  C   UNL     1     -40.605  53.268 -53.641  1.00  0.00    -0.026 A 
HETATM   26  C   UNL     1     -41.375  54.011 -52.733  1.00  0.00     0.013 A 
HETATM   27  C   UNL     1     -41.844  55.286 -53.061  1.00  0.00     0.018 A 
BRANCH  25  28
HETATM   28  C   UNL     1     -40.159  51.904 -53.315  1.00  0.00    -0.023 A 
HETATM   29  C   UNL     1     -40.073  50.910 -54.296  1.00  0.00     0.031 A 
HETATM   30  C   UNL     1     -39.660  49.638 -53.931  1.00  0.00     0.117 A 
HETATM   31  N   UNL     1     -39.333  49.289 -52.670  1.00  0.00    -0.273 NA
HETATM   32  C   UNL     1     -39.418  50.255 -51.734  1.00  0.00     0.117 A 
HETATM   33  C   UNL     1     -39.817  51.554 -52.003  1.00  0.00     0.031 A 
ENDBRANCH  25  28
ENDBRANCH  19  22
ENDBRANCH   1  18
TORSDOF 8
ENDMDL
MODEL 6
REMARK VINA RESULT:      -7.3      3.162      8.656
REMARK  8 active torsions:
REMARK  status: ('A' for Active; 'I' for Inactive)
REMARK    1  A    between atoms: O_2  and  C_3 
REMARK    2  A    between atoms: C_7  and  C_9 
REMARK    3  A    between atoms: C_9  and  C_10 
REMARK    4  A    between atoms: C_9  and  N_18 
REMARK    5  A    between atoms: C_10  and  C_11 
REMARK    6  A    between atoms: C_11  and  N_12 
REMARK       I    between atoms: N_18  and  C_19 
REMARK    7  A    between atoms: C_19  and  C_21 
REMARK    8  A    between atoms: C_24  and  C_27 
ROOT
HETATM    1  C   UNL     1     -41.492  55.074 -53.728  1.00  0.00     0.119 C 
ENDROOT
BRANCH   1   2
HETATM    2  C   UNL     1     -40.937  54.022 -52.779  1.00  0.00    -0.033 A 
HETATM    3  C   UNL     1     -40.767  54.235 -51.403  1.00  0.00     0.009 A 
HETATM    4  C   UNL     1     -40.236  53.231 -50.592  1.00  0.00     0.003 A 
HETATM    5  C   UNL     1     -39.848  52.013 -51.149  1.00  0.00     0.037 A 
HETATM    6  C   UNL     1     -39.976  51.788 -52.518  1.00  0.00     0.068 A 
HETATM    7  C   UNL     1     -40.526  52.786 -53.324  1.00  0.00     0.046 A 
BRANCH   6   8
HETATM    8  O   UNL     1     -39.538  50.564 -52.941  1.00  0.00    -0.356 OA
HETATM    9  C   UNL     1     -39.781  50.227 -54.301  1.00  0.00     0.210 C 
ENDBRANCH   6   8
ENDBRANCH   1   2
BRANCH   1  10
HETATM   10  C   UNL     1     -42.525  54.544 -54.752  1.00  0.00     0.057 C 
BRANCH  10  11
HETATM   11  C   UNL     1     -42.211  55.008 -56.174  1.00  0.00     0.237 C 
BRANCH  11  12
HETATM   12  N   UNL     1     -43.414  55.677 -56.803  1.00  0.00    -0.071 N 
HETATM   13  H   UNL     1     -44.249  55.140 -56.531  1.00  0.00     0.279 HD
HETATM   14  C   UNL     1     -43.400  55.768 -58.318  1.00  0.00     0.235 C 
HETATM   15  C   UNL     1     -43.492  57.251 -58.624  1.00  0.00     0.029 C 
HETATM   16  C   UNL     1     -44.240  57.823 -57.439  1.00  0.00     0.029 C 
HETATM   17  C   UNL     1     -43.616  57.088 -56.273  1.00  0.00     0.235 C 
ENDBRANCH  11  12
ENDBRANCH  10  11
ENDBRANCH   1  10
BRANCH   1  18
HETATM   18  N   UNL     1     -42.048  56.156 -52.927  1.00  0.00    -0.348 N 
HETATM   19  C   UNL     1     -41.499  57.419 -52.917  1.00  0.00     0.252 C 
HETATM   20  O   UNL     1     -40.585  57.732 -53.676  1.00  0.00    -0.268 OA
HETATM   21  H   UNL     1     -42.838  55.935 -52.333  1.00  0.00     0.163 HD
BRANCH  19  22
HETATM   22  C   UNL     1     -42.126  58.431 -52.021  1.00  0.00     0.032 A 
HETATM   23  C   UNL     1     -43.507  58.517 -51.825  1.00  0.00     0.018 A 
HETATM   24  C   UNL     1     -44.038  59.539 -51.029  1.00  0.00     0.013 A 
HETATM   25  C   UNL     1     -43.207  60.487 -50.408  1.00  0.00    -0.026 A 
HETATM   26  C   UNL     1     -41.820  60.358 -50.579  1.00  0.00     0.013 A 
HETATM   27  C   UNL     1     -41.283  59.340 -51.372  1.00  0.00     0.018 A 
BRANCH  25  28
HETATM   28  C   UNL     1     -43.772  61.592 -49.618  1.00  0.00    -0.023 A 
HETATM   29  C   UNL     1     -43.486  62.928 -49.922  1.00  0.00     0.031 A 
HETATM   30  C   UNL     1     -44.035  63.929 -49.136  1.00  0.00     0.117 A 
HETATM   31  N   UNL     1     -44.838  63.696 -48.078  1.00  0.00    -0.273 NA
HETATM   32  C   UNL     1     -45.108  62.406 -47.795  1.00  0.00     0.117 A 
HETATM   33  C   UNL     1     -44.609  61.339 -48.524  1.00  0.00     0.031 A 
ENDBRANCH  25  28
ENDBRANCH  19  22
ENDBRANCH   1  18
TORSDOF 8
ENDMDL
MODEL 7
REMARK VINA RESULT:      -7.3      1.469      2.572
REMARK  8 active torsions:
REMARK  status: ('A' for Active; 'I' for Inactive)
REMARK    1  A    between atoms: O_2  and  C_3 
REMARK    2  A    between atoms: C_7  and  C_9 
REMARK    3  A    between atoms: C_9  and  C_10 
REMARK    4  A    between atoms: C_9  and  N_18 
REMARK    5  A    between atoms: C_10  and  C_11 
REMARK    6  A    between atoms: C_11  and  N_12 
REMARK       I    between atoms: N_18  and  C_19 
REMARK    7  A    between atoms: C_19  and  C_21 
REMARK    8  A    between atoms: C_24  and  C_27 
ROOT
HETATM    1  C   UNL     1     -42.471  59.211 -55.126  1.00  0.00     0.119 C 
ENDROOT
BRANCH   1   2
HETATM    2  C   UNL     1     -42.247  59.545 -56.593  1.00  0.00    -0.033 A 
HETATM    3  C   UNL     1     -42.074  60.852 -57.072  1.00  0.00     0.009 A 
HETATM    4  C   UNL     1     -41.889  61.087 -58.435  1.00  0.00     0.003 A 
HETATM    5  C   UNL     1     -41.897  60.025 -59.337  1.00  0.00     0.037 A 
HETATM    6  C   UNL     1     -42.100  58.720 -58.892  1.00  0.00     0.068 A 
HETATM    7  C   UNL     1     -42.265  58.484 -57.525  1.00  0.00     0.046 A 
BRANCH   6   8
HETATM    8  O   UNL     1     -42.109  57.773 -59.877  1.00  0.00    -0.356 OA
HETATM    9  C   UNL     1     -43.382  57.330 -60.334  1.00  0.00     0.210 C 
ENDBRANCH   6   8
ENDBRANCH   1   2
BRANCH   1  10
HETATM   10  C   UNL     1     -43.916  59.436 -54.621  1.00  0.00     0.057 C 
BRANCH  10  11
HETATM   11  C   UNL     1     -43.965  60.394 -53.431  1.00  0.00     0.237 C 
BRANCH  11  12
HETATM   12  N   UNL     1     -44.597  61.712 -53.823  1.00  0.00    -0.071 N 
HETATM   13  H   UNL     1     -45.048  62.104 -52.985  1.00  0.00     0.279 HD
HETATM   14  C   UNL     1     -45.644  61.641 -54.919  1.00  0.00     0.235 C 
HETATM   15  C   UNL     1     -45.124  62.545 -56.021  1.00  0.00     0.029 C 
HETATM   16  C   UNL     1     -44.288  63.572 -55.286  1.00  0.00     0.029 C 
HETATM   17  C   UNL     1     -43.555  62.727 -54.266  1.00  0.00     0.235 C 
ENDBRANCH  11  12
ENDBRANCH  10  11
ENDBRANCH   1  10
BRANCH   1  18
HETATM   18  N   UNL     1     -42.041  57.837 -54.905  1.00  0.00    -0.348 N 
HETATM   19  C   UNL     1     -41.458  57.431 -53.724  1.00  0.00     0.252 C 
HETATM   20  O   UNL     1     -41.381  58.177 -52.752  1.00  0.00    -0.268 OA
HETATM   21  H   UNL     1     -42.144  57.189 -55.676  1.00  0.00     0.163 HD
BRANCH  19  22
HETATM   22  C   UNL     1     -41.014  56.012 -53.633  1.00  0.00     0.032 A 
HETATM   23  C   UNL     1     -40.590  55.278 -54.744  1.00  0.00     0.018 A 
HETATM   24  C   UNL     1     -40.258  53.924 -54.604  1.00  0.00     0.013 A 
HETATM   25  C   UNL     1     -40.334  53.280 -53.358  1.00  0.00    -0.026 A 
HETATM   26  C   UNL     1     -40.719  54.044 -52.244  1.00  0.00     0.013 A 
HETATM   27  C   UNL     1     -41.052  55.395 -52.378  1.00  0.00     0.018 A 
BRANCH  25  28
HETATM   28  C   UNL     1     -40.039  51.845 -53.224  1.00  0.00    -0.023 A 
HETATM   29  C   UNL     1     -39.783  51.265 -51.977  1.00  0.00     0.031 A 
HETATM   30  C   UNL     1     -39.497  49.910 -51.911  1.00  0.00     0.117 A 
HETATM   31  N   UNL     1     -39.445  49.101 -52.989  1.00  0.00    -0.273 NA
HETATM   32  C   UNL     1     -39.694  49.671 -54.185  1.00  0.00     0.117 A 
HETATM   33  C   UNL     1     -39.991  51.013 -54.350  1.00  0.00     0.031 A 
ENDBRANCH  25  28
ENDBRANCH  19  22
ENDBRANCH   1  18
TORSDOF 8
ENDMDL
MODEL 8
REMARK VINA RESULT:      -7.2      1.914      5.220
REMARK  8 active torsions:
REMARK  status: ('A' for Active; 'I' for Inactive)
REMARK    1  A    between atoms: O_2  and  C_3 
REMARK    2  A    between atoms: C_7  and  C_9 
REMARK    3  A    between atoms: C_9  and  C_10 
REMARK    4  A    between atoms: C_9  and  N_18 
REMARK    5  A    between atoms: C_10  and  C_11 
REMARK    6  A    between atoms: C_11  and  N_12 
REMARK       I    between atoms: N_18  and  C_19 
REMARK    7  A    between atoms: C_19  and  C_21 
REMARK    8  A    between atoms: C_24  and  C_27 
ROOT
HETATM    1  C   UNL     1     -43.126  59.253 -54.515  1.00  0.00     0.119 C 
ENDROOT
BRANCH   1   2
HETATM    2  C   UNL     1     -43.067  60.041 -53.215  1.00  0.00    -0.033 A 
HETATM    3  C   UNL     1     -43.924  61.111 -52.919  1.00  0.00     0.009 A 
HETATM    4  C   UNL     1     -43.804  61.800 -51.712  1.00  0.00     0.003 A 
HETATM    5  C   UNL     1     -42.814  61.445 -50.797  1.00  0.00     0.037 A 
HETATM    6  C   UNL     1     -41.928  60.407 -51.081  1.00  0.00     0.068 A 
HETATM    7  C   UNL     1     -42.063  59.706 -52.281  1.00  0.00     0.046 A 
BRANCH   6   8
HETATM    8  O   UNL     1     -40.991  60.174 -50.115  1.00  0.00    -0.356 OA
HETATM    9  C   UNL     1     -39.806  59.494 -50.515  1.00  0.00     0.210 C 
ENDBRANCH   6   8
ENDBRANCH   1   2
BRANCH   1  10
HETATM   10  C   UNL     1     -42.551  59.990 -55.748  1.00  0.00     0.057 C 
BRANCH  10  11
HETATM   11  C   UNL     1     -43.584  60.130 -56.866  1.00  0.00     0.237 C 
BRANCH  11  12
HETATM   12  N   UNL     1     -43.504  58.962 -57.826  1.00  0.00    -0.071 N 
HETATM   13  H   UNL     1     -43.989  58.165 -57.391  1.00  0.00     0.279 HD
HETATM   14  C   UNL     1     -42.103  58.505 -58.191  1.00  0.00     0.235 C 
HETATM   15  C   UNL     1     -42.025  58.642 -59.700  1.00  0.00     0.029 C 
HETATM   16  C   UNL     1     -43.457  58.460 -60.158  1.00  0.00     0.029 C 
HETATM   17  C   UNL     1     -44.232  59.253 -59.128  1.00  0.00     0.235 C 
ENDBRANCH  11  12
ENDBRANCH  10  11
ENDBRANCH   1  10
BRANCH   1  18
HETATM   18  N   UNL     1     -42.457  57.977 -54.301  1.00  0.00    -0.348 N 
HETATM   19  C   UNL     1     -42.910  56.806 -54.866  1.00  0.00     0.252 C 
HETATM   20  O   UNL     1     -43.831  56.794 -55.679  1.00  0.00    -0.268 OA
HETATM   21  H   UNL     1     -41.660  57.971 -53.676  1.00  0.00     0.163 HD
BRANCH  19  22
HETATM   22  C   UNL     1     -42.171  55.556 -54.535  1.00  0.00     0.032 A 
HETATM   23  C   UNL     1     -41.167  55.029 -55.353  1.00  0.00     0.018 A 
HETATM   24  C   UNL     1     -40.563  53.809 -55.024  1.00  0.00     0.013 A 
HETATM   25  C   UNL     1     -40.940  53.097 -53.873  1.00  0.00    -0.026 A 
HETATM   26  C   UNL     1     -41.917  53.662 -53.039  1.00  0.00     0.013 A 
HETATM   27  C   UNL     1     -42.524  54.879 -53.362  1.00  0.00     0.018 A 
BRANCH  25  28
HETATM   28  C   UNL     1     -40.343  51.789 -53.560  1.00  0.00    -0.023 A 
HETATM   29  C   UNL     1     -40.187  50.803 -54.541  1.00  0.00     0.031 A 
HETATM   30  C   UNL     1     -39.630  49.584 -54.187  1.00  0.00     0.117 A 
HETATM   31  N   UNL     1     -39.224  49.280 -52.937  1.00  0.00    -0.273 NA
HETATM   32  C   UNL     1     -39.377  50.237 -52.001  1.00  0.00     0.117 A 
HETATM   33  C   UNL     1     -39.920  51.485 -52.260  1.00  0.00     0.031 A 
ENDBRANCH  25  28
ENDBRANCH  19  22
ENDBRANCH   1  18
TORSDOF 8
ENDMDL
MODEL 9
REMARK VINA RESULT:      -7.1      2.234      3.369
REMARK  8 active torsions:
REMARK  status: ('A' for Active; 'I' for Inactive)
REMARK    1  A    between atoms: O_2  and  C_3 
REMARK    2  A    between atoms: C_7  and  C_9 
REMARK    3  A    between atoms: C_9  and  C_10 
REMARK    4  A    between atoms: C_9  and  N_18 
REMARK    5  A    between atoms: C_10  and  C_11 
REMARK    6  A    between atoms: C_11  and  N_12 
REMARK       I    between atoms: N_18  and  C_19 
REMARK    7  A    between atoms: C_19  and  C_21 
REMARK    8  A    between atoms: C_24  and  C_27 
ROOT
HETATM    1  C   UNL     1     -43.971  59.008 -53.064  1.00  0.00     0.119 C 
ENDROOT
BRANCH   1   2
HETATM    2  C   UNL     1     -44.530  59.303 -54.448  1.00  0.00    -0.033 A 
HETATM    3  C   UNL     1     -45.230  60.477 -54.766  1.00  0.00     0.009 A 
HETATM    4  C   UNL     1     -45.729  60.676 -56.053  1.00  0.00     0.003 A 
HETATM    5  C   UNL     1     -45.555  59.698 -57.031  1.00  0.00     0.037 A 
HETATM    6  C   UNL     1     -44.893  58.509 -56.733  1.00  0.00     0.068 A 
HETATM    7  C   UNL     1     -44.377  58.320 -55.449  1.00  0.00     0.046 A 
BRANCH   6   8
HETATM    8  O   UNL     1     -44.811  57.623 -57.770  1.00  0.00    -0.356 OA
HETATM    9  C   UNL     1     -43.583  56.920 -57.923  1.00  0.00     0.210 C 
ENDBRANCH   6   8
ENDBRANCH   1   2
BRANCH   1  10
HETATM   10  C   UNL     1     -45.001  59.104 -51.913  1.00  0.00     0.057 C 
BRANCH  10  11
HETATM   11  C   UNL     1     -44.520  60.019 -50.788  1.00  0.00     0.237 C 
BRANCH  11  12
HETATM   12  N   UNL     1     -45.692  60.615 -50.037  1.00  0.00    -0.071 N 
HETATM   13  H   UNL     1     -46.408  59.882 -49.940  1.00  0.00     0.279 HD
HETATM   14  C   UNL     1     -46.350  61.817 -50.690  1.00  0.00     0.235 C 
HETATM   15  C   UNL     1     -46.233  62.933 -49.668  1.00  0.00     0.029 C 
HETATM   16  C   UNL     1     -46.207  62.209 -48.339  1.00  0.00     0.029 C 
HETATM   17  C   UNL     1     -45.305  61.029 -48.626  1.00  0.00     0.235 C 
ENDBRANCH  11  12
ENDBRANCH  10  11
ENDBRANCH   1  10
BRANCH   1  18
HETATM   18  N   UNL     1     -43.341  57.695 -53.102  1.00  0.00    -0.348 N 
HETATM   19  C   UNL     1     -42.011  57.510 -52.793  1.00  0.00     0.252 C 
HETATM   20  O   UNL     1     -41.317  58.422 -52.351  1.00  0.00    -0.268 OA
HETATM   21  H   UNL     1     -43.909  56.917 -53.413  1.00  0.00     0.163 HD
BRANCH  19  22
HETATM   22  C   UNL     1     -41.467  56.129 -52.915  1.00  0.00     0.032 A 
HETATM   23  C   UNL     1     -41.002  55.602 -54.123  1.00  0.00     0.018 A 
HETATM   24  C   UNL     1     -40.573  54.270 -54.188  1.00  0.00     0.013 A 
HETATM   25  C   UNL     1     -40.590  53.443 -53.052  1.00  0.00    -0.026 A 
HETATM   26  C   UNL     1     -41.017  54.002 -51.837  1.00  0.00     0.013 A 
HETATM   27  C   UNL     1     -41.447  55.330 -51.766  1.00  0.00     0.018 A 
BRANCH  25  28
HETATM   28  C   UNL     1     -40.191  52.030 -53.135  1.00  0.00    -0.023 A 
HETATM   29  C   UNL     1     -40.285  51.313 -54.333  1.00  0.00     0.031 A 
HETATM   30  C   UNL     1     -39.908  49.979 -54.352  1.00  0.00     0.117 A 
HETATM   31  N   UNL     1     -39.451  49.315 -53.270  1.00  0.00    -0.273 NA
HETATM   32  C   UNL     1     -39.363  50.015 -52.122  1.00  0.00     0.117 A 
HETATM   33  C   UNL     1     -39.714  51.350 -52.007  1.00  0.00     0.031 A 
ENDBRANCH  25  28
ENDBRANCH  19  22
ENDBRANCH   1  18
TORSDOF 8
ENDMDL
MODEL 10
REMARK VINA RESULT:      -7.0      1.682      5.219
REMARK  8 active torsions:
REMARK  status: ('A' for Active; 'I' for Inactive)
REMARK    1  A    between atoms: O_2  and  C_3 
REMARK    2  A    between atoms: C_7  and  C_9 
REMARK    3  A    between atoms: C_9  and  C_10 
REMARK    4  A    between atoms: C_9  and  N_18 
REMARK    5  A    between atoms: C_10  and  C_11 
REMARK    6  A    between atoms: C_11  and  N_12 
REMARK       I    between atoms: N_18  and  C_19 
REMARK    7  A    between atoms: C_19  and  C_21 
REMARK    8  A    between atoms: C_24  and  C_27 
ROOT
HETATM    1  C   UNL     1     -44.336  58.474 -54.688  1.00  0.00     0.119 C 
ENDROOT
BRANCH   1   2
HETATM    2  C   UNL     1     -44.214  59.373 -53.467  1.00  0.00    -0.033 A 
HETATM    3  C   UNL     1     -44.534  58.958 -52.165  1.00  0.00     0.009 A 
HETATM    4  C   UNL     1     -44.413  59.841 -51.092  1.00  0.00     0.003 A 
HETATM    5  C   UNL     1     -43.995  61.153 -51.307  1.00  0.00     0.037 A 
HETATM    6  C   UNL     1     -43.703  61.600 -52.594  1.00  0.00     0.068 A 
HETATM    7  C   UNL     1     -43.805  60.710 -53.664  1.00  0.00     0.046 A 
BRANCH   6   8
HETATM    8  O   UNL     1     -43.328  62.912 -52.674  1.00  0.00    -0.356 OA
HETATM    9  C   UNL     1     -43.199  63.622 -51.448  1.00  0.00     0.210 C 
ENDBRANCH   6   8
ENDBRANCH   1   2
BRANCH   1  10
HETATM   10  C   UNL     1     -43.859  59.111 -56.014  1.00  0.00     0.057 C 
BRANCH  10  11
HETATM   11  C   UNL     1     -44.405  58.371 -57.234  1.00  0.00     0.237 C 
BRANCH  11  12
HETATM   12  N   UNL     1     -43.355  57.455 -57.827  1.00  0.00    -0.071 N 
HETATM   13  H   UNL     1     -43.120  56.747 -57.117  1.00  0.00     0.279 HD
HETATM   14  C   UNL     1     -42.062  58.125 -58.253  1.00  0.00     0.235 C 
HETATM   15  C   UNL     1     -41.929  57.819 -59.734  1.00  0.00     0.029 C 
HETATM   16  C   UNL     1     -42.659  56.503 -59.901  1.00  0.00     0.029 C 
HETATM   17  C   UNL     1     -43.884  56.696 -59.033  1.00  0.00     0.235 C 
ENDBRANCH  11  12
ENDBRANCH  10  11
ENDBRANCH   1  10
BRANCH   1  18
HETATM   18  N   UNL     1     -43.622  57.234 -54.409  1.00  0.00    -0.348 N 
HETATM   19  C   UNL     1     -42.246  57.169 -54.385  1.00  0.00     0.252 C 
HETATM   20  O   UNL     1     -41.550  58.176 -54.477  1.00  0.00    -0.268 OA
HETATM   21  H   UNL     1     -44.178  56.399 -54.276  1.00  0.00     0.163 HD
BRANCH  19  22
HETATM   22  C   UNL     1     -41.629  55.836 -54.137  1.00  0.00     0.032 A 
HETATM   23  C   UNL     1     -40.807  55.197 -55.068  1.00  0.00     0.018 A 
HETATM   24  C   UNL     1     -40.319  53.910 -54.806  1.00  0.00     0.013 A 
HETATM   25  C   UNL     1     -40.633  53.242 -53.610  1.00  0.00    -0.026 A 
HETATM   26  C   UNL     1     -41.422  53.917 -52.666  1.00  0.00     0.013 A 
HETATM   27  C   UNL     1     -41.913  55.200 -52.923  1.00  0.00     0.018 A 
BRANCH  25  28
HETATM   28  C   UNL     1     -40.165  51.870 -53.361  1.00  0.00    -0.023 A 
HETATM   29  C   UNL     1     -39.783  51.448 -52.082  1.00  0.00     0.031 A 
HETATM   30  C   UNL     1     -39.337  50.148 -51.907  1.00  0.00     0.117 A 
HETATM   31  N   UNL     1     -39.243  49.247 -52.907  1.00  0.00    -0.273 NA
HETATM   32  C   UNL     1     -39.614  49.663 -54.134  1.00  0.00     0.117 A 
HETATM   33  C   UNL     1     -40.075  50.940 -54.405  1.00  0.00     0.031 A 
ENDBRANCH  25  28
ENDBRANCH  19  22
ENDBRANCH   1  18
TORSDOF 8
ENDMDL
