MODEL 1
REMARK VINA RESULT:      -8.2      0.000      0.000
REMARK  7 active torsions:
REMARK  status: ('A' for Active; 'I' for Inactive)
REMARK    1  A    between atoms: C_5  and  C_6 
REMARK    2  A    between atoms: C_6  and  C_7 
REMARK    3  A    between atoms: C_7  and  S_8 
REMARK    4  A    between atoms: S_8  and  C_9 
REMARK    5  A    between atoms: C_15  and  C_16 
REMARK    6  A    between atoms: C_16  and  C_17 
REMARK    7  A    between atoms: C_25  and  N_26 
ROOT
HETATM    1  C   UNL     1     -43.166  58.729 -51.235  1.00  0.00     0.116 A 
HETATM    2  N   UNL     1     -44.502  58.803 -51.341  1.00  0.00    -0.203 NA
HETATM    3  S   UNL     1     -45.136  57.254 -51.158  1.00  0.00     0.020 SA
HETATM    4  C   UNL     1     -43.650  56.518 -50.963  1.00  0.00     0.080 A 
HETATM    5  C   UNL     1     -42.667  57.427 -51.029  1.00  0.00     0.053 A 
HETATM    6  S   UNL     1     -43.131  54.964 -50.699  1.00  0.00    -0.074 SA
HETATM    7  C   UNL     1     -41.468  55.504 -50.697  1.00  0.00     0.084 A 
HETATM    8  C   UNL     1     -41.378  56.887 -50.864  1.00  0.00     0.062 A 
ENDROOT
BRANCH   1   9
HETATM    9  S   UNL     1     -42.198  60.188 -51.386  1.00  0.00    -0.101 SA
BRANCH   9  10
HETATM   10  C   UNL     1     -42.110  60.344 -53.191  1.00  0.00     0.164 C 
BRANCH  10  11
HETATM   11  C   UNL     1     -41.210  59.261 -53.745  1.00  0.00     0.169 C 
HETATM   12  O   UNL     1     -40.036  59.158 -53.386  1.00  0.00    -0.291 OA
BRANCH  11  13
HETATM   13  C   UNL     1     -41.746  58.307 -54.762  1.00  0.00     0.011 A 
HETATM   14  C   UNL     1     -42.391  58.730 -55.929  1.00  0.00     0.016 A 
HETATM   15  C   UNL     1     -42.868  57.790 -56.849  1.00  0.00     0.007 A 
HETATM   16  C   UNL     1     -42.703  56.420 -56.619  1.00  0.00    -0.062 A 
HETATM   17  C   UNL     1     -43.235  55.407 -57.591  1.00  0.00     0.048 C 
HETATM   18  C   UNL     1     -42.077  55.998 -55.441  1.00  0.00     0.007 A 
HETATM   19  C   UNL     1     -41.602  56.934 -54.520  1.00  0.00     0.016 A 
ENDBRANCH  11  13
ENDBRANCH  10  11
ENDBRANCH   9  10
ENDBRANCH   1   9
BRANCH   8  20
HETATM   20  N   UNL     1     -40.230  57.599 -50.853  1.00  0.00    -0.397 N 
HETATM   21  H   UNL     1     -39.544  57.568 -51.603  1.00  0.00     0.156 HD
HETATM   22  H   UNL     1     -39.831  57.937 -49.975  1.00  0.00     0.156 HD
ENDBRANCH   8  20
BRANCH   7  23
HETATM   23  C   UNL     1     -40.446  54.486 -50.504  1.00  0.00     0.201 C 
HETATM   24  O   UNL     1     -39.711  54.454 -49.516  1.00  0.00    -0.286 OA
BRANCH  23  25
HETATM   25  C   UNL     1     -40.261  53.411 -51.524  1.00  0.00     0.015 A 
HETATM   26  C   UNL     1     -40.605  53.590 -52.869  1.00  0.00     0.016 A 
HETATM   27  C   UNL     1     -40.438  52.546 -53.784  1.00  0.00     0.007 A 
HETATM   28  C   UNL     1     -39.946  51.305 -53.364  1.00  0.00    -0.062 A 
HETATM   29  C   UNL     1     -39.763  50.178 -54.338  1.00  0.00     0.048 C 
HETATM   30  C   UNL     1     -39.613  51.123 -52.016  1.00  0.00     0.007 A 
HETATM   31  C   UNL     1     -39.775  52.166 -51.101  1.00  0.00     0.016 A 
ENDBRANCH  23  25
ENDBRANCH   7  23
TORSDOF 7
ENDMDL
MODEL 2
REMARK VINA RESULT:      -7.8      1.834      2.617
REMARK  7 active torsions:
REMARK  status: ('A' for Active; 'I' for Inactive)
REMARK    1  A    between atoms: C_5  and  C_6 
REMARK    2  A    between atoms: C_6  and  C_7 
REMARK    3  A    between atoms: C_7  and  S_8 
REMARK    4  A    between atoms: S_8  and  C_9 
REMARK    5  A    between atoms: C_15  and  C_16 
REMARK    6  A    between atoms: C_16  and  C_17 
REMARK    7  A    between atoms: C_25  and  N_26 
ROOT
HETATM    1  C   UNL     1     -43.338  58.491 -53.151  1.00  0.00     0.116 A 
HETATM    2  N   UNL     1     -44.571  58.882 -52.792  1.00  0.00    -0.203 NA
HETATM    3  S   UNL     1     -45.098  57.890 -51.538  1.00  0.00     0.020 SA
HETATM    4  C   UNL     1     -43.712  56.960 -51.504  1.00  0.00     0.080 A 
HETATM    5  C   UNL     1     -42.841  57.386 -52.430  1.00  0.00     0.053 A 
HETATM    6  S   UNL     1     -43.178  55.673 -50.602  1.00  0.00    -0.074 SA
HETATM    7  C   UNL     1     -41.684  55.637 -51.509  1.00  0.00     0.084 A 
HETATM    8  C   UNL     1     -41.638  56.658 -52.460  1.00  0.00     0.062 A 
ENDROOT
BRANCH   1   9
HETATM    9  S   UNL     1     -42.503  59.329 -54.450  1.00  0.00    -0.101 SA
BRANCH   9  10
HETATM   10  C   UNL     1     -43.506  58.822 -55.873  1.00  0.00     0.164 C 
BRANCH  10  11
HETATM   11  C   UNL     1     -42.970  57.521 -56.427  1.00  0.00     0.169 C 
HETATM   12  O   UNL     1     -42.032  56.933 -55.888  1.00  0.00    -0.291 OA
BRANCH  11  13
HETATM   13  C   UNL     1     -43.576  56.941 -57.664  1.00  0.00     0.011 A 
HETATM   14  C   UNL     1     -43.024  55.844 -58.333  1.00  0.00     0.016 A 
HETATM   15  C   UNL     1     -43.639  55.341 -59.485  1.00  0.00     0.007 A 
HETATM   16  C   UNL     1     -44.812  55.922 -59.979  1.00  0.00    -0.062 A 
HETATM   17  C   UNL     1     -45.461  55.401 -61.229  1.00  0.00     0.048 C 
HETATM   18  C   UNL     1     -45.350  57.033 -59.322  1.00  0.00     0.007 A 
HETATM   19  C   UNL     1     -44.737  57.539 -58.173  1.00  0.00     0.016 A 
ENDBRANCH  11  13
ENDBRANCH  10  11
ENDBRANCH   9  10
ENDBRANCH   1   9
BRANCH   8  20
HETATM   20  N   UNL     1     -40.592  56.916 -53.275  1.00  0.00    -0.397 N 
HETATM   21  H   UNL     1     -40.405  56.397 -54.129  1.00  0.00     0.156 HD
HETATM   22  H   UNL     1     -39.762  57.401 -52.927  1.00  0.00     0.156 HD
ENDBRANCH   8  20
BRANCH   7  23
HETATM   23  C   UNL     1     -40.720  54.609 -51.149  1.00  0.00     0.201 C 
HETATM   24  O   UNL     1     -40.078  54.632 -50.099  1.00  0.00    -0.286 OA
BRANCH  23  25
HETATM   25  C   UNL     1     -40.483  53.454 -52.065  1.00  0.00     0.015 A 
HETATM   26  C   UNL     1     -41.050  53.385 -53.344  1.00  0.00     0.016 A 
HETATM   27  C   UNL     1     -40.821  52.272 -54.157  1.00  0.00     0.007 A 
HETATM   28  C   UNL     1     -40.040  51.205 -53.698  1.00  0.00    -0.062 A 
HETATM   29  C   UNL     1     -39.788  50.005 -54.564  1.00  0.00     0.048 C 
HETATM   30  C   UNL     1     -39.482  51.269 -52.416  1.00  0.00     0.007 A 
HETATM   31  C   UNL     1     -39.706  52.383 -51.603  1.00  0.00     0.016 A 
ENDBRANCH  23  25
ENDBRANCH   7  23
TORSDOF 7
ENDMDL
MODEL 3
REMARK VINA RESULT:      -7.7      3.415      7.856
REMARK  7 active torsions:
REMARK  status: ('A' for Active; 'I' for Inactive)
REMARK    1  A    between atoms: C_5  and  C_6 
REMARK    2  A    between atoms: C_6  and  C_7 
REMARK    3  A    between atoms: C_7  and  S_8 
REMARK    4  A    between atoms: S_8  and  C_9 
REMARK    5  A    between atoms: C_15  and  C_16 
REMARK    6  A    between atoms: C_16  and  C_17 
REMARK    7  A    between atoms: C_25  and  N_26 
ROOT
HETATM    1  C   UNL     1     -42.637  57.576 -54.239  1.00  0.00     0.116 A 
HETATM    2  N   UNL     1     -42.279  58.726 -53.647  1.00  0.00    -0.203 NA
HETATM    3  S   UNL     1     -41.994  59.873 -54.846  1.00  0.00     0.020 SA
HETATM    4  C   UNL     1     -42.326  58.836 -56.112  1.00  0.00     0.080 A 
HETATM    5  C   UNL     1     -42.657  57.623 -55.647  1.00  0.00     0.053 A 
HETATM    6  S   UNL     1     -42.352  58.966 -57.767  1.00  0.00    -0.074 SA
HETATM    7  C   UNL     1     -42.807  57.284 -57.907  1.00  0.00     0.084 A 
HETATM    8  C   UNL     1     -42.962  56.689 -56.654  1.00  0.00     0.062 A 
ENDROOT
BRANCH   1   9
HETATM    9  S   UNL     1     -43.002  56.167 -53.253  1.00  0.00    -0.101 SA
BRANCH   9  10
HETATM   10  C   UNL     1     -41.387  55.873 -52.482  1.00  0.00     0.164 C 
BRANCH  10  11
HETATM   11  C   UNL     1     -41.420  54.558 -51.734  1.00  0.00     0.169 C 
HETATM   12  O   UNL     1     -41.889  54.479 -50.598  1.00  0.00    -0.291 OA
BRANCH  11  13
HETATM   13  C   UNL     1     -40.857  53.331 -52.376  1.00  0.00     0.011 A 
HETATM   14  C   UNL     1     -40.048  52.422 -51.686  1.00  0.00     0.016 A 
HETATM   15  C   UNL     1     -39.554  51.287 -52.338  1.00  0.00     0.007 A 
HETATM   16  C   UNL     1     -39.864  51.043 -53.680  1.00  0.00    -0.062 A 
HETATM   17  C   UNL     1     -39.315  49.840 -54.390  1.00  0.00     0.048 C 
HETATM   18  C   UNL     1     -40.654  51.965 -54.374  1.00  0.00     0.007 A 
HETATM   19  C   UNL     1     -41.148  53.100 -53.727  1.00  0.00     0.016 A 
ENDBRANCH  11  13
ENDBRANCH  10  11
ENDBRANCH   9  10
ENDBRANCH   1   9
BRANCH   8  20
HETATM   20  N   UNL     1     -43.359  55.415 -56.442  1.00  0.00    -0.397 N 
HETATM   21  H   UNL     1     -42.749  54.610 -56.564  1.00  0.00     0.156 HD
HETATM   22  H   UNL     1     -44.348  55.161 -56.474  1.00  0.00     0.156 HD
ENDBRANCH   8  20
BRANCH   7  23
HETATM   23  C   UNL     1     -42.982  56.760 -59.253  1.00  0.00     0.201 C 
HETATM   24  O   UNL     1     -42.056  56.289 -59.914  1.00  0.00    -0.286 OA
BRANCH  23  25
HETATM   25  C   UNL     1     -44.334  56.767 -59.887  1.00  0.00     0.015 A 
HETATM   26  C   UNL     1     -45.213  57.850 -59.761  1.00  0.00     0.016 A 
HETATM   27  C   UNL     1     -46.479  57.801 -60.351  1.00  0.00     0.007 A 
HETATM   28  C   UNL     1     -46.893  56.665 -61.056  1.00  0.00    -0.062 A 
HETATM   29  C   UNL     1     -48.250  56.603 -61.693  1.00  0.00     0.048 C 
HETATM   30  C   UNL     1     -46.017  55.579 -61.173  1.00  0.00     0.007 A 
HETATM   31  C   UNL     1     -44.750  55.626 -60.588  1.00  0.00     0.016 A 
ENDBRANCH  23  25
ENDBRANCH   7  23
TORSDOF 7
ENDMDL
MODEL 4
REMARK VINA RESULT:      -7.7      1.969      6.510
REMARK  7 active torsions:
REMARK  status: ('A' for Active; 'I' for Inactive)
REMARK    1  A    between atoms: C_5  and  C_6 
REMARK    2  A    between atoms: C_6  and  C_7 
REMARK    3  A    between atoms: C_7  and  S_8 
REMARK    4  A    between atoms: S_8  and  C_9 
REMARK    5  A    between atoms: C_15  and  C_16 
REMARK    6  A    between atoms: C_16  and  C_17 
REMARK    7  A    between atoms: C_25  and  N_26 
ROOT
HETATM    1  C   UNL     1     -43.911  56.324 -51.705  1.00  0.00     0.116 A 
HETATM    2  N   UNL     1     -44.650  56.894 -50.740  1.00  0.00    -0.203 NA
HETATM    3  S   UNL     1     -45.268  58.344 -51.333  1.00  0.00     0.020 SA
HETATM    4  C   UNL     1     -44.542  58.204 -52.829  1.00  0.00     0.080 A 
HETATM    5  C   UNL     1     -43.832  57.068 -52.899  1.00  0.00     0.053 A 
HETATM    6  S   UNL     1     -44.510  59.118 -54.214  1.00  0.00    -0.074 SA
HETATM    7  C   UNL     1     -43.454  57.953 -54.977  1.00  0.00     0.084 A 
HETATM    8  C   UNL     1     -43.194  56.869 -54.137  1.00  0.00     0.062 A 
ENDROOT
BRANCH   1   9
HETATM    9  S   UNL     1     -43.116  54.787 -51.398  1.00  0.00    -0.101 SA
BRANCH   9  10
HETATM   10  C   UNL     1     -41.392  55.329 -51.241  1.00  0.00     0.164 C 
BRANCH  10  11
HETATM   11  C   UNL     1     -40.528  54.147 -50.859  1.00  0.00     0.169 C 
HETATM   12  O   UNL     1     -40.011  54.066 -49.745  1.00  0.00    -0.291 OA
BRANCH  11  13
HETATM   13  C   UNL     1     -40.279  53.064 -51.858  1.00  0.00     0.011 A 
HETATM   14  C   UNL     1     -40.498  53.235 -53.229  1.00  0.00     0.016 A 
HETATM   15  C   UNL     1     -40.241  52.186 -54.118  1.00  0.00     0.007 A 
HETATM   16  C   UNL     1     -39.760  50.958 -53.652  1.00  0.00    -0.062 A 
HETATM   17  C   UNL     1     -39.507  49.821 -54.600  1.00  0.00     0.048 C 
HETATM   18  C   UNL     1     -39.563  50.781 -52.278  1.00  0.00     0.007 A 
HETATM   19  C   UNL     1     -39.821  51.826 -51.388  1.00  0.00     0.016 A 
ENDBRANCH  11  13
ENDBRANCH  10  11
ENDBRANCH   9  10
ENDBRANCH   1   9
BRANCH   8  20
HETATM   20  N   UNL     1     -42.455  55.788 -54.467  1.00  0.00    -0.397 N 
HETATM   21  H   UNL     1     -41.679  55.446 -53.906  1.00  0.00     0.156 HD
HETATM   22  H   UNL     1     -42.408  55.459 -55.433  1.00  0.00     0.156 HD
ENDBRANCH   8  20
BRANCH   7  23
HETATM   23  C   UNL     1     -43.027  58.243 -56.337  1.00  0.00     0.201 C 
HETATM   24  O   UNL     1     -42.180  59.096 -56.606  1.00  0.00    -0.286 OA
BRANCH  23  25
HETATM   25  C   UNL     1     -43.611  57.483 -57.482  1.00  0.00     0.015 A 
HETATM   26  C   UNL     1     -44.834  57.834 -58.066  1.00  0.00     0.016 A 
HETATM   27  C   UNL     1     -45.355  57.078 -59.120  1.00  0.00     0.007 A 
HETATM   28  C   UNL     1     -44.673  55.949 -59.589  1.00  0.00    -0.062 A 
HETATM   29  C   UNL     1     -45.224  55.130 -60.720  1.00  0.00     0.048 C 
HETATM   30  C   UNL     1     -43.456  55.592 -58.998  1.00  0.00     0.007 A 
HETATM   31  C   UNL     1     -42.931  56.349 -57.948  1.00  0.00     0.016 A 
ENDBRANCH  23  25
ENDBRANCH   7  23
TORSDOF 7
ENDMDL
MODEL 5
REMARK VINA RESULT:      -7.6      2.336      6.910
REMARK  7 active torsions:
REMARK  status: ('A' for Active; 'I' for Inactive)
REMARK    1  A    between atoms: C_5  and  C_6 
REMARK    2  A    between atoms: C_6  and  C_7 
REMARK    3  A    between atoms: C_7  and  S_8 
REMARK    4  A    between atoms: S_8  and  C_9 
REMARK    5  A    between atoms: C_15  and  C_16 
REMARK    6  A    between atoms: C_16  and  C_17 
REMARK    7  A    between atoms: C_25  and  N_26 
ROOT
HETATM    1  C   UNL     1     -42.257  57.448 -52.228  1.00  0.00     0.116 A 
HETATM    2  N   UNL     1     -41.015  57.806 -51.865  1.00  0.00    -0.203 NA
HETATM    3  S   UNL     1     -40.392  58.831 -53.047  1.00  0.00     0.020 SA
HETATM    4  C   UNL     1     -41.751  58.768 -54.016  1.00  0.00     0.080 A 
HETATM    5  C   UNL     1     -42.684  57.982 -53.460  1.00  0.00     0.053 A 
HETATM    6  S   UNL     1     -42.199  59.448 -55.462  1.00  0.00    -0.074 SA
HETATM    7  C   UNL     1     -43.742  58.629 -55.386  1.00  0.00     0.084 A 
HETATM    8  C   UNL     1     -43.869  57.883 -54.213  1.00  0.00     0.062 A 
ENDROOT
BRANCH   1   9
HETATM    9  S   UNL     1     -43.187  56.368 -51.199  1.00  0.00    -0.101 SA
BRANCH   9  10
HETATM   10  C   UNL     1     -42.861  54.777 -52.006  1.00  0.00     0.164 C 
BRANCH  10  11
HETATM   11  C   UNL     1     -41.527  54.240 -51.536  1.00  0.00     0.169 C 
HETATM   12  O   UNL     1     -40.934  54.744 -50.582  1.00  0.00    -0.291 OA
BRANCH  11  13
HETATM   13  C   UNL     1     -40.904  53.086 -52.252  1.00  0.00     0.011 A 
HETATM   14  C   UNL     1     -40.042  52.182 -51.622  1.00  0.00     0.016 A 
HETATM   15  C   UNL     1     -39.492  51.116 -52.343  1.00  0.00     0.007 A 
HETATM   16  C   UNL     1     -39.798  50.937 -53.696  1.00  0.00    -0.062 A 
HETATM   17  C   UNL     1     -39.191  49.810 -54.480  1.00  0.00     0.048 C 
HETATM   18  C   UNL     1     -40.643  51.855 -54.330  1.00  0.00     0.007 A 
HETATM   19  C   UNL     1     -41.191  52.921 -53.614  1.00  0.00     0.016 A 
ENDBRANCH  11  13
ENDBRANCH  10  11
ENDBRANCH   9  10
ENDBRANCH   1   9
BRANCH   8  20
HETATM   20  N   UNL     1     -44.966  57.185 -53.850  1.00  0.00    -0.397 N 
HETATM   21  H   UNL     1     -45.007  56.592 -53.024  1.00  0.00     0.156 HD
HETATM   22  H   UNL     1     -45.686  56.946 -54.534  1.00  0.00     0.156 HD
ENDBRANCH   8  20
BRANCH   7  23
HETATM   23  C   UNL     1     -44.658  58.847 -56.495  1.00  0.00     0.201 C 
HETATM   24  O   UNL     1     -45.392  59.833 -56.573  1.00  0.00    -0.286 OA
BRANCH  23  25
HETATM   25  C   UNL     1     -44.727  57.858 -57.611  1.00  0.00     0.015 A 
HETATM   26  C   UNL     1     -45.818  57.793 -58.487  1.00  0.00     0.016 A 
HETATM   27  C   UNL     1     -45.850  56.834 -59.502  1.00  0.00     0.007 A 
HETATM   28  C   UNL     1     -44.806  55.913 -59.644  1.00  0.00    -0.062 A 
HETATM   29  C   UNL     1     -44.831  54.878 -60.732  1.00  0.00     0.048 C 
HETATM   30  C   UNL     1     -43.721  55.971 -58.762  1.00  0.00     0.007 A 
HETATM   31  C   UNL     1     -43.684  56.932 -57.749  1.00  0.00     0.016 A 
ENDBRANCH  23  25
ENDBRANCH   7  23
TORSDOF 7
ENDMDL
MODEL 6
REMARK VINA RESULT:      -7.5      3.798      6.218
REMARK  7 active torsions:
REMARK  status: ('A' for Active; 'I' for Inactive)
REMARK    1  A    between atoms: C_5  and  C_6 
REMARK    2  A    between atoms: C_6  and  C_7 
REMARK    3  A    between atoms: C_7  and  S_8 
REMARK    4  A    between atoms: S_8  and  C_9 
REMARK    5  A    between atoms: C_15  and  C_16 
REMARK    6  A    between atoms: C_16  and  C_17 
REMARK    7  A    between atoms: C_25  and  N_26 
ROOT
HETATM    1  C   UNL     1     -43.838  59.575 -53.051  1.00  0.00     0.116 A 
HETATM    2  N   UNL     1     -43.419  60.359 -54.057  1.00  0.00    -0.203 NA
HETATM    3  S   UNL     1     -42.023  59.682 -54.710  1.00  0.00     0.020 SA
HETATM    4  C   UNL     1     -41.986  58.391 -53.652  1.00  0.00     0.080 A 
HETATM    5  C   UNL     1     -43.022  58.454 -52.803  1.00  0.00     0.053 A 
HETATM    6  S   UNL     1     -40.995  57.078 -53.428  1.00  0.00    -0.074 SA
HETATM    7  C   UNL     1     -41.978  56.547 -52.083  1.00  0.00     0.084 A 
HETATM    8  C   UNL     1     -43.069  57.393 -51.881  1.00  0.00     0.062 A 
ENDROOT
BRANCH   1   9
HETATM    9  S   UNL     1     -45.283  60.013 -52.152  1.00  0.00    -0.101 SA
BRANCH   9  10
HETATM   10  C   UNL     1     -44.543  60.787 -50.688  1.00  0.00     0.164 C 
BRANCH  10  11
HETATM   11  C   UNL     1     -45.329  60.389 -49.458  1.00  0.00     0.169 C 
HETATM   12  O   UNL     1     -46.007  59.361 -49.436  1.00  0.00    -0.291 OA
BRANCH  11  13
HETATM   13  C   UNL     1     -45.301  61.267 -48.249  1.00  0.00     0.011 A 
HETATM   14  C   UNL     1     -45.091  62.648 -48.324  1.00  0.00     0.016 A 
HETATM   15  C   UNL     1     -45.080  63.421 -47.158  1.00  0.00     0.007 A 
HETATM   16  C   UNL     1     -45.283  62.828 -45.907  1.00  0.00    -0.062 A 
HETATM   17  C   UNL     1     -45.247  63.650 -44.651  1.00  0.00     0.048 C 
HETATM   18  C   UNL     1     -45.469  61.444 -45.832  1.00  0.00     0.007 A 
HETATM   19  C   UNL     1     -45.479  60.669 -46.994  1.00  0.00     0.016 A 
ENDBRANCH  11  13
ENDBRANCH  10  11
ENDBRANCH   9  10
ENDBRANCH   1   9
BRANCH   8  20
HETATM   20  N   UNL     1     -44.032  57.211 -50.950  1.00  0.00    -0.397 N 
HETATM   21  H   UNL     1     -44.391  57.959 -50.362  1.00  0.00     0.156 HD
HETATM   22  H   UNL     1     -44.213  56.286 -50.556  1.00  0.00     0.156 HD
ENDBRANCH   8  20
BRANCH   7  23
HETATM   23  C   UNL     1     -41.558  55.331 -51.402  1.00  0.00     0.201 C 
HETATM   24  O   UNL     1     -41.545  55.222 -50.175  1.00  0.00    -0.286 OA
BRANCH  23  25
HETATM   25  C   UNL     1     -41.132  54.140 -52.195  1.00  0.00     0.015 A 
HETATM   26  C   UNL     1     -41.703  53.824 -53.434  1.00  0.00     0.016 A 
HETATM   27  C   UNL     1     -41.289  52.684 -54.129  1.00  0.00     0.007 A 
HETATM   28  C   UNL     1     -40.318  51.834 -53.588  1.00  0.00    -0.062 A 
HETATM   29  C   UNL     1     -39.867  50.608 -54.327  1.00  0.00     0.048 C 
HETATM   30  C   UNL     1     -39.755  52.145 -52.345  1.00  0.00     0.007 A 
HETATM   31  C   UNL     1     -40.163  53.286 -51.650  1.00  0.00     0.016 A 
ENDBRANCH  23  25
ENDBRANCH   7  23
TORSDOF 7
ENDMDL
MODEL 7
REMARK VINA RESULT:      -7.5      2.473      7.015
REMARK  7 active torsions:
REMARK  status: ('A' for Active; 'I' for Inactive)
REMARK    1  A    between atoms: C_5  and  C_6 
REMARK    2  A    between atoms: C_6  and  C_7 
REMARK    3  A    between atoms: C_7  and  S_8 
REMARK    4  A    between atoms: S_8  and  C_9 
REMARK    5  A    between atoms: C_15  and  C_16 
REMARK    6  A    between atoms: C_16  and  C_17 
REMARK    7  A    between atoms: C_25  and  N_26 
ROOT
HETATM    1  C   UNL     1     -42.842  57.437 -52.042  1.00  0.00     0.116 A 
HETATM    2  N   UNL     1     -43.794  58.033 -51.307  1.00  0.00    -0.203 NA
HETATM    3  S   UNL     1     -45.030  58.526 -52.341  1.00  0.00     0.020 SA
HETATM    4  C   UNL     1     -44.284  57.967 -53.726  1.00  0.00     0.080 A 
HETATM    5  C   UNL     1     -43.105  57.404 -53.426  1.00  0.00     0.053 A 
HETATM    6  S   UNL     1     -44.666  57.940 -55.341  1.00  0.00    -0.074 SA
HETATM    7  C   UNL     1     -43.149  57.148 -55.702  1.00  0.00     0.084 A 
HETATM    8  C   UNL     1     -42.414  56.896 -54.542  1.00  0.00     0.062 A 
ENDROOT
BRANCH   1   9
HETATM    9  S   UNL     1     -41.401  56.810 -51.255  1.00  0.00    -0.101 SA
BRANCH   9  10
HETATM   10  C   UNL     1     -41.859  55.065 -51.065  1.00  0.00     0.164 C 
BRANCH  10  11
HETATM   11  C   UNL     1     -40.608  54.236 -50.873  1.00  0.00     0.169 C 
HETATM   12  O   UNL     1     -39.800  54.494 -49.981  1.00  0.00    -0.291 OA
BRANCH  11  13
HETATM   13  C   UNL     1     -40.333  53.092 -51.795  1.00  0.00     0.011 A 
HETATM   14  C   UNL     1     -39.765  51.890 -51.359  1.00  0.00     0.016 A 
HETATM   15  C   UNL     1     -39.536  50.851 -52.267  1.00  0.00     0.007 A 
HETATM   16  C   UNL     1     -39.875  50.996 -53.617  1.00  0.00    -0.062 A 
HETATM   17  C   UNL     1     -39.608  49.893 -54.600  1.00  0.00     0.048 C 
HETATM   18  C   UNL     1     -40.422  52.207 -54.056  1.00  0.00     0.007 A 
HETATM   19  C   UNL     1     -40.650  53.247 -53.152  1.00  0.00     0.016 A 
ENDBRANCH  11  13
ENDBRANCH  10  11
ENDBRANCH   9  10
ENDBRANCH   1   9
BRANCH   8  20
HETATM   20  N   UNL     1     -41.228  56.252 -54.497  1.00  0.00    -0.397 N 
HETATM   21  H   UNL     1     -40.698  55.995 -55.327  1.00  0.00     0.156 HD
HETATM   22  H   UNL     1     -40.961  55.700 -53.680  1.00  0.00     0.156 HD
ENDBRANCH   8  20
BRANCH   7  23
HETATM   23  C   UNL     1     -42.881  56.846 -57.099  1.00  0.00     0.201 C 
HETATM   24  O   UNL     1     -42.930  55.705 -57.560  1.00  0.00    -0.286 OA
BRANCH  23  25
HETATM   25  C   UNL     1     -42.540  57.948 -58.048  1.00  0.00     0.015 A 
HETATM   26  C   UNL     1     -42.053  59.186 -57.613  1.00  0.00     0.016 A 
HETATM   27  C   UNL     1     -41.771  60.196 -58.537  1.00  0.00     0.007 A 
HETATM   28  C   UNL     1     -41.992  59.993 -59.903  1.00  0.00    -0.062 A 
HETATM   29  C   UNL     1     -41.693  61.071 -60.903  1.00  0.00     0.048 C 
HETATM   30  C   UNL     1     -42.490  58.758 -60.337  1.00  0.00     0.007 A 
HETATM   31  C   UNL     1     -42.768  57.745 -59.417  1.00  0.00     0.016 A 
ENDBRANCH  23  25
ENDBRANCH   7  23
TORSDOF 7
ENDMDL
MODEL 8
REMARK VINA RESULT:      -7.5      2.222      3.170
REMARK  7 active torsions:
REMARK  status: ('A' for Active; 'I' for Inactive)
REMARK    1  A    between atoms: C_5  and  C_6 
REMARK    2  A    between atoms: C_6  and  C_7 
REMARK    3  A    between atoms: C_7  and  S_8 
REMARK    4  A    between atoms: S_8  and  C_9 
REMARK    5  A    between atoms: C_15  and  C_16 
REMARK    6  A    between atoms: C_16  and  C_17 
REMARK    7  A    between atoms: C_25  and  N_26 
ROOT
HETATM    1  C   UNL     1     -43.845  59.438 -53.837  1.00  0.00     0.116 A 
HETATM    2  N   UNL     1     -43.292  60.602 -53.459  1.00  0.00    -0.203 NA
HETATM    3  S   UNL     1     -42.257  60.301 -52.166  1.00  0.00     0.020 SA
HETATM    4  C   UNL     1     -42.567  58.661 -52.117  1.00  0.00     0.080 A 
HETATM    5  C   UNL     1     -43.447  58.324 -53.071  1.00  0.00     0.053 A 
HETATM    6  S   UNL     1     -42.039  57.390 -51.190  1.00  0.00    -0.074 SA
HETATM    7  C   UNL     1     -43.065  56.292 -52.085  1.00  0.00     0.084 A 
HETATM    8  C   UNL     1     -43.756  56.952 -53.103  1.00  0.00     0.062 A 
ENDROOT
BRANCH   1   9
HETATM    9  S   UNL     1     -44.988  59.410 -55.172  1.00  0.00    -0.101 SA
BRANCH   9  10
HETATM   10  C   UNL     1     -44.052  60.321 -56.431  1.00  0.00     0.164 C 
BRANCH  10  11
HETATM   11  C   UNL     1     -42.927  59.452 -56.946  1.00  0.00     0.169 C 
HETATM   12  O   UNL     1     -41.750  59.796 -56.836  1.00  0.00    -0.291 OA
BRANCH  11  13
HETATM   13  C   UNL     1     -43.246  58.157 -57.620  1.00  0.00     0.011 A 
HETATM   14  C   UNL     1     -42.782  56.924 -57.147  1.00  0.00     0.016 A 
HETATM   15  C   UNL     1     -43.118  55.743 -57.817  1.00  0.00     0.007 A 
HETATM   16  C   UNL     1     -43.924  55.776 -58.961  1.00  0.00    -0.062 A 
HETATM   17  C   UNL     1     -44.266  54.513 -59.696  1.00  0.00     0.048 C 
HETATM   18  C   UNL     1     -44.368  57.011 -59.445  1.00  0.00     0.007 A 
HETATM   19  C   UNL     1     -44.032  58.192 -58.780  1.00  0.00     0.016 A 
ENDBRANCH  11  13
ENDBRANCH  10  11
ENDBRANCH   9  10
ENDBRANCH   1   9
BRANCH   8  20
HETATM   20  N   UNL     1     -44.583  56.360 -53.992  1.00  0.00    -0.397 N 
HETATM   21  H   UNL     1     -45.333  56.851 -54.472  1.00  0.00     0.156 HD
HETATM   22  H   UNL     1     -44.722  55.348 -53.986  1.00  0.00     0.156 HD
ENDBRANCH   8  20
BRANCH   7  23
HETATM   23  C   UNL     1     -43.042  54.894 -51.682  1.00  0.00     0.201 C 
HETATM   24  O   UNL     1     -43.816  54.425 -50.848  1.00  0.00    -0.286 OA
BRANCH  23  25
HETATM   25  C   UNL     1     -42.058  53.956 -52.299  1.00  0.00     0.015 A 
HETATM   26  C   UNL     1     -42.097  53.618 -53.657  1.00  0.00     0.016 A 
HETATM   27  C   UNL     1     -41.169  52.715 -54.185  1.00  0.00     0.007 A 
HETATM   28  C   UNL     1     -40.205  52.123 -53.361  1.00  0.00    -0.062 A 
HETATM   29  C   UNL     1     -39.205  51.153 -53.918  1.00  0.00     0.048 C 
HETATM   30  C   UNL     1     -40.173  52.453 -52.001  1.00  0.00     0.007 A 
HETATM   31  C   UNL     1     -41.096  53.358 -51.472  1.00  0.00     0.016 A 
ENDBRANCH  23  25
ENDBRANCH   7  23
TORSDOF 7
ENDMDL
MODEL 9
REMARK VINA RESULT:      -7.2      3.649      4.778
REMARK  7 active torsions:
REMARK  status: ('A' for Active; 'I' for Inactive)
REMARK    1  A    between atoms: C_5  and  C_6 
REMARK    2  A    between atoms: C_6  and  C_7 
REMARK    3  A    between atoms: C_7  and  S_8 
REMARK    4  A    between atoms: S_8  and  C_9 
REMARK    5  A    between atoms: C_15  and  C_16 
REMARK    6  A    between atoms: C_16  and  C_17 
REMARK    7  A    between atoms: C_25  and  N_26 
ROOT
HETATM    1  C   UNL     1     -43.679  58.531 -55.102  1.00  0.00     0.116 A 
HETATM    2  N   UNL     1     -43.125  59.752 -55.165  1.00  0.00    -0.203 NA
HETATM    3  S   UNL     1     -41.841  59.809 -54.077  1.00  0.00     0.020 SA
HETATM    4  C   UNL     1     -42.050  58.244 -53.534  1.00  0.00     0.080 A 
HETATM    5  C   UNL     1     -43.080  57.664 -54.165  1.00  0.00     0.053 A 
HETATM    6  S   UNL     1     -41.284  57.267 -52.431  1.00  0.00    -0.074 SA
HETATM    7  C   UNL     1     -42.407  55.972 -52.776  1.00  0.00     0.084 A 
HETATM    8  C   UNL     1     -43.317  56.335 -53.770  1.00  0.00     0.062 A 
ENDROOT
BRANCH   1   9
HETATM    9  S   UNL     1     -45.058  58.147 -56.120  1.00  0.00    -0.101 SA
BRANCH   9  10
HETATM   10  C   UNL     1     -44.220  57.432 -57.561  1.00  0.00     0.164 C 
BRANCH  10  11
HETATM   11  C   UNL     1     -44.530  58.264 -58.786  1.00  0.00     0.169 C 
HETATM   12  O   UNL     1     -43.897  59.289 -59.040  1.00  0.00    -0.291 OA
BRANCH  11  13
HETATM   13  C   UNL     1     -45.638  57.848 -59.698  1.00  0.00     0.011 A 
HETATM   14  C   UNL     1     -45.890  56.509 -60.019  1.00  0.00     0.016 A 
HETATM   15  C   UNL     1     -46.945  56.179 -60.875  1.00  0.00     0.007 A 
HETATM   16  C   UNL     1     -47.764  57.176 -61.416  1.00  0.00    -0.062 A 
HETATM   17  C   UNL     1     -48.882  56.828 -62.355  1.00  0.00     0.048 C 
HETATM   18  C   UNL     1     -47.497  58.515 -61.112  1.00  0.00     0.007 A 
HETATM   19  C   UNL     1     -46.442  58.848 -60.260  1.00  0.00     0.016 A 
ENDBRANCH  11  13
ENDBRANCH  10  11
ENDBRANCH   9  10
ENDBRANCH   1   9
BRANCH   8  20
HETATM   20  N   UNL     1     -44.271  55.527 -54.284  1.00  0.00    -0.397 N 
HETATM   21  H   UNL     1     -44.249  55.169 -55.235  1.00  0.00     0.156 HD
HETATM   22  H   UNL     1     -45.209  55.501 -53.881  1.00  0.00     0.156 HD
ENDBRANCH   8  20
BRANCH   7  23
HETATM   23  C   UNL     1     -42.233  54.735 -52.031  1.00  0.00     0.201 C 
HETATM   24  O   UNL     1     -42.705  54.557 -50.908  1.00  0.00    -0.286 OA
BRANCH  23  25
HETATM   25  C   UNL     1     -41.463  53.604 -52.632  1.00  0.00     0.015 A 
HETATM   26  C   UNL     1     -41.691  53.156 -53.939  1.00  0.00     0.016 A 
HETATM   27  C   UNL     1     -40.963  52.078 -54.450  1.00  0.00     0.007 A 
HETATM   28  C   UNL     1     -40.016  51.419 -53.658  1.00  0.00    -0.062 A 
HETATM   29  C   UNL     1     -39.230  50.260 -54.198  1.00  0.00     0.048 C 
HETATM   30  C   UNL     1     -39.797  51.861 -52.348  1.00  0.00     0.007 A 
HETATM   31  C   UNL     1     -40.519  52.941 -51.836  1.00  0.00     0.016 A 
ENDBRANCH  23  25
ENDBRANCH   7  23
TORSDOF 7
ENDMDL
MODEL 10
REMARK VINA RESULT:      -7.2      4.131      8.585
REMARK  7 active torsions:
REMARK  status: ('A' for Active; 'I' for Inactive)
REMARK    1  A    between atoms: C_5  and  C_6 
REMARK    2  A    between atoms: C_6  and  C_7 
REMARK    3  A    between atoms: C_7  and  S_8 
REMARK    4  A    between atoms: S_8  and  C_9 
REMARK    5  A    between atoms: C_15  and  C_16 
REMARK    6  A    between atoms: C_16  and  C_17 
REMARK    7  A    between atoms: C_25  and  N_26 
ROOT
HETATM    1  C   UNL     1     -42.400  57.227 -55.100  1.00  0.00     0.116 A 
HETATM    2  N   UNL     1     -42.668  56.029 -55.641  1.00  0.00    -0.203 NA
HETATM    3  S   UNL     1     -42.971  56.245 -57.283  1.00  0.00     0.020 SA
HETATM    4  C   UNL     1     -42.764  57.902 -57.246  1.00  0.00     0.080 A 
HETATM    5  C   UNL     1     -42.463  58.306 -56.004  1.00  0.00     0.053 A 
HETATM    6  S   UNL     1     -42.832  59.123 -58.367  1.00  0.00    -0.074 SA
HETATM    7  C   UNL     1     -42.464  60.301 -57.129  1.00  0.00     0.084 A 
HETATM    8  C   UNL     1     -42.262  59.694 -55.888  1.00  0.00     0.062 A 
ENDROOT
BRANCH   1   9
HETATM    9  S   UNL     1     -42.042  57.346 -53.383  1.00  0.00    -0.101 SA
BRANCH   9  10
HETATM   10  C   UNL     1     -42.599  55.716 -52.813  1.00  0.00     0.164 C 
BRANCH  10  11
HETATM   11  C   UNL     1     -41.455  55.008 -52.123  1.00  0.00     0.169 C 
HETATM   12  O   UNL     1     -40.925  55.478 -51.116  1.00  0.00    -0.291 OA
BRANCH  11  13
HETATM   13  C   UNL     1     -40.940  53.721 -52.682  1.00  0.00     0.011 A 
HETATM   14  C   UNL     1     -41.218  53.300 -53.987  1.00  0.00     0.016 A 
HETATM   15  C   UNL     1     -40.704  52.087 -54.459  1.00  0.00     0.007 A 
HETATM   16  C   UNL     1     -39.904  51.284 -53.638  1.00  0.00    -0.062 A 
HETATM   17  C   UNL     1     -39.372  49.971 -54.132  1.00  0.00     0.048 C 
HETATM   18  C   UNL     1     -39.646  51.696 -52.326  1.00  0.00     0.007 A 
HETATM   19  C   UNL     1     -40.160  52.905 -51.852  1.00  0.00     0.016 A 
ENDBRANCH  11  13
ENDBRANCH  10  11
ENDBRANCH   9  10
ENDBRANCH   1   9
BRANCH   8  20
HETATM   20  N   UNL     1     -41.913  60.339 -54.754  1.00  0.00    -0.397 N 
HETATM   21  H   UNL     1     -41.376  61.203 -54.743  1.00  0.00     0.156 HD
HETATM   22  H   UNL     1     -41.871  59.845 -53.861  1.00  0.00     0.156 HD
ENDBRANCH   8  20
BRANCH   7  23
HETATM   23  C   UNL     1     -42.395  61.694 -57.545  1.00  0.00     0.201 C 
HETATM   24  O   UNL     1     -43.010  62.595 -56.974  1.00  0.00    -0.286 OA
BRANCH  23  25
HETATM   25  C   UNL     1     -41.539  62.084 -58.705  1.00  0.00     0.015 A 
HETATM   26  C   UNL     1     -40.212  62.503 -58.547  1.00  0.00     0.016 A 
HETATM   27  C   UNL     1     -39.457  62.883 -59.660  1.00  0.00     0.007 A 
HETATM   28  C   UNL     1     -40.021  62.871 -60.940  1.00  0.00    -0.062 A 
HETATM   29  C   UNL     1     -39.219  63.278 -62.142  1.00  0.00     0.048 C 
HETATM   30  C   UNL     1     -41.351  62.463 -61.096  1.00  0.00     0.007 A 
HETATM   31  C   UNL     1     -42.107  62.078 -59.986  1.00  0.00     0.016 A 
ENDBRANCH  23  25
ENDBRANCH   7  23
TORSDOF 7
ENDMDL
