MODEL 1
REMARK VINA RESULT:      -9.0      0.000      0.000
REMARK  4 active torsions:
REMARK  status: ('A' for Active; 'I' for Inactive)
REMARK    1  A    between atoms: O_2  and  C_3 
REMARK    2  A    between atoms: C_3  and  C_4 
REMARK    3  A    between atoms: N_11  and  C_13 
REMARK    4  A    between atoms: C_13  and  C_14 
ROOT
HETATM    1  C   UNL     1     -43.373  58.612 -54.237  1.00  0.00     0.290 C 
HETATM    2  N   UNL     1     -43.317  57.102 -53.789  1.00  0.00    -0.047 N 
HETATM    3  H   UNL     1     -44.296  56.879 -53.565  1.00  0.00     0.279 HD
HETATM    4  H   UNL     1     -42.784  57.114 -52.910  1.00  0.00     0.279 HD
HETATM    5  C   UNL     1     -42.800  56.077 -54.806  1.00  0.00     0.172 C 
HETATM    6  C   UNL     1     -41.261  56.034 -54.895  1.00  0.00     0.073 C 
HETATM    7  C   UNL     1     -40.577  55.544 -53.628  1.00  0.00     0.238 C 
HETATM    8  N   UNL     1     -41.120  54.183 -53.259  1.00  0.00    -0.067 N 
HETATM    9  H   UNL     1     -40.832  53.521 -53.995  1.00  0.00     0.280 HD
HETATM   10  C   UNL     1     -42.616  54.148 -53.114  1.00  0.00     0.238 C 
HETATM   11  C   UNL     1     -43.300  54.681 -54.369  1.00  0.00     0.073 C 
HETATM   12  C   UNL     1     -43.373  56.467 -56.140  1.00  0.00     0.053 A 
HETATM   13  C   UNL     1     -43.982  57.665 -56.468  1.00  0.00    -0.018 A 
HETATM   14  C   UNL     1     -44.215  58.773 -55.505  1.00  0.00     0.085 C 
HETATM   15  N   UNL     1     -43.341  55.703 -57.286  1.00  0.00    -0.356 N 
HETATM   16  H   UNL     1     -42.949  54.776 -57.402  1.00  0.00     0.166 HD
HETATM   17  C   UNL     1     -43.936  56.379 -58.326  1.00  0.00     0.043 A 
HETATM   18  C   UNL     1     -44.351  57.616 -57.840  1.00  0.00    -0.001 A 
HETATM   19  C   UNL     1     -44.135  55.985 -59.654  1.00  0.00     0.030 A 
HETATM   20  C   UNL     1     -44.779  56.885 -60.507  1.00  0.00     0.002 A 
HETATM   21  C   UNL     1     -45.205  58.129 -60.049  1.00  0.00     0.001 A 
HETATM   22  C   UNL     1     -44.999  58.508 -58.717  1.00  0.00     0.014 A 
ENDROOT
BRANCH   1  23
HETATM   23  C   UNL     1     -41.975  59.223 -54.252  1.00  0.00     0.289 C 
HETATM   24  O   UNL     1     -41.553  59.766 -55.273  1.00  0.00    -0.263 OA
BRANCH  23  25
HETATM   25  O   UNL     1     -41.298  59.039 -53.103  1.00  0.00    -0.325 OA
HETATM   26  C   UNL     1     -41.746  59.826 -51.992  1.00  0.00     0.213 C 
ENDBRANCH  23  25
ENDBRANCH   1  23
BRANCH   8  27
HETATM   27  C   UNL     1     -40.449  53.609 -51.998  1.00  0.00     0.273 C 
BRANCH  27  28
HETATM   28  C   UNL     1     -40.094  52.155 -52.114  1.00  0.00    -0.033 A 
HETATM   29  C   UNL     1     -39.930  51.568 -53.378  1.00  0.00     0.009 A 
HETATM   30  C   UNL     1     -39.623  50.212 -53.494  1.00  0.00     0.001 A 
HETATM   31  C   UNL     1     -39.477  49.430 -52.351  1.00  0.00     0.000 A 
HETATM   32  C   UNL     1     -39.628  50.004 -51.090  1.00  0.00     0.001 A 
HETATM   33  C   UNL     1     -39.933  51.360 -50.968  1.00  0.00     0.009 A 
ENDBRANCH  27  28
ENDBRANCH   8  27
TORSDOF 4
ENDMDL
MODEL 2
REMARK VINA RESULT:      -8.8      1.954      7.909
REMARK  4 active torsions:
REMARK  status: ('A' for Active; 'I' for Inactive)
REMARK    1  A    between atoms: O_2  and  C_3 
REMARK    2  A    between atoms: C_3  and  C_4 
REMARK    3  A    between atoms: N_11  and  C_13 
REMARK    4  A    between atoms: C_13  and  C_14 
ROOT
HETATM    1  C   UNL     1     -41.542  55.892 -51.420  1.00  0.00     0.290 C 
HETATM    2  N   UNL     1     -41.597  56.394 -52.913  1.00  0.00    -0.047 N 
HETATM    3  H   UNL     1     -40.630  56.687 -53.106  1.00  0.00     0.279 HD
HETATM    4  H   UNL     1     -42.184  57.237 -52.880  1.00  0.00     0.279 HD
HETATM    5  C   UNL     1     -42.029  55.387 -53.987  1.00  0.00     0.172 C 
HETATM    6  C   UNL     1     -43.558  55.205 -54.067  1.00  0.00     0.073 C 
HETATM    7  C   UNL     1     -44.311  56.445 -54.523  1.00  0.00     0.238 C 
HETATM    8  N   UNL     1     -43.766  56.901 -55.857  1.00  0.00    -0.067 N 
HETATM    9  H   UNL     1     -43.995  56.174 -56.553  1.00  0.00     0.280 HD
HETATM   10  C   UNL     1     -42.282  57.139 -55.854  1.00  0.00     0.238 C 
HETATM   11  C   UNL     1     -41.531  55.910 -55.354  1.00  0.00     0.073 C 
HETATM   12  C   UNL     1     -41.381  54.078 -53.636  1.00  0.00     0.053 A 
HETATM   13  C   UNL     1     -40.775  53.741 -52.438  1.00  0.00    -0.018 A 
HETATM   14  C   UNL     1     -40.624  54.673 -51.289  1.00  0.00     0.085 C 
HETATM   15  N   UNL     1     -41.326  52.963 -54.444  1.00  0.00    -0.356 N 
HETATM   16  H   UNL     1     -41.692  52.859 -55.382  1.00  0.00     0.166 HD
HETATM   17  C   UNL     1     -40.679  51.936 -53.795  1.00  0.00     0.043 A 
HETATM   18  C   UNL     1     -40.320  52.398 -52.531  1.00  0.00    -0.001 A 
HETATM   19  C   UNL     1     -40.390  50.640 -54.234  1.00  0.00     0.030 A 
HETATM   20  C   UNL     1     -39.710  49.794 -53.353  1.00  0.00     0.002 A 
HETATM   21  C   UNL     1     -39.337  50.229 -52.084  1.00  0.00     0.001 A 
HETATM   22  C   UNL     1     -39.635  51.529 -51.659  1.00  0.00     0.014 A 
ENDROOT
BRANCH   1  23
HETATM   23  C   UNL     1     -42.948  55.765 -50.841  1.00  0.00     0.289 C 
HETATM   24  O   UNL     1     -43.739  56.704 -50.934  1.00  0.00    -0.263 OA
BRANCH  23  25
HETATM   25  O   UNL     1     -43.160  54.598 -50.204  1.00  0.00    -0.325 OA
HETATM   26  C   UNL     1     -44.353  53.898 -50.584  1.00  0.00     0.213 C 
ENDBRANCH  23  25
ENDBRANCH   1  23
BRANCH   8  27
HETATM   27  C   UNL     1     -44.505  58.139 -56.397  1.00  0.00     0.273 C 
BRANCH  27  28
HETATM   28  C   UNL     1     -45.236  57.889 -57.683  1.00  0.00    -0.033 A 
HETATM   29  C   UNL     1     -46.560  58.329 -57.840  1.00  0.00     0.009 A 
HETATM   30  C   UNL     1     -47.254  58.081 -59.024  1.00  0.00     0.001 A 
HETATM   31  C   UNL     1     -46.634  57.391 -60.063  1.00  0.00     0.000 A 
HETATM   32  C   UNL     1     -45.317  56.958 -59.924  1.00  0.00     0.001 A 
HETATM   33  C   UNL     1     -44.618  57.206 -58.743  1.00  0.00     0.009 A 
ENDBRANCH  27  28
ENDBRANCH   8  27
TORSDOF 4
ENDMDL
MODEL 3
REMARK VINA RESULT:      -8.3      3.601      8.416
REMARK  4 active torsions:
REMARK  status: ('A' for Active; 'I' for Inactive)
REMARK    1  A    between atoms: O_2  and  C_3 
REMARK    2  A    between atoms: C_3  and  C_4 
REMARK    3  A    between atoms: N_11  and  C_13 
REMARK    4  A    between atoms: C_13  and  C_14 
ROOT
HETATM    1  C   UNL     1     -42.393  57.821 -54.303  1.00  0.00     0.290 C 
HETATM    2  N   UNL     1     -43.556  58.047 -53.265  1.00  0.00    -0.047 N 
HETATM    3  H   UNL     1     -44.317  57.452 -53.619  1.00  0.00     0.279 HD
HETATM    4  H   UNL     1     -43.832  59.028 -53.398  1.00  0.00     0.279 HD
HETATM    5  C   UNL     1     -43.285  57.679 -51.801  1.00  0.00     0.172 C 
HETATM    6  C   UNL     1     -42.492  58.761 -51.041  1.00  0.00     0.073 C 
HETATM    7  C   UNL     1     -43.237  60.075 -50.867  1.00  0.00     0.238 C 
HETATM    8  N   UNL     1     -44.559  59.816 -50.184  1.00  0.00    -0.067 N 
HETATM    9  H   UNL     1     -44.357  59.491 -49.225  1.00  0.00     0.280 HD
HETATM   10  C   UNL     1     -45.414  58.797 -50.885  1.00  0.00     0.238 C 
HETATM   11  C   UNL     1     -44.649  57.495 -51.098  1.00  0.00     0.073 C 
HETATM   12  C   UNL     1     -42.503  56.396 -51.817  1.00  0.00     0.053 A 
HETATM   13  C   UNL     1     -41.877  55.813 -52.905  1.00  0.00    -0.018 A 
HETATM   14  C   UNL     1     -41.924  56.363 -54.286  1.00  0.00     0.085 C 
HETATM   15  N   UNL     1     -42.235  55.601 -50.724  1.00  0.00    -0.356 N 
HETATM   16  H   UNL     1     -42.528  55.746 -49.765  1.00  0.00     0.166 HD
HETATM   17  C   UNL     1     -41.474  54.517 -51.098  1.00  0.00     0.043 A 
HETATM   18  C   UNL     1     -41.235  54.624 -52.466  1.00  0.00    -0.001 A 
HETATM   19  C   UNL     1     -40.983  53.457 -50.327  1.00  0.00     0.030 A 
HETATM   20  C   UNL     1     -40.228  52.479 -50.979  1.00  0.00     0.002 A 
HETATM   21  C   UNL     1     -39.974  52.559 -52.345  1.00  0.00     0.001 A 
HETATM   22  C   UNL     1     -40.472  53.626 -53.102  1.00  0.00     0.014 A 
ENDROOT
BRANCH   1  23
HETATM   23  C   UNL     1     -41.319  58.895 -54.155  1.00  0.00     0.289 C 
HETATM   24  O   UNL     1     -40.282  58.647 -53.540  1.00  0.00    -0.263 OA
BRANCH  23  25
HETATM   25  O   UNL     1     -41.670  60.079 -54.692  1.00  0.00    -0.325 OA
HETATM   26  C   UNL     1     -42.127  60.026 -56.050  1.00  0.00     0.213 C 
ENDBRANCH  23  25
ENDBRANCH   1  23
BRANCH   8  27
HETATM   27  C   UNL     1     -45.358  61.110 -49.947  1.00  0.00     0.273 C 
BRANCH  27  28
HETATM   28  C   UNL     1     -45.316  61.592 -48.526  1.00  0.00    -0.033 A 
HETATM   29  C   UNL     1     -45.501  60.689 -47.468  1.00  0.00     0.009 A 
HETATM   30  C   UNL     1     -45.485  61.134 -46.146  1.00  0.00     0.001 A 
HETATM   31  C   UNL     1     -45.284  62.483 -45.867  1.00  0.00     0.000 A 
HETATM   32  C   UNL     1     -45.089  63.388 -46.908  1.00  0.00     0.001 A 
HETATM   33  C   UNL     1     -45.101  62.948 -48.232  1.00  0.00     0.009 A 
ENDBRANCH  27  28
ENDBRANCH   8  27
TORSDOF 4
ENDMDL
MODEL 4
REMARK VINA RESULT:      -8.1      1.957      2.600
REMARK  4 active torsions:
REMARK  status: ('A' for Active; 'I' for Inactive)
REMARK    1  A    between atoms: O_2  and  C_3 
REMARK    2  A    between atoms: C_3  and  C_4 
REMARK    3  A    between atoms: N_11  and  C_13 
REMARK    4  A    between atoms: C_13  and  C_14 
ROOT
HETATM    1  C   UNL     1     -43.251  58.642 -54.184  1.00  0.00     0.290 C 
HETATM    2  N   UNL     1     -43.297  57.071 -54.299  1.00  0.00    -0.047 N 
HETATM    3  H   UNL     1     -44.282  56.874 -54.521  1.00  0.00     0.279 HD
HETATM    4  H   UNL     1     -43.113  56.738 -53.344  1.00  0.00     0.279 HD
HETATM    5  C   UNL     1     -42.412  56.409 -55.362  1.00  0.00     0.172 C 
HETATM    6  C   UNL     1     -40.942  56.262 -54.920  1.00  0.00     0.073 C 
HETATM    7  C   UNL     1     -40.734  55.314 -53.749  1.00  0.00     0.238 C 
HETATM    8  N   UNL     1     -41.318  53.963 -54.088  1.00  0.00    -0.067 N 
HETATM    9  H   UNL     1     -40.760  53.566 -54.860  1.00  0.00     0.280 HD
HETATM   10  C   UNL     1     -42.765  54.013 -54.494  1.00  0.00     0.238 C 
HETATM   11  C   UNL     1     -42.978  54.998 -55.638  1.00  0.00     0.073 C 
HETATM   12  C   UNL     1     -42.488  57.276 -56.587  1.00  0.00     0.053 A 
HETATM   13  C   UNL     1     -42.988  58.564 -56.668  1.00  0.00    -0.018 A 
HETATM   14  C   UNL     1     -43.593  59.297 -55.525  1.00  0.00     0.085 C 
HETATM   15  N   UNL     1     -42.020  56.945 -57.840  1.00  0.00    -0.356 N 
HETATM   16  H   UNL     1     -41.575  56.081 -58.127  1.00  0.00     0.166 HD
HETATM   17  C   UNL     1     -42.233  57.982 -58.718  1.00  0.00     0.043 A 
HETATM   18  C   UNL     1     -42.843  59.015 -58.008  1.00  0.00    -0.001 A 
HETATM   19  C   UNL     1     -41.930  58.080 -60.081  1.00  0.00     0.030 A 
HETATM   20  C   UNL     1     -42.265  59.269 -60.734  1.00  0.00     0.002 A 
HETATM   21  C   UNL     1     -42.876  60.317 -60.051  1.00  0.00     0.001 A 
HETATM   22  C   UNL     1     -43.172  60.204 -58.688  1.00  0.00     0.014 A 
ENDROOT
BRANCH   1  23
HETATM   23  C   UNL     1     -41.964  59.097 -53.501  1.00  0.00     0.289 C 
HETATM   24  O   UNL     1     -41.153  59.788 -54.115  1.00  0.00    -0.263 OA
BRANCH  23  25
HETATM   25  O   UNL     1     -41.824  58.615 -52.251  1.00  0.00    -0.325 OA
HETATM   26  C   UNL     1     -40.481  58.595 -51.747  1.00  0.00     0.213 C 
ENDBRANCH  23  25
ENDBRANCH   1  23
BRANCH   8  27
HETATM   27  C   UNL     1     -41.116  52.939 -52.956  1.00  0.00     0.273 C 
BRANCH  27  28
HETATM   28  C   UNL     1     -41.033  53.559 -51.592  1.00  0.00    -0.033 A 
HETATM   29  C   UNL     1     -39.820  53.553 -50.887  1.00  0.00     0.009 A 
HETATM   30  C   UNL     1     -39.740  54.108 -49.609  1.00  0.00     0.001 A 
HETATM   31  C   UNL     1     -40.870  54.673 -49.023  1.00  0.00     0.000 A 
HETATM   32  C   UNL     1     -42.078  54.694 -49.717  1.00  0.00     0.001 A 
HETATM   33  C   UNL     1     -42.163  54.143 -50.997  1.00  0.00     0.009 A 
ENDBRANCH  27  28
ENDBRANCH   8  27
TORSDOF 4
ENDMDL
MODEL 5
REMARK VINA RESULT:      -8.1      2.203      7.886
REMARK  4 active torsions:
REMARK  status: ('A' for Active; 'I' for Inactive)
REMARK    1  A    between atoms: O_2  and  C_3 
REMARK    2  A    between atoms: C_3  and  C_4 
REMARK    3  A    between atoms: N_11  and  C_13 
REMARK    4  A    between atoms: C_13  and  C_14 
ROOT
HETATM    1  C   UNL     1     -42.785  57.170 -51.356  1.00  0.00     0.290 C 
HETATM    2  N   UNL     1     -42.592  57.658 -52.842  1.00  0.00    -0.047 N 
HETATM    3  H   UNL     1     -41.664  58.103 -52.832  1.00  0.00     0.279 HD
HETATM    4  H   UNL     1     -43.297  58.396 -52.964  1.00  0.00     0.279 HD
HETATM    5  C   UNL     1     -42.616  56.596 -53.949  1.00  0.00     0.172 C 
HETATM    6  C   UNL     1     -44.042  56.170 -54.349  1.00  0.00     0.073 C 
HETATM    7  C   UNL     1     -44.864  57.273 -54.999  1.00  0.00     0.238 C 
HETATM    8  N   UNL     1     -44.120  57.812 -56.199  1.00  0.00    -0.067 N 
HETATM    9  H   UNL     1     -44.074  57.059 -56.902  1.00  0.00     0.280 HD
HETATM   10  C   UNL     1     -42.728  58.287 -55.885  1.00  0.00     0.238 C 
HETATM   11  C   UNL     1     -41.920  57.194 -55.193  1.00  0.00     0.073 C 
HETATM   12  C   UNL     1     -41.861  55.408 -53.422  1.00  0.00     0.053 A 
HETATM   13  C   UNL     1     -41.485  55.172 -52.111  1.00  0.00    -0.018 A 
HETATM   14  C   UNL     1     -41.737  56.115 -50.989  1.00  0.00     0.085 C 
HETATM   15  N   UNL     1     -41.457  54.318 -54.161  1.00  0.00    -0.356 N 
HETATM   16  H   UNL     1     -41.588  54.157 -55.152  1.00  0.00     0.166 HD
HETATM   17  C   UNL     1     -40.813  53.408 -53.354  1.00  0.00     0.043 A 
HETATM   18  C   UNL     1     -40.815  53.920 -52.058  1.00  0.00    -0.001 A 
HETATM   19  C   UNL     1     -40.235  52.175 -53.676  1.00  0.00     0.030 A 
HETATM   20  C   UNL     1     -39.639  51.449 -52.641  1.00  0.00     0.002 A 
HETATM   21  C   UNL     1     -39.625  51.937 -51.337  1.00  0.00     0.001 A 
HETATM   22  C   UNL     1     -40.208  53.171 -51.031  1.00  0.00     0.014 A 
ENDROOT
BRANCH   1  23
HETATM   23  C   UNL     1     -44.245  56.817 -51.088  1.00  0.00     0.289 C 
HETATM   24  O   UNL     1     -44.532  55.738 -50.571  1.00  0.00    -0.263 OA
BRANCH  23  25
HETATM   25  O   UNL     1     -45.110  57.753 -51.526  1.00  0.00    -0.325 OA
HETATM   26  C   UNL     1     -45.404  58.801 -50.593  1.00  0.00     0.213 C 
ENDBRANCH  23  25
ENDBRANCH   1  23
BRANCH   8  27
HETATM   27  C   UNL     1     -44.908  58.916 -56.927  1.00  0.00     0.273 C 
BRANCH  27  28
HETATM   28  C   UNL     1     -45.618  58.435 -58.159  1.00  0.00    -0.033 A 
HETATM   29  C   UNL     1     -45.174  57.282 -58.825  1.00  0.00     0.009 A 
HETATM   30  C   UNL     1     -45.814  56.842 -59.983  1.00  0.00     0.001 A 
HETATM   31  C   UNL     1     -46.903  57.548 -60.488  1.00  0.00     0.000 A 
HETATM   32  C   UNL     1     -47.360  58.688 -59.831  1.00  0.00     0.001 A 
HETATM   33  C   UNL     1     -46.724  59.132 -58.670  1.00  0.00     0.009 A 
ENDBRANCH  27  28
ENDBRANCH   8  27
TORSDOF 4
ENDMDL
MODEL 6
REMARK VINA RESULT:      -8.0      2.308      4.553
REMARK  4 active torsions:
REMARK  status: ('A' for Active; 'I' for Inactive)
REMARK    1  A    between atoms: O_2  and  C_3 
REMARK    2  A    between atoms: C_3  and  C_4 
REMARK    3  A    between atoms: N_11  and  C_13 
REMARK    4  A    between atoms: C_13  and  C_14 
ROOT
HETATM    1  C   UNL     1     -43.130  58.512 -56.938  1.00  0.00     0.290 C 
HETATM    2  N   UNL     1     -42.111  57.709 -56.044  1.00  0.00    -0.047 N 
HETATM    3  H   UNL     1     -41.402  58.411 -55.794  1.00  0.00     0.279 HD
HETATM    4  H   UNL     1     -41.677  57.036 -56.690  1.00  0.00     0.279 HD
HETATM    5  C   UNL     1     -42.645  57.068 -54.757  1.00  0.00     0.172 C 
HETATM    6  C   UNL     1     -43.373  55.732 -55.002  1.00  0.00     0.073 C 
HETATM    7  C   UNL     1     -42.477  54.618 -55.521  1.00  0.00     0.238 C 
HETATM    8  N   UNL     1     -41.322  54.419 -54.567  1.00  0.00    -0.067 N 
HETATM    9  H   UNL     1     -41.707  54.064 -53.678  1.00  0.00     0.280 HD
HETATM   10  C   UNL     1     -40.532  55.671 -54.304  1.00  0.00     0.238 C 
HETATM   11  C   UNL     1     -41.440  56.800 -53.826  1.00  0.00     0.073 C 
HETATM   12  C   UNL     1     -43.595  58.058 -54.145  1.00  0.00     0.053 A 
HETATM   13  C   UNL     1     -44.133  59.181 -54.748  1.00  0.00    -0.018 A 
HETATM   14  C   UNL     1     -43.805  59.623 -56.130  1.00  0.00     0.085 C 
HETATM   15  N   UNL     1     -44.134  57.983 -52.879  1.00  0.00    -0.356 N 
HETATM   16  H   UNL     1     -43.966  57.273 -52.176  1.00  0.00     0.166 HD
HETATM   17  C   UNL     1     -44.982  59.043 -52.658  1.00  0.00     0.043 A 
HETATM   18  C   UNL     1     -45.000  59.815 -53.817  1.00  0.00    -0.001 A 
HETATM   19  C   UNL     1     -45.730  59.371 -51.522  1.00  0.00     0.030 A 
HETATM   20  C   UNL     1     -46.517  60.525 -51.576  1.00  0.00     0.002 A 
HETATM   21  C   UNL     1     -46.554  61.316 -52.721  1.00  0.00     0.001 A 
HETATM   22  C   UNL     1     -45.800  60.974 -53.849  1.00  0.00     0.014 A 
ENDROOT
BRANCH   1  23
HETATM   23  C   UNL     1     -44.045  57.560 -57.703  1.00  0.00     0.289 C 
HETATM   24  O   UNL     1     -45.266  57.645 -57.576  1.00  0.00    -0.263 OA
BRANCH  23  25
HETATM   25  O   UNL     1     -43.376  56.644 -58.429  1.00  0.00    -0.325 OA
HETATM   26  C   UNL     1     -42.624  57.163 -59.533  1.00  0.00     0.213 C 
ENDBRANCH  23  25
ENDBRANCH   1  23
BRANCH   8  27
HETATM   27  C   UNL     1     -40.385  53.282 -55.014  1.00  0.00     0.273 C 
BRANCH  27  28
HETATM   28  C   UNL     1     -40.136  52.254 -53.950  1.00  0.00    -0.033 A 
HETATM   29  C   UNL     1     -40.052  52.639 -52.602  1.00  0.00     0.009 A 
HETATM   30  C   UNL     1     -39.798  51.692 -51.610  1.00  0.00     0.001 A 
HETATM   31  C   UNL     1     -39.626  50.353 -51.952  1.00  0.00     0.000 A 
HETATM   32  C   UNL     1     -39.718  49.957 -53.284  1.00  0.00     0.001 A 
HETATM   33  C   UNL     1     -39.973  50.899 -54.281  1.00  0.00     0.009 A 
ENDBRANCH  27  28
ENDBRANCH   8  27
TORSDOF 4
ENDMDL
MODEL 7
REMARK VINA RESULT:      -8.0      2.472      4.722
REMARK  4 active torsions:
REMARK  status: ('A' for Active; 'I' for Inactive)
REMARK    1  A    between atoms: O_2  and  C_3 
REMARK    2  A    between atoms: C_3  and  C_4 
REMARK    3  A    between atoms: N_11  and  C_13 
REMARK    4  A    between atoms: C_13  and  C_14 
ROOT
HETATM    1  C   UNL     1     -41.524  56.875 -54.260  1.00  0.00     0.290 C 
HETATM    2  N   UNL     1     -41.024  56.407 -52.841  1.00  0.00    -0.047 N 
HETATM    3  H   UNL     1     -40.407  57.172 -52.536  1.00  0.00     0.279 HD
HETATM    4  H   UNL     1     -40.438  55.584 -53.033  1.00  0.00     0.279 HD
HETATM    5  C   UNL     1     -42.082  56.166 -51.756  1.00  0.00     0.172 C 
HETATM    6  C   UNL     1     -42.780  54.798 -51.883  1.00  0.00     0.073 C 
HETATM    7  C   UNL     1     -41.863  53.606 -51.652  1.00  0.00     0.238 C 
HETATM    8  N   UNL     1     -41.204  53.736 -50.299  1.00  0.00    -0.067 N 
HETATM    9  H   UNL     1     -41.941  53.653 -49.582  1.00  0.00     0.280 HD
HETATM   10  C   UNL     1     -40.466  55.031 -50.107  1.00  0.00     0.238 C 
HETATM   11  C   UNL     1     -41.374  56.224 -50.383  1.00  0.00     0.073 C 
HETATM   12  C   UNL     1     -43.096  57.267 -51.893  1.00  0.00     0.053 A 
HETATM   13  C   UNL     1     -43.241  58.141 -52.956  1.00  0.00    -0.018 A 
HETATM   14  C   UNL     1     -42.353  58.158 -54.148  1.00  0.00     0.085 C 
HETATM   15  N   UNL     1     -44.095  57.559 -50.991  1.00  0.00    -0.356 N 
HETATM   16  H   UNL     1     -44.289  57.098 -50.109  1.00  0.00     0.166 HD
HETATM   17  C   UNL     1     -44.855  58.612 -51.446  1.00  0.00     0.043 A 
HETATM   18  C   UNL     1     -44.339  59.000 -52.680  1.00  0.00    -0.001 A 
HETATM   19  C   UNL     1     -45.956  59.244 -50.856  1.00  0.00     0.030 A 
HETATM   20  C   UNL     1     -46.542  60.305 -51.552  1.00  0.00     0.002 A 
HETATM   21  C   UNL     1     -46.047  60.715 -52.786  1.00  0.00     0.001 A 
HETATM   22  C   UNL     1     -44.945  60.072 -53.363  1.00  0.00     0.014 A 
ENDROOT
BRANCH   1  23
HETATM   23  C   UNL     1     -42.150  55.712 -55.023  1.00  0.00     0.289 C 
HETATM   24  O   UNL     1     -41.608  54.607 -55.013  1.00  0.00    -0.263 OA
BRANCH  23  25
HETATM   25  O   UNL     1     -43.255  56.056 -55.711  1.00  0.00    -0.325 OA
HETATM   26  C   UNL     1     -43.133  56.000 -57.138  1.00  0.00     0.213 C 
ENDBRANCH  23  25
ENDBRANCH   1  23
BRANCH   8  27
HETATM   27  C   UNL     1     -40.281  52.544 -49.983  1.00  0.00     0.273 C 
BRANCH  27  28
HETATM   28  C   UNL     1     -39.991  51.675 -51.172  1.00  0.00    -0.033 A 
HETATM   29  C   UNL     1     -39.792  52.252 -52.436  1.00  0.00     0.009 A 
HETATM   30  C   UNL     1     -39.545  51.449 -53.549  1.00  0.00     0.001 A 
HETATM   31  C   UNL     1     -39.494  50.064 -53.413  1.00  0.00     0.000 A 
HETATM   32  C   UNL     1     -39.681  49.480 -52.162  1.00  0.00     0.001 A 
HETATM   33  C   UNL     1     -39.926  50.279 -51.044  1.00  0.00     0.009 A 
ENDBRANCH  27  28
ENDBRANCH   8  27
TORSDOF 4
ENDMDL
MODEL 8
REMARK VINA RESULT:      -8.0      2.429      7.808
REMARK  4 active torsions:
REMARK  status: ('A' for Active; 'I' for Inactive)
REMARK    1  A    between atoms: O_2  and  C_3 
REMARK    2  A    between atoms: C_3  and  C_4 
REMARK    3  A    between atoms: N_11  and  C_13 
REMARK    4  A    between atoms: C_13  and  C_14 
ROOT
HETATM    1  C   UNL     1     -43.739  55.730 -55.061  1.00  0.00     0.290 C 
HETATM    2  N   UNL     1     -44.228  56.209 -53.641  1.00  0.00    -0.047 N 
HETATM    3  H   UNL     1     -44.954  55.524 -53.391  1.00  0.00     0.279 HD
HETATM    4  H   UNL     1     -44.689  57.111 -53.819  1.00  0.00     0.279 HD
HETATM    5  C   UNL     1     -43.192  56.262 -52.512  1.00  0.00     0.172 C 
HETATM    6  C   UNL     1     -42.310  57.525 -52.556  1.00  0.00     0.073 C 
HETATM    7  C   UNL     1     -43.066  58.822 -52.306  1.00  0.00     0.238 C 
HETATM    8  N   UNL     1     -43.790  58.733 -50.984  1.00  0.00    -0.067 N 
HETATM    9  H   UNL     1     -43.078  58.688 -50.239  1.00  0.00     0.280 HD
HETATM   10  C   UNL     1     -44.704  57.544 -50.873  1.00  0.00     0.238 C 
HETATM   11  C   UNL     1     -43.955  56.249 -51.168  1.00  0.00     0.073 C 
HETATM   12  C   UNL     1     -42.331  55.039 -52.660  1.00  0.00     0.053 A 
HETATM   13  C   UNL     1     -42.263  54.193 -53.754  1.00  0.00    -0.018 A 
HETATM   14  C   UNL     1     -43.097  54.343 -54.976  1.00  0.00     0.085 C 
HETATM   15  N   UNL     1     -41.417  54.579 -51.737  1.00  0.00    -0.356 N 
HETATM   16  H   UNL     1     -41.199  54.976 -50.831  1.00  0.00     0.166 HD
HETATM   17  C   UNL     1     -40.789  53.450 -52.210  1.00  0.00     0.043 A 
HETATM   18  C   UNL     1     -41.303  53.183 -53.477  1.00  0.00    -0.001 A 
HETATM   19  C   UNL     1     -39.808  52.651 -51.610  1.00  0.00     0.030 A 
HETATM   20  C   UNL     1     -39.344  51.547 -52.329  1.00  0.00     0.002 A 
HETATM   21  C   UNL     1     -39.840  51.255 -53.597  1.00  0.00     0.001 A 
HETATM   22  C   UNL     1     -40.820  52.064 -54.183  1.00  0.00     0.014 A 
ENDROOT
BRANCH   1  23
HETATM   23  C   UNL     1     -42.932  56.825 -55.752  1.00  0.00     0.289 C 
HETATM   24  O   UNL     1     -41.751  56.630 -56.040  1.00  0.00    -0.263 OA
BRANCH  23  25
HETATM   25  O   UNL     1     -43.622  57.968 -55.928  1.00  0.00    -0.325 OA
HETATM   26  C   UNL     1     -44.603  57.939 -56.973  1.00  0.00     0.213 C 
ENDBRANCH  23  25
ENDBRANCH   1  23
BRANCH   8  27
HETATM   27  C   UNL     1     -44.555  60.027 -50.649  1.00  0.00     0.273 C 
BRANCH  27  28
HETATM   28  C   UNL     1     -44.809  60.901 -51.842  1.00  0.00    -0.033 A 
HETATM   29  C   UNL     1     -45.892  60.636 -52.694  1.00  0.00     0.009 A 
HETATM   30  C   UNL     1     -46.121  61.431 -53.818  1.00  0.00     0.001 A 
HETATM   31  C   UNL     1     -45.272  62.498 -54.101  1.00  0.00     0.000 A 
HETATM   32  C   UNL     1     -44.199  62.777 -53.257  1.00  0.00     0.001 A 
HETATM   33  C   UNL     1     -43.967  61.987 -52.131  1.00  0.00     0.009 A 
ENDBRANCH  27  28
ENDBRANCH   8  27
TORSDOF 4
ENDMDL
MODEL 9
REMARK VINA RESULT:      -7.6     15.199     18.246
REMARK  4 active torsions:
REMARK  status: ('A' for Active; 'I' for Inactive)
REMARK    1  A    between atoms: O_2  and  C_3 
REMARK    2  A    between atoms: C_3  and  C_4 
REMARK    3  A    between atoms: N_11  and  C_13 
REMARK    4  A    between atoms: C_13  and  C_14 
ROOT
HETATM    1  C   UNL     1     -37.304  41.927 -52.943  1.00  0.00     0.290 C 
HETATM    2  N   UNL     1     -36.742  42.078 -54.408  1.00  0.00    -0.047 N 
HETATM    3  H   UNL     1     -36.270  42.992 -54.393  1.00  0.00     0.279 HD
HETATM    4  H   UNL     1     -37.580  42.163 -54.997  1.00  0.00     0.279 HD
HETATM    5  C   UNL     1     -35.749  41.019 -54.902  1.00  0.00     0.172 C 
HETATM    6  C   UNL     1     -36.432  39.721 -55.374  1.00  0.00     0.073 C 
HETATM    7  C   UNL     1     -37.304  39.888 -56.610  1.00  0.00     0.238 C 
HETATM    8  N   UNL     1     -36.481  40.485 -57.727  1.00  0.00    -0.067 N 
HETATM    9  H   UNL     1     -35.765  39.791 -57.993  1.00  0.00     0.280 HD
HETATM   10  C   UNL     1     -35.809  41.778 -57.360  1.00  0.00     0.238 C 
HETATM   11  C   UNL     1     -34.971  41.620 -56.095  1.00  0.00     0.073 C 
HETATM   12  C   UNL     1     -34.831  40.719 -53.751  1.00  0.00     0.053 A 
HETATM   13  C   UNL     1     -35.013  41.071 -52.424  1.00  0.00    -0.018 A 
HETATM   14  C   UNL     1     -36.162  41.873 -51.925  1.00  0.00     0.085 C 
HETATM   15  N   UNL     1     -33.665  39.988 -53.818  1.00  0.00    -0.356 N 
HETATM   16  H   UNL     1     -33.247  39.562 -54.636  1.00  0.00     0.166 HD
HETATM   17  C   UNL     1     -33.092  39.890 -52.571  1.00  0.00     0.043 A 
HETATM   18  C   UNL     1     -33.918  40.564 -51.674  1.00  0.00    -0.001 A 
HETATM   19  C   UNL     1     -31.909  39.255 -52.175  1.00  0.00     0.030 A 
HETATM   20  C   UNL     1     -31.563  39.316 -50.823  1.00  0.00     0.002 A 
HETATM   21  C   UNL     1     -32.368  39.984 -49.904  1.00  0.00     0.001 A 
HETATM   22  C   UNL     1     -33.549  40.613 -50.316  1.00  0.00     0.014 A 
ENDROOT
BRANCH   1  23
HETATM   23  C   UNL     1     -38.344  40.813 -52.876  1.00  0.00     0.289 C 
HETATM   24  O   UNL     1     -38.090  39.770 -52.274  1.00  0.00    -0.263 OA
BRANCH  23  25
HETATM   25  O   UNL     1     -39.466  41.085 -53.570  1.00  0.00    -0.325 OA
HETATM   26  C   UNL     1     -40.615  41.410 -52.778  1.00  0.00     0.213 C 
ENDBRANCH  23  25
ENDBRANCH   1  23
BRANCH   8  27
HETATM   27  C   UNL     1     -37.293  40.655 -59.024  1.00  0.00     0.273 C 
BRANCH  27  28
HETATM   28  C   UNL     1     -36.911  39.686 -60.105  1.00  0.00    -0.033 A 
HETATM   29  C   UNL     1     -35.820  38.822 -59.925  1.00  0.00     0.009 A 
HETATM   30  C   UNL     1     -35.445  37.935 -60.934  1.00  0.00     0.001 A 
HETATM   31  C   UNL     1     -36.156  37.901 -62.131  1.00  0.00     0.000 A 
HETATM   32  C   UNL     1     -37.248  38.746 -62.318  1.00  0.00     0.001 A 
HETATM   33  C   UNL     1     -37.628  39.634 -61.311  1.00  0.00     0.009 A 
ENDBRANCH  27  28
ENDBRANCH   8  27
TORSDOF 4
ENDMDL
MODEL 10
REMARK VINA RESULT:      -7.5      2.418      5.330
REMARK  4 active torsions:
REMARK  status: ('A' for Active; 'I' for Inactive)
REMARK    1  A    between atoms: O_2  and  C_3 
REMARK    2  A    between atoms: C_3  and  C_4 
REMARK    3  A    between atoms: N_11  and  C_13 
REMARK    4  A    between atoms: C_13  and  C_14 
ROOT
HETATM    1  C   UNL     1     -43.076  59.685 -56.161  1.00  0.00     0.290 C 
HETATM    2  N   UNL     1     -42.149  58.553 -55.576  1.00  0.00    -0.047 N 
HETATM    3  H   UNL     1     -41.199  58.922 -55.717  1.00  0.00     0.279 HD
HETATM    4  H   UNL     1     -42.280  57.758 -56.214  1.00  0.00     0.279 HD
HETATM    5  C   UNL     1     -42.320  58.188 -54.097  1.00  0.00     0.172 C 
HETATM    6  C   UNL     1     -43.512  57.246 -53.839  1.00  0.00     0.073 C 
HETATM    7  C   UNL     1     -43.360  55.863 -54.455  1.00  0.00     0.238 C 
HETATM    8  N   UNL     1     -42.078  55.234 -53.964  1.00  0.00    -0.067 N 
HETATM    9  H   UNL     1     -42.179  55.068 -52.951  1.00  0.00     0.280 HD
HETATM   10  C   UNL     1     -40.857  56.075 -54.213  1.00  0.00     0.238 C 
HETATM   11  C   UNL     1     -41.029  57.474 -53.633  1.00  0.00     0.073 C 
HETATM   12  C   UNL     1     -42.525  59.478 -53.354  1.00  0.00     0.053 A 
HETATM   13  C   UNL     1     -42.816  60.717 -53.899  1.00  0.00    -0.018 A 
HETATM   14  C   UNL     1     -42.927  60.981 -55.358  1.00  0.00     0.085 C 
HETATM   15  N   UNL     1     -42.505  59.634 -51.986  1.00  0.00    -0.356 N 
HETATM   16  H   UNL     1     -42.340  58.922 -51.284  1.00  0.00     0.166 HD
HETATM   17  C   UNL     1     -42.754  60.945 -51.651  1.00  0.00     0.043 A 
HETATM   18  C   UNL     1     -42.952  61.651 -52.836  1.00  0.00    -0.001 A 
HETATM   19  C   UNL     1     -42.818  61.553 -50.392  1.00  0.00     0.030 A 
HETATM   20  C   UNL     1     -43.090  62.922 -50.348  1.00  0.00     0.002 A 
HETATM   21  C   UNL     1     -43.291  63.653 -51.516  1.00  0.00     0.001 A 
HETATM   22  C   UNL     1     -43.224  63.031 -52.767  1.00  0.00     0.014 A 
ENDROOT
BRANCH   1  23
HETATM   23  C   UNL     1     -44.494  59.165 -56.377  1.00  0.00     0.289 C 
HETATM   24  O   UNL     1     -44.677  58.123 -57.006  1.00  0.00    -0.263 OA
BRANCH  23  25
HETATM   25  O   UNL     1     -45.444  59.979 -55.880  1.00  0.00    -0.325 OA
HETATM   26  C   UNL     1     -46.275  60.622 -56.856  1.00  0.00     0.213 C 
ENDBRANCH  23  25
ENDBRANCH   1  23
BRANCH   8  27
HETATM   27  C   UNL     1     -41.872  53.815 -54.525  1.00  0.00     0.273 C 
BRANCH  27  28
HETATM   28  C   UNL     1     -41.007  52.945 -53.660  1.00  0.00    -0.033 A 
HETATM   29  C   UNL     1     -40.816  53.264 -52.307  1.00  0.00     0.009 A 
HETATM   30  C   UNL     1     -39.996  52.473 -51.502  1.00  0.00     0.001 A 
HETATM   31  C   UNL     1     -39.360  51.357 -52.039  1.00  0.00     0.000 A 
HETATM   32  C   UNL     1     -39.550  51.024 -53.378  1.00  0.00     0.001 A 
HETATM   33  C   UNL     1     -40.371  51.810 -54.187  1.00  0.00     0.009 A 
ENDBRANCH  27  28
ENDBRANCH   8  27
TORSDOF 4
ENDMDL
