MODEL 1
REMARK VINA RESULT:      -8.8      0.000      0.000
REMARK  3 active torsions:
REMARK  status: ('A' for Active; 'I' for Inactive)
REMARK    1  A    between atoms: C_6  and  C_7 
REMARK    2  A    between atoms: C_14  and  N_15 
REMARK    3  A    between atoms: N_15  and  C_16 
ROOT
HETATM    1  C   UNL     1     -43.600  57.072 -51.178  1.00  0.00     0.001 A 
HETATM    2  C   UNL     1     -42.627  56.526 -52.013  1.00  0.00     0.018 A 
HETATM    3  C   UNL     1     -42.787  56.539 -53.422  1.00  0.00     0.039 A 
HETATM    4  C   UNL     1     -43.943  57.097 -53.979  1.00  0.00     0.073 A 
HETATM    5  N   UNL     1     -44.170  57.132 -55.296  1.00  0.00    -0.228 NA
HETATM    6  C   UNL     1     -43.239  56.598 -56.100  1.00  0.00     0.164 A 
HETATM    7  N   UNL     1     -42.099  56.036 -55.672  1.00  0.00    -0.210 NA
HETATM    8  C   UNL     1     -41.869  56.012 -54.348  1.00  0.00     0.143 A 
HETATM    9  C   UNL     1     -44.899  57.636 -53.126  1.00  0.00     0.032 A 
HETATM   10  C   UNL     1     -44.739  57.632 -51.738  1.00  0.00     0.002 A 
ENDROOT
BRANCH   8  11
HETATM   11  N   UNL     1     -40.647  55.460 -53.874  1.00  0.00    -0.340 N 
HETATM   12  H   UNL     1     -39.879  55.882 -54.385  1.00  0.00     0.167 HD
BRANCH  11  13
HETATM   13  C   UNL     1     -40.391  54.107 -53.556  1.00  0.00     0.036 A 
HETATM   14  C   UNL     1     -40.348  53.709 -52.211  1.00  0.00     0.069 A 
HETATM   15  C   UNL     1     -40.156  52.369 -51.871  1.00  0.00     0.104 A 
HETATM   16  C   UNL     1     -40.004  51.404 -52.869  1.00  0.00     0.102 A 
HETATM   17  O   UNL     1     -40.123  52.074 -50.530  1.00  0.00    -0.346 OA
HETATM   18  O   UNL     1     -39.783  50.077 -52.608  1.00  0.00    -0.346 OA
HETATM   19  C   UNL     1     -40.092  51.775 -54.206  1.00  0.00     0.042 A 
HETATM   20  C   UNL     1     -39.374  49.876 -51.251  1.00  0.00     0.202 C 
HETATM   21  C   UNL     1     -40.260  50.667 -50.302  1.00  0.00     0.202 C 
HETATM   22  C   UNL     1     -40.291  53.116 -54.544  1.00  0.00     0.032 A 
ENDBRANCH  11  13
ENDBRANCH   8  11
BRANCH   6  23
HETATM   23  C   UNL     1     -43.468  56.644 -57.550  1.00  0.00     0.029 A 
HETATM   24  C   UNL     1     -43.967  57.783 -58.183  1.00  0.00     0.131 A 
HETATM   25  N   UNL     1     -44.200  57.901 -59.518  1.00  0.00    -0.272 NA
HETATM   26  C   UNL     1     -43.918  56.823 -60.277  1.00  0.00     0.116 A 
HETATM   27  C   UNL     1     -43.420  55.639 -59.767  1.00  0.00     0.020 A 
HETATM   28  C   UNL     1     -43.196  55.553 -58.393  1.00  0.00     0.018 A 
ENDBRANCH   6  23
TORSDOF 3
ENDMDL
MODEL 2
REMARK VINA RESULT:      -8.5      3.485      7.379
REMARK  3 active torsions:
REMARK  status: ('A' for Active; 'I' for Inactive)
REMARK    1  A    between atoms: C_6  and  C_7 
REMARK    2  A    between atoms: C_14  and  N_15 
REMARK    3  A    between atoms: N_15  and  C_16 
ROOT
HETATM    1  C   UNL     1     -44.760  58.469 -52.495  1.00  0.00     0.001 A 
HETATM    2  C   UNL     1     -44.029  58.071 -53.612  1.00  0.00     0.018 A 
HETATM    3  C   UNL     1     -43.250  56.886 -53.588  1.00  0.00     0.039 A 
HETATM    4  C   UNL     1     -43.205  56.115 -52.421  1.00  0.00     0.073 A 
HETATM    5  N   UNL     1     -42.483  54.996 -52.318  1.00  0.00    -0.228 NA
HETATM    6  C   UNL     1     -41.770  54.616 -53.390  1.00  0.00     0.164 A 
HETATM    7  N   UNL     1     -41.739  55.282 -54.554  1.00  0.00    -0.210 NA
HETATM    8  C   UNL     1     -42.476  56.402 -54.657  1.00  0.00     0.143 A 
HETATM    9  C   UNL     1     -43.943  56.532 -51.320  1.00  0.00     0.032 A 
HETATM   10  C   UNL     1     -44.719  57.694 -51.344  1.00  0.00     0.002 A 
ENDROOT
BRANCH   8  11
HETATM   11  N   UNL     1     -42.492  57.100 -55.896  1.00  0.00    -0.340 N 
HETATM   12  H   UNL     1     -42.492  58.097 -55.707  1.00  0.00     0.167 HD
BRANCH  11  13
HETATM   13  C   UNL     1     -43.249  56.779 -57.045  1.00  0.00     0.036 A 
HETATM   14  C   UNL     1     -44.360  57.566 -57.383  1.00  0.00     0.069 A 
HETATM   15  C   UNL     1     -45.089  57.307 -58.545  1.00  0.00     0.104 A 
HETATM   16  C   UNL     1     -44.719  56.256 -59.388  1.00  0.00     0.102 A 
HETATM   17  O   UNL     1     -46.164  58.125 -58.792  1.00  0.00    -0.346 OA
HETATM   18  O   UNL     1     -45.406  55.926 -60.528  1.00  0.00    -0.346 OA
HETATM   19  C   UNL     1     -43.592  55.498 -59.093  1.00  0.00     0.042 A 
HETATM   20  C   UNL     1     -46.704  56.529 -60.544  1.00  0.00     0.202 C 
HETATM   21  C   UNL     1     -46.621  57.992 -60.143  1.00  0.00     0.202 C 
HETATM   22  C   UNL     1     -42.860  55.764 -57.932  1.00  0.00     0.032 A 
ENDBRANCH  11  13
ENDBRANCH   8  11
BRANCH   6  23
HETATM   23  C   UNL     1     -40.984  53.379 -53.297  1.00  0.00     0.029 A 
HETATM   24  C   UNL     1     -40.241  53.061 -52.159  1.00  0.00     0.131 A 
HETATM   25  N   UNL     1     -39.494  51.935 -51.999  1.00  0.00    -0.272 NA
HETATM   26  C   UNL     1     -39.485  51.067 -53.030  1.00  0.00     0.116 A 
HETATM   27  C   UNL     1     -40.179  51.270 -54.208  1.00  0.00     0.020 A 
HETATM   28  C   UNL     1     -40.932  52.437 -54.338  1.00  0.00     0.018 A 
ENDBRANCH   6  23
TORSDOF 3
ENDMDL
MODEL 3
REMARK VINA RESULT:      -8.5      3.454      7.346
REMARK  3 active torsions:
REMARK  status: ('A' for Active; 'I' for Inactive)
REMARK    1  A    between atoms: C_6  and  C_7 
REMARK    2  A    between atoms: C_14  and  N_15 
REMARK    3  A    between atoms: N_15  and  C_16 
ROOT
HETATM    1  C   UNL     1     -42.440  58.479 -51.896  1.00  0.00     0.001 A 
HETATM    2  C   UNL     1     -42.815  57.641 -52.945  1.00  0.00     0.018 A 
HETATM    3  C   UNL     1     -42.290  56.328 -53.050  1.00  0.00     0.039 A 
HETATM    4  C   UNL     1     -41.375  55.872 -52.094  1.00  0.00     0.073 A 
HETATM    5  N   UNL     1     -40.829  54.654 -52.135  1.00  0.00    -0.228 NA
HETATM    6  C   UNL     1     -41.180  53.850 -53.150  1.00  0.00     0.164 A 
HETATM    7  N   UNL     1     -42.044  54.187 -54.119  1.00  0.00    -0.210 NA
HETATM    8  C   UNL     1     -42.600  55.409 -54.069  1.00  0.00     0.143 A 
HETATM    9  C   UNL     1     -41.018  56.725 -51.057  1.00  0.00     0.032 A 
HETATM   10  C   UNL     1     -41.540  58.017 -50.946  1.00  0.00     0.002 A 
ENDROOT
BRANCH   8  11
HETATM   11  N   UNL     1     -43.551  55.772 -55.062  1.00  0.00    -0.340 N 
HETATM   12  H   UNL     1     -44.298  55.085 -55.064  1.00  0.00     0.167 HD
BRANCH  11  13
HETATM   13  C   UNL     1     -43.282  56.265 -56.359  1.00  0.00     0.036 A 
HETATM   14  C   UNL     1     -43.026  57.633 -56.538  1.00  0.00     0.069 A 
HETATM   15  C   UNL     1     -42.699  58.137 -57.799  1.00  0.00     0.104 A 
HETATM   16  C   UNL     1     -42.621  57.281 -58.900  1.00  0.00     0.102 A 
HETATM   17  O   UNL     1     -42.471  59.489 -57.880  1.00  0.00    -0.346 OA
HETATM   18  O   UNL     1     -42.335  57.711 -60.170  1.00  0.00    -0.346 OA
HETATM   19  C   UNL     1     -42.824  55.917 -58.729  1.00  0.00     0.042 A 
HETATM   20  C   UNL     1     -42.487  59.129 -60.284  1.00  0.00     0.202 C 
HETATM   21  C   UNL     1     -41.827  59.836 -59.111  1.00  0.00     0.202 C 
HETATM   22  C   UNL     1     -43.145  55.414 -57.465  1.00  0.00     0.032 A 
ENDBRANCH  11  13
ENDBRANCH   8  11
BRANCH   6  23
HETATM   23  C   UNL     1     -40.599  52.502 -53.200  1.00  0.00     0.029 A 
HETATM   24  C   UNL     1     -40.008  51.911 -52.082  1.00  0.00     0.131 A 
HETATM   25  N   UNL     1     -39.455  50.669 -52.052  1.00  0.00    -0.272 NA
HETATM   26  C   UNL     1     -39.491  49.964 -53.200  1.00  0.00     0.116 A 
HETATM   27  C   UNL     1     -40.048  50.441 -54.372  1.00  0.00     0.020 A 
HETATM   28  C   UNL     1     -40.604  51.720 -54.367  1.00  0.00     0.018 A 
ENDBRANCH   6  23
TORSDOF 3
ENDMDL
MODEL 4
REMARK VINA RESULT:      -8.4      3.202      6.297
REMARK  3 active torsions:
REMARK  status: ('A' for Active; 'I' for Inactive)
REMARK    1  A    between atoms: C_6  and  C_7 
REMARK    2  A    between atoms: C_14  and  N_15 
REMARK    3  A    between atoms: N_15  and  C_16 
ROOT
HETATM    1  C   UNL     1     -39.716  52.092 -51.971  1.00  0.00     0.001 A 
HETATM    2  C   UNL     1     -40.254  53.363 -51.783  1.00  0.00     0.018 A 
HETATM    3  C   UNL     1     -40.816  54.084 -52.868  1.00  0.00     0.039 A 
HETATM    4  C   UNL     1     -40.819  53.515 -54.146  1.00  0.00     0.073 A 
HETATM    5  N   UNL     1     -41.317  54.139 -55.217  1.00  0.00    -0.228 NA
HETATM    6  C   UNL     1     -41.826  55.367 -55.039  1.00  0.00     0.164 A 
HETATM    7  N   UNL     1     -41.871  56.005 -53.861  1.00  0.00    -0.210 NA
HETATM    8  C   UNL     1     -41.379  55.370 -52.783  1.00  0.00     0.143 A 
HETATM    9  C   UNL     1     -40.277  52.246 -54.309  1.00  0.00     0.032 A 
HETATM   10  C   UNL     1     -39.730  51.530 -53.240  1.00  0.00     0.002 A 
ENDROOT
BRANCH   8  11
HETATM   11  N   UNL     1     -41.456  56.011 -51.515  1.00  0.00    -0.340 N 
HETATM   12  H   UNL     1     -42.012  55.435 -50.893  1.00  0.00     0.167 HD
BRANCH  11  13
HETATM   13  C   UNL     1     -41.640  57.390 -51.268  1.00  0.00     0.036 A 
HETATM   14  C   UNL     1     -42.923  57.947 -51.385  1.00  0.00     0.069 A 
HETATM   15  C   UNL     1     -43.144  59.294 -51.088  1.00  0.00     0.104 A 
HETATM   16  C   UNL     1     -42.086  60.104 -50.670  1.00  0.00     0.102 A 
HETATM   17  O   UNL     1     -44.429  59.753 -51.237  1.00  0.00    -0.346 OA
HETATM   18  O   UNL     1     -42.224  61.439 -50.392  1.00  0.00    -0.346 OA
HETATM   19  C   UNL     1     -40.820  59.556 -50.503  1.00  0.00     0.042 A 
HETATM   20  C   UNL     1     -43.451  61.955 -50.918  1.00  0.00     0.202 C 
HETATM   21  C   UNL     1     -44.607  61.022 -50.597  1.00  0.00     0.202 C 
HETATM   22  C   UNL     1     -40.603  58.206 -50.794  1.00  0.00     0.032 A 
ENDBRANCH  11  13
ENDBRANCH   8  11
BRANCH   6  23
HETATM   23  C   UNL     1     -42.391  56.058 -56.206  1.00  0.00     0.029 A 
HETATM   24  C   UNL     1     -42.414  57.450 -56.300  1.00  0.00     0.131 A 
HETATM   25  N   UNL     1     -42.915  58.157 -57.347  1.00  0.00    -0.272 NA
HETATM   26  C   UNL     1     -43.425  57.442 -58.370  1.00  0.00     0.116 A 
HETATM   27  C   UNL     1     -43.460  56.060 -58.393  1.00  0.00     0.020 A 
HETATM   28  C   UNL     1     -42.938  55.368 -57.300  1.00  0.00     0.018 A 
ENDBRANCH   6  23
TORSDOF 3
ENDMDL
MODEL 5
REMARK VINA RESULT:      -8.3      3.542      7.553
REMARK  3 active torsions:
REMARK  status: ('A' for Active; 'I' for Inactive)
REMARK    1  A    between atoms: C_6  and  C_7 
REMARK    2  A    between atoms: C_14  and  N_15 
REMARK    3  A    between atoms: N_15  and  C_16 
ROOT
HETATM    1  C   UNL     1     -44.315  57.665 -56.841  1.00  0.00     0.001 A 
HETATM    2  C   UNL     1     -44.392  57.355 -55.485  1.00  0.00     0.018 A 
HETATM    3  C   UNL     1     -43.568  56.348 -54.920  1.00  0.00     0.039 A 
HETATM    4  C   UNL     1     -42.675  55.649 -55.739  1.00  0.00     0.073 A 
HETATM    5  N   UNL     1     -41.878  54.679 -55.281  1.00  0.00    -0.228 NA
HETATM    6  C   UNL     1     -41.959  54.372 -53.978  1.00  0.00     0.164 A 
HETATM    7  N   UNL     1     -42.781  54.977 -53.107  1.00  0.00    -0.210 NA
HETATM    8  C   UNL     1     -43.573  55.960 -53.568  1.00  0.00     0.143 A 
HETATM    9  C   UNL     1     -42.615  55.976 -57.088  1.00  0.00     0.032 A 
HETATM   10  C   UNL     1     -43.420  56.973 -57.645  1.00  0.00     0.002 A 
ENDROOT
BRANCH   8  11
HETATM   11  N   UNL     1     -44.421  56.643 -52.654  1.00  0.00    -0.340 N 
HETATM   12  H   UNL     1     -45.376  56.588 -52.992  1.00  0.00     0.167 HD
BRANCH  11  13
HETATM   13  C   UNL     1     -44.160  57.871 -52.004  1.00  0.00     0.036 A 
HETATM   14  C   UNL     1     -45.174  58.484 -51.253  1.00  0.00     0.069 A 
HETATM   15  C   UNL     1     -44.925  59.666 -50.553  1.00  0.00     0.104 A 
HETATM   16  C   UNL     1     -43.658  60.254 -50.593  1.00  0.00     0.102 A 
HETATM   17  O   UNL     1     -45.977  60.198 -49.849  1.00  0.00    -0.346 OA
HETATM   18  O   UNL     1     -43.351  61.428 -49.955  1.00  0.00    -0.346 OA
HETATM   19  C   UNL     1     -42.630  59.633 -51.293  1.00  0.00     0.042 A 
HETATM   20  C   UNL     1     -44.535  62.134 -49.571  1.00  0.00     0.202 C 
HETATM   21  C   UNL     1     -45.534  61.193 -48.919  1.00  0.00     0.202 C 
HETATM   22  C   UNL     1     -42.881  58.445 -51.987  1.00  0.00     0.032 A 
ENDBRANCH  11  13
ENDBRANCH   8  11
BRANCH   6  23
HETATM   23  C   UNL     1     -41.078  53.319 -53.458  1.00  0.00     0.029 A 
HETATM   24  C   UNL     1     -40.638  53.311 -52.134  1.00  0.00     0.131 A 
HETATM   25  N   UNL     1     -39.826  52.369 -51.582  1.00  0.00    -0.272 NA
HETATM   26  C   UNL     1     -39.428  51.368 -52.392  1.00  0.00     0.116 A 
HETATM   27  C   UNL     1     -39.796  51.266 -53.720  1.00  0.00     0.020 A 
HETATM   28  C   UNL     1     -40.627  52.251 -54.253  1.00  0.00     0.018 A 
ENDBRANCH   6  23
TORSDOF 3
ENDMDL
MODEL 6
REMARK VINA RESULT:      -8.3      3.231      6.206
REMARK  3 active torsions:
REMARK  status: ('A' for Active; 'I' for Inactive)
REMARK    1  A    between atoms: C_6  and  C_7 
REMARK    2  A    between atoms: C_14  and  N_15 
REMARK    3  A    between atoms: N_15  and  C_16 
ROOT
HETATM    1  C   UNL     1     -40.987  53.245 -52.284  1.00  0.00     0.001 A 
HETATM    2  C   UNL     1     -41.989  54.208 -52.381  1.00  0.00     0.018 A 
HETATM    3  C   UNL     1     -42.356  54.753 -53.638  1.00  0.00     0.039 A 
HETATM    4  C   UNL     1     -41.693  54.326 -54.795  1.00  0.00     0.073 A 
HETATM    5  N   UNL     1     -41.974  54.803 -56.010  1.00  0.00    -0.228 NA
HETATM    6  C   UNL     1     -42.932  55.738 -56.104  1.00  0.00     0.164 A 
HETATM    7  N   UNL     1     -43.625  56.219 -55.062  1.00  0.00    -0.210 NA
HETATM    8  C   UNL     1     -43.348  55.728 -53.842  1.00  0.00     0.143 A 
HETATM    9  C   UNL     1     -40.697  53.364 -54.673  1.00  0.00     0.032 A 
HETATM   10  C   UNL     1     -40.340  52.819 -53.436  1.00  0.00     0.002 A 
ENDROOT
BRANCH   8  11
HETATM   11  N   UNL     1     -44.101  56.193 -52.728  1.00  0.00    -0.340 N 
HETATM   12  H   UNL     1     -45.058  55.871 -52.825  1.00  0.00     0.167 HD
BRANCH  11  13
HETATM   13  C   UNL     1     -44.030  57.469 -52.126  1.00  0.00     0.036 A 
HETATM   14  C   UNL     1     -45.049  57.878 -51.252  1.00  0.00     0.069 A 
HETATM   15  C   UNL     1     -44.975  59.109 -50.597  1.00  0.00     0.104 A 
HETATM   16  C   UNL     1     -43.879  59.951 -50.805  1.00  0.00     0.102 A 
HETATM   17  O   UNL     1     -46.020  59.428 -49.765  1.00  0.00    -0.346 OA
HETATM   18  O   UNL     1     -43.755  61.184 -50.219  1.00  0.00    -0.346 OA
HETATM   19  C   UNL     1     -42.839  59.539 -51.630  1.00  0.00     0.042 A 
HETATM   20  C   UNL     1     -45.005  61.635 -49.688  1.00  0.00     0.202 C 
HETATM   21  C   UNL     1     -45.688  60.525 -48.907  1.00  0.00     0.202 C 
HETATM   22  C   UNL     1     -42.913  58.303 -52.279  1.00  0.00     0.032 A 
ENDBRANCH  11  13
ENDBRANCH   8  11
BRANCH   6  23
HETATM   23  C   UNL     1     -43.261  56.261 -57.436  1.00  0.00     0.029 A 
HETATM   24  C   UNL     1     -43.825  57.524 -57.615  1.00  0.00     0.131 A 
HETATM   25  N   UNL     1     -44.152  58.075 -58.815  1.00  0.00    -0.272 NA
HETATM   26  C   UNL     1     -43.903  57.329 -59.909  1.00  0.00     0.116 A 
HETATM   27  C   UNL     1     -43.348  56.064 -59.861  1.00  0.00     0.020 A 
HETATM   28  C   UNL     1     -43.027  55.530 -58.613  1.00  0.00     0.018 A 
ENDBRANCH   6  23
TORSDOF 3
ENDMDL
MODEL 7
REMARK VINA RESULT:      -8.2      3.130      6.335
REMARK  3 active torsions:
REMARK  status: ('A' for Active; 'I' for Inactive)
REMARK    1  A    between atoms: C_6  and  C_7 
REMARK    2  A    between atoms: C_14  and  N_15 
REMARK    3  A    between atoms: N_15  and  C_16 
ROOT
HETATM    1  C   UNL     1     -39.941  52.279 -51.948  1.00  0.00     0.001 A 
HETATM    2  C   UNL     1     -40.616  53.488 -51.794  1.00  0.00     0.018 A 
HETATM    3  C   UNL     1     -41.117  54.191 -52.919  1.00  0.00     0.039 A 
HETATM    4  C   UNL     1     -40.920  53.668 -54.202  1.00  0.00     0.073 A 
HETATM    5  N   UNL     1     -41.351  54.280 -55.309  1.00  0.00    -0.228 NA
HETATM    6  C   UNL     1     -41.991  55.449 -55.163  1.00  0.00     0.164 A 
HETATM    7  N   UNL     1     -42.230  56.040 -53.983  1.00  0.00    -0.210 NA
HETATM    8  C   UNL     1     -41.805  55.416 -52.870  1.00  0.00     0.143 A 
HETATM    9  C   UNL     1     -40.245  52.460 -54.331  1.00  0.00     0.032 A 
HETATM   10  C   UNL     1     -39.758  51.761 -53.223  1.00  0.00     0.002 A 
ENDROOT
BRANCH   8  11
HETATM   11  N   UNL     1     -42.085  56.003 -51.606  1.00  0.00    -0.340 N 
HETATM   12  H   UNL     1     -42.266  55.263 -50.936  1.00  0.00     0.167 HD
BRANCH  11  13
HETATM   13  C   UNL     1     -42.874  57.149 -51.355  1.00  0.00     0.036 A 
HETATM   14  C   UNL     1     -42.270  58.415 -51.343  1.00  0.00     0.069 A 
HETATM   15  C   UNL     1     -43.035  59.568 -51.157  1.00  0.00     0.104 A 
HETATM   16  C   UNL     1     -44.418  59.473 -50.980  1.00  0.00     0.102 A 
HETATM   17  O   UNL     1     -42.358  60.762 -51.154  1.00  0.00    -0.346 OA
HETATM   18  O   UNL     1     -45.226  60.559 -50.763  1.00  0.00    -0.346 OA
HETATM   19  C   UNL     1     -45.038  58.230 -51.037  1.00  0.00     0.042 A 
HETATM   20  C   UNL     1     -44.461  61.708 -50.386  1.00  0.00     0.202 C 
HETATM   21  C   UNL     1     -43.254  61.871 -51.294  1.00  0.00     0.202 C 
HETATM   22  C   UNL     1     -44.270  57.078 -51.231  1.00  0.00     0.032 A 
ENDBRANCH  11  13
ENDBRANCH   8  11
BRANCH   6  23
HETATM   23  C   UNL     1     -42.484  56.125 -56.370  1.00  0.00     0.029 A 
HETATM   24  C   UNL     1     -42.458  57.514 -56.502  1.00  0.00     0.131 A 
HETATM   25  N   UNL     1     -42.891  58.207 -57.589  1.00  0.00    -0.272 NA
HETATM   26  C   UNL     1     -43.379  57.480 -58.613  1.00  0.00     0.116 A 
HETATM   27  C   UNL     1     -43.457  56.100 -58.602  1.00  0.00     0.020 A 
HETATM   28  C   UNL     1     -43.005  55.422 -57.470  1.00  0.00     0.018 A 
ENDBRANCH   6  23
TORSDOF 3
ENDMDL
MODEL 8
REMARK VINA RESULT:      -8.0      1.882      2.445
REMARK  3 active torsions:
REMARK  status: ('A' for Active; 'I' for Inactive)
REMARK    1  A    between atoms: C_6  and  C_7 
REMARK    2  A    between atoms: C_14  and  N_15 
REMARK    3  A    between atoms: N_15  and  C_16 
ROOT
HETATM    1  C   UNL     1     -42.080  59.056 -51.128  1.00  0.00     0.001 A 
HETATM    2  C   UNL     1     -42.370  57.806 -51.672  1.00  0.00     0.018 A 
HETATM    3  C   UNL     1     -42.398  57.614 -53.077  1.00  0.00     0.039 A 
HETATM    4  C   UNL     1     -42.144  58.696 -53.927  1.00  0.00     0.073 A 
HETATM    5  N   UNL     1     -42.167  58.595 -55.259  1.00  0.00    -0.228 NA
HETATM    6  C   UNL     1     -42.456  57.395 -55.785  1.00  0.00     0.164 A 
HETATM    7  N   UNL     1     -42.718  56.295 -55.064  1.00  0.00    -0.210 NA
HETATM    8  C   UNL     1     -42.684  56.398 -53.724  1.00  0.00     0.143 A 
HETATM    9  C   UNL     1     -41.856  59.932 -53.360  1.00  0.00     0.032 A 
HETATM   10  C   UNL     1     -41.819  60.123 -51.976  1.00  0.00     0.002 A 
ENDROOT
BRANCH   8  11
HETATM   11  N   UNL     1     -42.916  55.234 -52.940  1.00  0.00    -0.340 N 
HETATM   12  H   UNL     1     -43.424  55.502 -52.104  1.00  0.00     0.167 HD
BRANCH  11  13
HETATM   13  C   UNL     1     -42.011  54.177 -52.696  1.00  0.00     0.036 A 
HETATM   14  C   UNL     1     -41.823  53.189 -53.674  1.00  0.00     0.069 A 
HETATM   15  C   UNL     1     -40.891  52.166 -53.483  1.00  0.00     0.104 A 
HETATM   16  C   UNL     1     -40.132  52.117 -52.311  1.00  0.00     0.102 A 
HETATM   17  O   UNL     1     -40.779  51.240 -54.490  1.00  0.00    -0.346 OA
HETATM   18  O   UNL     1     -39.221  51.127 -52.044  1.00  0.00    -0.346 OA
HETATM   19  C   UNL     1     -40.271  53.116 -51.355  1.00  0.00     0.042 A 
HETATM   20  C   UNL     1     -39.409  50.002 -52.909  1.00  0.00     0.202 C 
HETATM   21  C   UNL     1     -39.589  50.456 -54.348  1.00  0.00     0.202 C 
HETATM   22  C   UNL     1     -41.200  54.142 -51.552  1.00  0.00     0.032 A 
ENDBRANCH  11  13
ENDBRANCH   8  11
BRANCH   6  23
HETATM   23  C   UNL     1     -42.470  57.265 -57.248  1.00  0.00     0.029 A 
HETATM   24  C   UNL     1     -42.897  56.098 -57.881  1.00  0.00     0.131 A 
HETATM   25  N   UNL     1     -42.941  55.907 -59.227  1.00  0.00    -0.272 NA
HETATM   26  C   UNL     1     -42.540  56.939 -59.996  1.00  0.00     0.116 A 
HETATM   27  C   UNL     1     -42.096  58.144 -59.487  1.00  0.00     0.020 A 
HETATM   28  C   UNL     1     -42.062  58.304 -58.102  1.00  0.00     0.018 A 
ENDBRANCH   6  23
TORSDOF 3
ENDMDL
MODEL 9
REMARK VINA RESULT:      -8.0      3.266      7.235
REMARK  3 active torsions:
REMARK  status: ('A' for Active; 'I' for Inactive)
REMARK    1  A    between atoms: C_6  and  C_7 
REMARK    2  A    between atoms: C_14  and  N_15 
REMARK    3  A    between atoms: N_15  and  C_16 
ROOT
HETATM    1  C   UNL     1     -41.790  58.256 -51.538  1.00  0.00     0.001 A 
HETATM    2  C   UNL     1     -41.512  57.725 -52.795  1.00  0.00     0.018 A 
HETATM    3  C   UNL     1     -41.204  56.349 -52.952  1.00  0.00     0.039 A 
HETATM    4  C   UNL     1     -41.169  55.518 -51.827  1.00  0.00     0.073 A 
HETATM    5  N   UNL     1     -40.873  54.217 -51.895  1.00  0.00    -0.228 NA
HETATM    6  C   UNL     1     -40.595  53.706 -53.104  1.00  0.00     0.164 A 
HETATM    7  N   UNL     1     -40.597  54.412 -54.244  1.00  0.00    -0.210 NA
HETATM    8  C   UNL     1     -40.906  55.718 -54.173  1.00  0.00     0.143 A 
HETATM    9  C   UNL     1     -41.451  56.071 -50.583  1.00  0.00     0.032 A 
HETATM   10  C   UNL     1     -41.762  57.424 -50.427  1.00  0.00     0.002 A 
ENDROOT
BRANCH   8  11
HETATM   11  N   UNL     1     -40.956  56.477 -55.375  1.00  0.00    -0.340 N 
HETATM   12  H   UNL     1     -40.391  57.311 -55.258  1.00  0.00     0.167 HD
BRANCH  11  13
HETATM   13  C   UNL     1     -42.090  56.715 -56.185  1.00  0.00     0.036 A 
HETATM   14  C   UNL     1     -42.322  55.903 -57.305  1.00  0.00     0.069 A 
HETATM   15  C   UNL     1     -43.465  56.078 -58.087  1.00  0.00     0.104 A 
HETATM   16  C   UNL     1     -44.395  57.068 -57.761  1.00  0.00     0.102 A 
HETATM   17  O   UNL     1     -43.606  55.241 -59.167  1.00  0.00    -0.346 OA
HETATM   18  O   UNL     1     -45.523  57.315 -58.500  1.00  0.00    -0.346 OA
HETATM   19  C   UNL     1     -44.205  57.848 -56.627  1.00  0.00     0.042 A 
HETATM   20  C   UNL     1     -45.439  56.709 -59.794  1.00  0.00     0.202 C 
HETATM   21  C   UNL     1     -44.940  55.277 -59.685  1.00  0.00     0.202 C 
HETATM   22  C   UNL     1     -43.063  57.666 -55.842  1.00  0.00     0.032 A 
ENDBRANCH  11  13
ENDBRANCH   8  11
BRANCH   6  23
HETATM   23  C   UNL     1     -40.284  52.273 -53.195  1.00  0.00     0.029 A 
HETATM   24  C   UNL     1     -39.755  51.562 -52.118  1.00  0.00     0.131 A 
HETATM   25  N   UNL     1     -39.447  50.238 -52.127  1.00  0.00    -0.272 NA
HETATM   26  C   UNL     1     -39.680  49.572 -53.276  1.00  0.00     0.116 A 
HETATM   27  C   UNL     1     -40.200  50.165 -54.410  1.00  0.00     0.020 A 
HETATM   28  C   UNL     1     -40.502  51.527 -54.365  1.00  0.00     0.018 A 
ENDBRANCH   6  23
TORSDOF 3
ENDMDL
MODEL 10
REMARK VINA RESULT:      -8.0      3.654      7.596
REMARK  3 active torsions:
REMARK  status: ('A' for Active; 'I' for Inactive)
REMARK    1  A    between atoms: C_6  and  C_7 
REMARK    2  A    between atoms: C_14  and  N_15 
REMARK    3  A    between atoms: N_15  and  C_16 
ROOT
HETATM    1  C   UNL     1     -45.126  58.148 -52.217  1.00  0.00     0.001 A 
HETATM    2  C   UNL     1     -44.744  57.554 -53.419  1.00  0.00     0.018 A 
HETATM    3  C   UNL     1     -43.853  56.451 -53.435  1.00  0.00     0.039 A 
HETATM    4  C   UNL     1     -43.341  55.961 -52.228  1.00  0.00     0.073 A 
HETATM    5  N   UNL     1     -42.487  54.936 -52.165  1.00  0.00    -0.228 NA
HETATM    6  C   UNL     1     -42.110  54.370 -53.322  1.00  0.00     0.164 A 
HETATM    7  N   UNL     1     -42.537  54.762 -54.531  1.00  0.00    -0.210 NA
HETATM    8  C   UNL     1     -43.404  55.787 -54.590  1.00  0.00     0.143 A 
HETATM    9  C   UNL     1     -43.737  56.569 -51.043  1.00  0.00     0.032 A 
HETATM   10  C   UNL     1     -44.622  57.650 -51.024  1.00  0.00     0.002 A 
ENDROOT
BRANCH   8  11
HETATM   11  N   UNL     1     -43.903  56.191 -55.859  1.00  0.00    -0.340 N 
HETATM   12  H   UNL     1     -44.207  55.367 -56.367  1.00  0.00     0.167 HD
BRANCH  11  13
HETATM   13  C   UNL     1     -43.352  57.169 -56.718  1.00  0.00     0.036 A 
HETATM   14  C   UNL     1     -43.735  57.198 -58.067  1.00  0.00     0.069 A 
HETATM   15  C   UNL     1     -43.252  58.190 -58.924  1.00  0.00     0.104 A 
HETATM   16  C   UNL     1     -42.378  59.169 -58.444  1.00  0.00     0.102 A 
HETATM   17  O   UNL     1     -43.676  58.136 -60.228  1.00  0.00    -0.346 OA
HETATM   18  O   UNL     1     -41.842  60.153 -59.233  1.00  0.00    -0.346 OA
HETATM   19  C   UNL     1     -42.027  59.182 -57.099  1.00  0.00     0.042 A 
HETATM   20  C   UNL     1     -41.990  59.842 -60.622  1.00  0.00     0.202 C 
HETATM   21  C   UNL     1     -43.401  59.361 -60.917  1.00  0.00     0.202 C 
HETATM   22  C   UNL     1     -42.518  58.192 -56.242  1.00  0.00     0.032 A 
ENDBRANCH  11  13
ENDBRANCH   8  11
BRANCH   6  23
HETATM   23  C   UNL     1     -41.184  53.231 -53.266  1.00  0.00     0.029 A 
HETATM   24  C   UNL     1     -40.978  52.393 -54.362  1.00  0.00     0.131 A 
HETATM   25  N   UNL     1     -40.135  51.326 -54.387  1.00  0.00    -0.272 NA
HETATM   26  C   UNL     1     -39.449  51.073 -53.254  1.00  0.00     0.116 A 
HETATM   27  C   UNL     1     -39.568  51.830 -52.104  1.00  0.00     0.020 A 
HETATM   28  C   UNL     1     -40.443  52.916 -52.114  1.00  0.00     0.018 A 
ENDBRANCH   6  23
TORSDOF 3
ENDMDL
