MODEL 1
REMARK VINA RESULT:      -7.5      0.000      0.000
REMARK  7 active torsions:
REMARK  status: ('A' for Active; 'I' for Inactive)
REMARK    1  A    between atoms: S_2  and  C_3 
REMARK    2  A    between atoms: C_6  and  C_7 
REMARK    3  A    between atoms: N_8  and  C_9 
REMARK    4  A    between atoms: C_9  and  C_10 
REMARK    5  A    between atoms: C_10  and  C_11 
REMARK    6  A    between atoms: C_24  and  C_25 
REMARK    7  A    between atoms: C_26  and  O_27 
ROOT
HETATM    1  C   UNL     1     -42.432  54.399 -51.626  1.00  0.00     0.159 A 
HETATM    2  N   UNL     1     -42.606  55.588 -50.755  1.00  0.00    -0.333 N 
HETATM    3  C   UNL     1     -41.518  55.827 -49.896  1.00  0.00     0.275 A 
HETATM    4  O   UNL     1     -41.383  56.750 -49.109  1.00  0.00    -0.266 OA
HETATM    5  C   UNL     1     -40.588  54.758 -50.190  1.00  0.00     0.155 A 
HETATM    6  C   UNL     1     -41.090  53.937 -51.202  1.00  0.00     0.034 A 
HETATM    7  N   UNL     1     -39.367  54.414 -49.791  1.00  0.00    -0.168 NA
HETATM    8  N   UNL     1     -39.107  53.328 -50.562  1.00  0.00    -0.276 N 
HETATM    9  H   UNL     1     -38.216  52.855 -50.447  1.00  0.00     0.189 HD
HETATM   10  C   UNL     1     -40.101  53.027 -51.478  1.00  0.00     0.074 A 
ENDROOT
BRANCH   1  11
HETATM   11  C   UNL     1     -42.351  54.672 -53.108  1.00  0.00    -0.031 A 
HETATM   12  C   UNL     1     -43.267  54.145 -54.034  1.00  0.00     0.011 A 
HETATM   13  C   UNL     1     -43.179  54.471 -55.390  1.00  0.00     0.019 A 
HETATM   14  C   UNL     1     -42.181  55.335 -55.845  1.00  0.00    -0.000 A 
HETATM   15  C   UNL     1     -41.249  55.843 -54.941  1.00  0.00     0.019 A 
HETATM   16  C   UNL     1     -41.334  55.517 -53.586  1.00  0.00     0.011 A 
BRANCH  14  17
HETATM   17  S   UNL     1     -42.106  55.770 -57.571  1.00  0.00    -0.134 SA
HETATM   18  C   UNL     1     -43.837  55.465 -58.012  1.00  0.00     0.095 C 
ENDBRANCH  14  17
ENDBRANCH   1  11
BRANCH   2  19
HETATM   19  C   UNL     1     -43.710  56.530 -50.873  1.00  0.00     0.132 C 
BRANCH  19  20
HETATM   20  C   UNL     1     -43.378  57.893 -51.493  1.00  0.00     0.058 C 
BRANCH  20  21
HETATM   21  C   UNL     1     -43.665  58.074 -52.966  1.00  0.00    -0.057 A 
HETATM   22  C   UNL     1     -44.756  57.471 -53.607  1.00  0.00     0.007 A 
HETATM   23  C   UNL     1     -44.989  57.685 -54.967  1.00  0.00     0.001 A 
HETATM   24  C   UNL     1     -44.145  58.516 -55.701  1.00  0.00     0.000 A 
HETATM   25  C   UNL     1     -43.070  59.139 -55.075  1.00  0.00     0.001 A 
HETATM   26  C   UNL     1     -42.834  58.923 -53.717  1.00  0.00     0.007 A 
ENDBRANCH  20  21
ENDBRANCH  19  20
ENDBRANCH   2  19
BRANCH  10  27
HETATM   27  C   UNL     1     -39.980  51.976 -52.477  1.00  0.00     0.026 A 
HETATM   28  C   UNL     1     -39.719  50.644 -52.120  1.00  0.00     0.078 A 
HETATM   29  C   UNL     1     -39.653  49.639 -53.081  1.00  0.00     0.037 A 
HETATM   30  C   UNL     1     -39.815  49.959 -54.427  1.00  0.00     0.003 A 
HETATM   31  C   UNL     1     -40.050  51.281 -54.805  1.00  0.00     0.001 A 
HETATM   32  C   UNL     1     -40.135  52.284 -53.835  1.00  0.00     0.016 A 
BRANCH  28  33
HETATM   33  O   UNL     1     -39.489  50.268 -50.824  1.00  0.00    -0.360 OA
HETATM   34  H   UNL     1     -39.417  49.296 -50.810  1.00  0.00     0.217 HD
ENDBRANCH  28  33
ENDBRANCH  10  27
TORSDOF 7
ENDMDL
MODEL 2
REMARK VINA RESULT:      -7.3      2.344      7.139
REMARK  7 active torsions:
REMARK  status: ('A' for Active; 'I' for Inactive)
REMARK    1  A    between atoms: S_2  and  C_3 
REMARK    2  A    between atoms: C_6  and  C_7 
REMARK    3  A    between atoms: N_8  and  C_9 
REMARK    4  A    between atoms: C_9  and  C_10 
REMARK    5  A    between atoms: C_10  and  C_11 
REMARK    6  A    between atoms: C_24  and  C_25 
REMARK    7  A    between atoms: C_26  and  O_27 
ROOT
HETATM    1  C   UNL     1     -42.331  56.749 -53.168  1.00  0.00     0.159 A 
HETATM    2  N   UNL     1     -42.441  55.275 -53.035  1.00  0.00    -0.333 N 
HETATM    3  C   UNL     1     -43.312  54.860 -52.011  1.00  0.00     0.275 A 
HETATM    4  O   UNL     1     -43.613  53.715 -51.712  1.00  0.00    -0.266 OA
HETATM    5  C   UNL     1     -43.793  56.094 -51.428  1.00  0.00     0.155 A 
HETATM    6  C   UNL     1     -43.254  57.194 -52.098  1.00  0.00     0.034 A 
HETATM    7  N   UNL     1     -44.659  56.430 -50.477  1.00  0.00    -0.168 NA
HETATM    8  N   UNL     1     -44.644  57.785 -50.538  1.00  0.00    -0.276 N 
HETATM    9  H   UNL     1     -45.230  58.305 -49.892  1.00  0.00     0.189 HD
HETATM   10  C   UNL     1     -43.846  58.302 -51.546  1.00  0.00     0.074 A 
ENDROOT
BRANCH   1  11
HETATM   11  C   UNL     1     -42.845  57.337 -54.459  1.00  0.00    -0.031 A 
HETATM   12  C   UNL     1     -44.105  57.023 -54.994  1.00  0.00     0.011 A 
HETATM   13  C   UNL     1     -44.556  57.636 -56.167  1.00  0.00     0.019 A 
HETATM   14  C   UNL     1     -43.760  58.578 -56.822  1.00  0.00    -0.000 A 
HETATM   15  C   UNL     1     -42.495  58.877 -56.316  1.00  0.00     0.019 A 
HETATM   16  C   UNL     1     -42.043  58.265 -55.146  1.00  0.00     0.011 A 
BRANCH  14  17
HETATM   17  S   UNL     1     -44.365  59.377 -58.295  1.00  0.00    -0.134 SA
HETATM   18  C   UNL     1     -45.247  57.976 -59.032  1.00  0.00     0.095 C 
ENDBRANCH  14  17
ENDBRANCH   1  11
BRANCH   2  19
HETATM   19  C   UNL     1     -41.849  54.327 -53.967  1.00  0.00     0.132 C 
BRANCH  19  20
HETATM   20  C   UNL     1     -40.411  53.884 -53.667  1.00  0.00     0.058 C 
BRANCH  20  21
HETATM   21  C   UNL     1     -40.177  52.414 -53.406  1.00  0.00    -0.057 A 
HETATM   22  C   UNL     1     -40.286  51.438 -54.406  1.00  0.00     0.007 A 
HETATM   23  C   UNL     1     -40.040  50.094 -54.118  1.00  0.00     0.001 A 
HETATM   24  C   UNL     1     -39.669  49.709 -52.831  1.00  0.00     0.000 A 
HETATM   25  C   UNL     1     -39.536  50.668 -51.832  1.00  0.00     0.001 A 
HETATM   26  C   UNL     1     -39.784  52.011 -52.118  1.00  0.00     0.007 A 
ENDBRANCH  20  21
ENDBRANCH  19  20
ENDBRANCH   2  19
BRANCH  10  27
HETATM   27  C   UNL     1     -43.772  59.720 -51.862  1.00  0.00     0.026 A 
HETATM   28  C   UNL     1     -43.141  60.636 -51.006  1.00  0.00     0.078 A 
HETATM   29  C   UNL     1     -43.033  61.982 -51.342  1.00  0.00     0.037 A 
HETATM   30  C   UNL     1     -43.589  62.443 -52.534  1.00  0.00     0.003 A 
HETATM   31  C   UNL     1     -44.243  61.553 -53.386  1.00  0.00     0.001 A 
HETATM   32  C   UNL     1     -44.331  60.198 -53.054  1.00  0.00     0.016 A 
BRANCH  28  33
HETATM   33  O   UNL     1     -42.627  60.265 -49.792  1.00  0.00    -0.360 OA
HETATM   34  H   UNL     1     -41.731  59.915 -49.949  1.00  0.00     0.217 HD
ENDBRANCH  28  33
ENDBRANCH  10  27
TORSDOF 7
ENDMDL
MODEL 3
REMARK VINA RESULT:      -7.1      3.592      8.049
REMARK  7 active torsions:
REMARK  status: ('A' for Active; 'I' for Inactive)
REMARK    1  A    between atoms: S_2  and  C_3 
REMARK    2  A    between atoms: C_6  and  C_7 
REMARK    3  A    between atoms: N_8  and  C_9 
REMARK    4  A    between atoms: C_9  and  C_10 
REMARK    5  A    between atoms: C_10  and  C_11 
REMARK    6  A    between atoms: C_24  and  C_25 
REMARK    7  A    between atoms: C_26  and  O_27 
ROOT
HETATM    1  C   UNL     1     -42.851  56.212 -53.470  1.00  0.00     0.159 A 
HETATM    2  N   UNL     1     -42.270  55.473 -54.618  1.00  0.00    -0.333 N 
HETATM    3  C   UNL     1     -42.804  55.848 -55.865  1.00  0.00     0.275 A 
HETATM    4  O   UNL     1     -42.483  55.430 -56.966  1.00  0.00    -0.266 OA
HETATM    5  C   UNL     1     -43.785  56.862 -55.543  1.00  0.00     0.155 A 
HETATM    6  C   UNL     1     -43.809  57.101 -54.167  1.00  0.00     0.034 A 
HETATM    7  N   UNL     1     -44.601  57.657 -56.229  1.00  0.00    -0.168 NA
HETATM    8  N   UNL     1     -45.171  58.401 -55.248  1.00  0.00    -0.276 N 
HETATM    9  H   UNL     1     -45.860  59.100 -55.509  1.00  0.00     0.189 HD
HETATM   10  C   UNL     1     -44.684  58.140 -53.977  1.00  0.00     0.074 A 
ENDROOT
BRANCH   1  11
HETATM   11  C   UNL     1     -41.901  57.105 -52.710  1.00  0.00    -0.031 A 
HETATM   12  C   UNL     1     -41.092  58.068 -53.336  1.00  0.00     0.011 A 
HETATM   13  C   UNL     1     -40.268  58.908 -52.581  1.00  0.00     0.019 A 
HETATM   14  C   UNL     1     -40.241  58.805 -51.188  1.00  0.00    -0.000 A 
HETATM   15  C   UNL     1     -41.019  57.834 -50.558  1.00  0.00     0.019 A 
HETATM   16  C   UNL     1     -41.842  56.994 -51.310  1.00  0.00     0.011 A 
BRANCH  14  17
HETATM   17  S   UNL     1     -39.214  59.907 -50.239  1.00  0.00    -0.134 SA
HETATM   18  C   UNL     1     -37.601  59.158 -50.587  1.00  0.00     0.095 C 
ENDBRANCH  14  17
ENDBRANCH   1  11
BRANCH   2  19
HETATM   19  C   UNL     1     -41.138  54.563 -54.514  1.00  0.00     0.132 C 
BRANCH  19  20
HETATM   20  C   UNL     1     -40.956  53.855 -53.165  1.00  0.00     0.058 C 
BRANCH  20  21
HETATM   21  C   UNL     1     -40.469  52.424 -53.192  1.00  0.00    -0.057 A 
HETATM   22  C   UNL     1     -40.540  51.620 -54.338  1.00  0.00     0.007 A 
HETATM   23  C   UNL     1     -40.058  50.309 -54.316  1.00  0.00     0.001 A 
HETATM   24  C   UNL     1     -39.487  49.790 -53.156  1.00  0.00     0.000 A 
HETATM   25  C   UNL     1     -39.391  50.583 -52.017  1.00  0.00     0.001 A 
HETATM   26  C   UNL     1     -39.875  51.892 -52.036  1.00  0.00     0.007 A 
ENDBRANCH  20  21
ENDBRANCH  19  20
ENDBRANCH   2  19
BRANCH  10  27
HETATM   27  C   UNL     1     -45.073  58.899 -52.798  1.00  0.00     0.026 A 
HETATM   28  C   UNL     1     -45.427  60.255 -52.876  1.00  0.00     0.078 A 
HETATM   29  C   UNL     1     -45.844  60.957 -51.749  1.00  0.00     0.037 A 
HETATM   30  C   UNL     1     -45.881  60.318 -50.512  1.00  0.00     0.003 A 
HETATM   31  C   UNL     1     -45.508  58.978 -50.409  1.00  0.00     0.001 A 
HETATM   32  C   UNL     1     -45.109  58.270 -51.546  1.00  0.00     0.016 A 
BRANCH  28  33
HETATM   33  O   UNL     1     -45.355  60.961 -54.047  1.00  0.00    -0.360 OA
HETATM   34  H   UNL     1     -44.536  61.490 -54.019  1.00  0.00     0.217 HD
ENDBRANCH  28  33
ENDBRANCH  10  27
TORSDOF 7
ENDMDL
MODEL 4
REMARK VINA RESULT:      -7.0      4.010      8.083
REMARK  7 active torsions:
REMARK  status: ('A' for Active; 'I' for Inactive)
REMARK    1  A    between atoms: S_2  and  C_3 
REMARK    2  A    between atoms: C_6  and  C_7 
REMARK    3  A    between atoms: N_8  and  C_9 
REMARK    4  A    between atoms: C_9  and  C_10 
REMARK    5  A    between atoms: C_10  and  C_11 
REMARK    6  A    between atoms: C_24  and  C_25 
REMARK    7  A    between atoms: C_26  and  O_27 
ROOT
HETATM    1  C   UNL     1     -42.205  57.366 -56.730  1.00  0.00     0.159 A 
HETATM    2  N   UNL     1     -42.344  56.798 -55.366  1.00  0.00    -0.333 N 
HETATM    3  C   UNL     1     -42.379  57.767 -54.347  1.00  0.00     0.275 A 
HETATM    4  O   UNL     1     -42.523  57.580 -53.149  1.00  0.00    -0.266 OA
HETATM    5  C   UNL     1     -42.246  59.027 -55.047  1.00  0.00     0.155 A 
HETATM    6  C   UNL     1     -42.167  58.815 -56.425  1.00  0.00     0.034 A 
HETATM    7  N   UNL     1     -42.251  60.314 -54.712  1.00  0.00    -0.168 NA
HETATM    8  N   UNL     1     -42.149  60.926 -55.918  1.00  0.00    -0.276 N 
HETATM    9  H   UNL     1     -42.123  61.941 -55.945  1.00  0.00     0.189 HD
HETATM   10  C   UNL     1     -42.149  60.061 -57.000  1.00  0.00     0.074 A 
ENDROOT
BRANCH   1  11
HETATM   11  C   UNL     1     -43.374  57.147 -57.660  1.00  0.00    -0.031 A 
HETATM   12  C   UNL     1     -44.646  57.695 -57.430  1.00  0.00     0.011 A 
HETATM   13  C   UNL     1     -45.681  57.507 -58.351  1.00  0.00     0.019 A 
HETATM   14  C   UNL     1     -45.463  56.773 -59.519  1.00  0.00    -0.000 A 
HETATM   15  C   UNL     1     -44.211  56.201 -59.745  1.00  0.00     0.019 A 
HETATM   16  C   UNL     1     -43.176  56.387 -58.826  1.00  0.00     0.011 A 
BRANCH  14  17
HETATM   17  S   UNL     1     -46.782  56.574 -60.699  1.00  0.00    -0.134 SA
HETATM   18  C   UNL     1     -47.340  58.296 -60.789  1.00  0.00     0.095 C 
ENDBRANCH  14  17
ENDBRANCH   1  11
BRANCH   2  19
HETATM   19  C   UNL     1     -42.592  55.390 -55.091  1.00  0.00     0.132 C 
BRANCH  19  20
HETATM   20  C   UNL     1     -41.428  54.428 -55.361  1.00  0.00     0.058 C 
BRANCH  20  21
HETATM   21  C   UNL     1     -40.859  53.678 -54.179  1.00  0.00    -0.057 A 
HETATM   22  C   UNL     1     -40.907  54.175 -52.869  1.00  0.00     0.007 A 
HETATM   23  C   UNL     1     -40.384  53.434 -51.807  1.00  0.00     0.001 A 
HETATM   24  C   UNL     1     -39.819  52.180 -52.038  1.00  0.00     0.000 A 
HETATM   25  C   UNL     1     -39.783  51.664 -53.329  1.00  0.00     0.001 A 
HETATM   26  C   UNL     1     -40.303  52.405 -54.392  1.00  0.00     0.007 A 
ENDBRANCH  20  21
ENDBRANCH  19  20
ENDBRANCH   2  19
BRANCH  10  27
HETATM   27  C   UNL     1     -42.161  60.507 -58.385  1.00  0.00     0.026 A 
HETATM   28  C   UNL     1     -41.214  61.420 -58.874  1.00  0.00     0.078 A 
HETATM   29  C   UNL     1     -41.206  61.803 -60.213  1.00  0.00     0.037 A 
HETATM   30  C   UNL     1     -42.173  61.300 -61.080  1.00  0.00     0.003 A 
HETATM   31  C   UNL     1     -43.139  60.413 -60.607  1.00  0.00     0.001 A 
HETATM   32  C   UNL     1     -43.132  60.015 -59.267  1.00  0.00     0.016 A 
BRANCH  28  33
HETATM   33  O   UNL     1     -40.273  62.000 -58.066  1.00  0.00    -0.360 OA
HETATM   34  H   UNL     1     -40.421  62.963 -58.091  1.00  0.00     0.217 HD
ENDBRANCH  28  33
ENDBRANCH  10  27
TORSDOF 7
ENDMDL
MODEL 5
REMARK VINA RESULT:      -7.0      4.853      7.153
REMARK  7 active torsions:
REMARK  status: ('A' for Active; 'I' for Inactive)
REMARK    1  A    between atoms: S_2  and  C_3 
REMARK    2  A    between atoms: C_6  and  C_7 
REMARK    3  A    between atoms: N_8  and  C_9 
REMARK    4  A    between atoms: C_9  and  C_10 
REMARK    5  A    between atoms: C_10  and  C_11 
REMARK    6  A    between atoms: C_24  and  C_25 
REMARK    7  A    between atoms: C_26  and  O_27 
ROOT
HETATM    1  C   UNL     1     -42.470  58.218 -56.800  1.00  0.00     0.159 A 
HETATM    2  N   UNL     1     -42.975  58.967 -57.977  1.00  0.00    -0.333 N 
HETATM    3  C   UNL     1     -43.590  58.154 -58.947  1.00  0.00     0.275 A 
HETATM    4  O   UNL     1     -44.121  58.511 -59.987  1.00  0.00    -0.266 OA
HETATM    5  C   UNL     1     -43.483  56.815 -58.411  1.00  0.00     0.155 A 
HETATM    6  C   UNL     1     -42.860  56.835 -57.162  1.00  0.00     0.034 A 
HETATM    7  N   UNL     1     -43.890  55.602 -58.776  1.00  0.00    -0.168 NA
HETATM    8  N   UNL     1     -43.485  54.836 -57.732  1.00  0.00    -0.276 N 
HETATM    9  H   UNL     1     -43.671  53.838 -57.763  1.00  0.00     0.189 HD
HETATM   10  C   UNL     1     -42.901  55.546 -56.695  1.00  0.00     0.074 A 
ENDROOT
BRANCH   1  11
HETATM   11  C   UNL     1     -43.137  58.529 -55.483  1.00  0.00    -0.031 A 
HETATM   12  C   UNL     1     -44.509  58.807 -55.368  1.00  0.00     0.011 A 
HETATM   13  C   UNL     1     -45.089  59.036 -54.117  1.00  0.00     0.019 A 
HETATM   14  C   UNL     1     -44.311  58.984 -52.958  1.00  0.00    -0.000 A 
HETATM   15  C   UNL     1     -42.943  58.735 -53.061  1.00  0.00     0.019 A 
HETATM   16  C   UNL     1     -42.361  58.507 -54.310  1.00  0.00     0.011 A 
BRANCH  14  17
HETATM   17  S   UNL     1     -45.073  59.241 -51.368  1.00  0.00    -0.134 SA
HETATM   18  C   UNL     1     -46.398  60.370 -51.872  1.00  0.00     0.095 C 
ENDBRANCH  14  17
ENDBRANCH   1  11
BRANCH   2  19
HETATM   19  C   UNL     1     -42.996  60.420 -58.071  1.00  0.00     0.132 C 
BRANCH  19  20
HETATM   20  C   UNL     1     -41.656  61.135 -57.859  1.00  0.00     0.058 C 
BRANCH  20  21
HETATM   21  C   UNL     1     -41.031  61.808 -59.060  1.00  0.00    -0.057 A 
HETATM   22  C   UNL     1     -39.930  62.669 -58.960  1.00  0.00     0.007 A 
HETATM   23  C   UNL     1     -39.376  63.251 -60.102  1.00  0.00     0.001 A 
HETATM   24  C   UNL     1     -39.904  62.967 -61.360  1.00  0.00     0.000 A 
HETATM   25  C   UNL     1     -40.983  62.097 -61.478  1.00  0.00     0.001 A 
HETATM   26  C   UNL     1     -41.540  61.518 -60.337  1.00  0.00     0.007 A 
ENDBRANCH  20  21
ENDBRANCH  19  20
ENDBRANCH   2  19
BRANCH  10  27
HETATM   27  C   UNL     1     -42.499  54.940 -55.435  1.00  0.00     0.026 A 
HETATM   28  C   UNL     1     -43.374  54.864 -54.341  1.00  0.00     0.078 A 
HETATM   29  C   UNL     1     -42.995  54.238 -53.155  1.00  0.00     0.037 A 
HETATM   30  C   UNL     1     -41.713  53.706 -53.036  1.00  0.00     0.003 A 
HETATM   31  C   UNL     1     -40.820  53.795 -54.103  1.00  0.00     0.001 A 
HETATM   32  C   UNL     1     -41.211  54.405 -55.298  1.00  0.00     0.016 A 
BRANCH  28  33
HETATM   33  O   UNL     1     -44.625  55.419 -54.367  1.00  0.00    -0.360 OA
HETATM   34  H   UNL     1     -45.269  54.688 -54.322  1.00  0.00     0.217 HD
ENDBRANCH  28  33
ENDBRANCH  10  27
TORSDOF 7
ENDMDL
MODEL 6
REMARK VINA RESULT:      -6.8      2.306      3.633
REMARK  7 active torsions:
REMARK  status: ('A' for Active; 'I' for Inactive)
REMARK    1  A    between atoms: S_2  and  C_3 
REMARK    2  A    between atoms: C_6  and  C_7 
REMARK    3  A    between atoms: N_8  and  C_9 
REMARK    4  A    between atoms: C_9  and  C_10 
REMARK    5  A    between atoms: C_10  and  C_11 
REMARK    6  A    between atoms: C_24  and  C_25 
REMARK    7  A    between atoms: C_26  and  O_27 
ROOT
HETATM    1  C   UNL     1     -43.788  57.451 -53.108  1.00  0.00     0.159 A 
HETATM    2  N   UNL     1     -44.255  58.702 -52.462  1.00  0.00    -0.333 N 
HETATM    3  C   UNL     1     -43.444  59.128 -51.394  1.00  0.00     0.275 A 
HETATM    4  O   UNL     1     -43.575  60.136 -50.718  1.00  0.00    -0.266 OA
HETATM    5  C   UNL     1     -42.406  58.123 -51.311  1.00  0.00     0.155 A 
HETATM    6  C   UNL     1     -42.577  57.160 -52.307  1.00  0.00     0.034 A 
HETATM    7  N   UNL     1     -41.312  57.935 -50.579  1.00  0.00    -0.168 NA
HETATM    8  N   UNL     1     -40.794  56.803 -51.120  1.00  0.00    -0.276 N 
HETATM    9  H   UNL     1     -39.936  56.428 -50.727  1.00  0.00     0.189 HD
HETATM   10  C   UNL     1     -41.496  56.319 -52.212  1.00  0.00     0.074 A 
ENDROOT
BRANCH   1  11
HETATM   11  C   UNL     1     -43.342  57.575 -54.544  1.00  0.00    -0.031 A 
HETATM   12  C   UNL     1     -43.894  56.810 -55.585  1.00  0.00     0.011 A 
HETATM   13  C   UNL     1     -43.483  57.002 -56.907  1.00  0.00     0.019 A 
HETATM   14  C   UNL     1     -42.518  57.964 -57.215  1.00  0.00    -0.000 A 
HETATM   15  C   UNL     1     -41.943  58.711 -56.187  1.00  0.00     0.019 A 
HETATM   16  C   UNL     1     -42.352  58.520 -54.865  1.00  0.00     0.011 A 
BRANCH  14  17
HETATM   17  S   UNL     1     -42.033  58.221 -58.909  1.00  0.00    -0.134 SA
HETATM   18  C   UNL     1     -42.565  56.630 -59.597  1.00  0.00     0.095 C 
ENDBRANCH  14  17
ENDBRANCH   1  11
BRANCH   2  19
HETATM   19  C   UNL     1     -45.346  59.523 -52.968  1.00  0.00     0.132 C 
BRANCH  19  20
HETATM   20  C   UNL     1     -44.955  60.877 -53.573  1.00  0.00     0.058 C 
BRANCH  20  21
HETATM   21  C   UNL     1     -44.829  60.955 -55.078  1.00  0.00    -0.057 A 
HETATM   22  C   UNL     1     -43.906  61.792 -55.721  1.00  0.00     0.007 A 
HETATM   23  C   UNL     1     -43.816  61.812 -57.114  1.00  0.00     0.001 A 
HETATM   24  C   UNL     1     -44.635  60.988 -57.882  1.00  0.00     0.000 A 
HETATM   25  C   UNL     1     -45.541  60.136 -57.259  1.00  0.00     0.001 A 
HETATM   26  C   UNL     1     -45.635  60.117 -55.867  1.00  0.00     0.007 A 
ENDBRANCH  20  21
ENDBRANCH  19  20
ENDBRANCH   2  19
BRANCH  10  27
HETATM   27  C   UNL     1     -41.055  55.187 -53.011  1.00  0.00     0.026 A 
HETATM   28  C   UNL     1     -41.059  53.878 -52.503  1.00  0.00     0.078 A 
HETATM   29  C   UNL     1     -40.681  52.796 -53.293  1.00  0.00     0.037 A 
HETATM   30  C   UNL     1     -40.258  53.012 -54.602  1.00  0.00     0.003 A 
HETATM   31  C   UNL     1     -40.222  54.307 -55.117  1.00  0.00     0.001 A 
HETATM   32  C   UNL     1     -40.621  55.389 -54.328  1.00  0.00     0.016 A 
BRANCH  28  33
HETATM   33  O   UNL     1     -41.404  53.600 -51.207  1.00  0.00    -0.360 OA
HETATM   34  H   UNL     1     -42.022  52.847 -51.225  1.00  0.00     0.217 HD
ENDBRANCH  28  33
ENDBRANCH  10  27
TORSDOF 7
ENDMDL
MODEL 7
REMARK VINA RESULT:      -6.8      3.894      8.299
REMARK  7 active torsions:
REMARK  status: ('A' for Active; 'I' for Inactive)
REMARK    1  A    between atoms: S_2  and  C_3 
REMARK    2  A    between atoms: C_6  and  C_7 
REMARK    3  A    between atoms: N_8  and  C_9 
REMARK    4  A    between atoms: C_9  and  C_10 
REMARK    5  A    between atoms: C_10  and  C_11 
REMARK    6  A    between atoms: C_24  and  C_25 
REMARK    7  A    between atoms: C_26  and  O_27 
ROOT
HETATM    1  C   UNL     1     -43.763  56.831 -55.030  1.00  0.00     0.159 A 
HETATM    2  N   UNL     1     -43.318  55.762 -55.958  1.00  0.00    -0.333 N 
HETATM    3  C   UNL     1     -43.232  56.173 -57.301  1.00  0.00     0.275 A 
HETATM    4  O   UNL     1     -42.860  55.512 -58.257  1.00  0.00    -0.266 OA
HETATM    5  C   UNL     1     -43.645  57.559 -57.277  1.00  0.00     0.155 A 
HETATM    6  C   UNL     1     -43.933  57.962 -55.971  1.00  0.00     0.034 A 
HETATM    7  N   UNL     1     -43.746  58.544 -58.165  1.00  0.00    -0.168 NA
HETATM    8  N   UNL     1     -44.133  59.590 -57.394  1.00  0.00    -0.276 N 
HETATM    9  H   UNL     1     -44.294  60.488 -57.840  1.00  0.00     0.189 HD
HETATM   10  C   UNL     1     -44.210  59.304 -56.040  1.00  0.00     0.074 A 
ENDROOT
BRANCH   1  11
HETATM   11  C   UNL     1     -42.755  57.271 -53.997  1.00  0.00    -0.031 A 
HETATM   12  C   UNL     1     -41.486  57.773 -54.332  1.00  0.00     0.011 A 
HETATM   13  C   UNL     1     -40.609  58.217 -53.339  1.00  0.00     0.019 A 
HETATM   14  C   UNL     1     -40.986  58.176 -51.994  1.00  0.00    -0.000 A 
HETATM   15  C   UNL     1     -42.232  57.655 -51.647  1.00  0.00     0.019 A 
HETATM   16  C   UNL     1     -43.109  57.209 -52.638  1.00  0.00     0.011 A 
BRANCH  14  17
HETATM   17  S   UNL     1     -39.871  58.781 -50.744  1.00  0.00    -0.134 SA
HETATM   18  C   UNL     1     -41.001  59.903 -49.879  1.00  0.00     0.095 C 
ENDBRANCH  14  17
ENDBRANCH   1  11
BRANCH   2  19
HETATM   19  C   UNL     1     -42.848  54.452 -55.527  1.00  0.00     0.132 C 
BRANCH  19  20
HETATM   20  C   UNL     1     -41.329  54.283 -55.398  1.00  0.00     0.058 C 
BRANCH  20  21
HETATM   21  C   UNL     1     -40.809  53.608 -54.149  1.00  0.00    -0.057 A 
HETATM   22  C   UNL     1     -40.922  54.179 -52.874  1.00  0.00     0.007 A 
HETATM   23  C   UNL     1     -40.443  53.505 -51.749  1.00  0.00     0.001 A 
HETATM   24  C   UNL     1     -39.859  52.247 -51.880  1.00  0.00     0.000 A 
HETATM   25  C   UNL     1     -39.759  51.657 -53.136  1.00  0.00     0.001 A 
HETATM   26  C   UNL     1     -40.234  52.331 -54.262  1.00  0.00     0.007 A 
ENDBRANCH  20  21
ENDBRANCH  19  20
ENDBRANCH   2  19
BRANCH  10  27
HETATM   27  C   UNL     1     -44.495  60.305 -55.024  1.00  0.00     0.026 A 
HETATM   28  C   UNL     1     -43.809  61.529 -54.980  1.00  0.00     0.078 A 
HETATM   29  C   UNL     1     -44.123  62.499 -54.032  1.00  0.00     0.037 A 
HETATM   30  C   UNL     1     -45.114  62.244 -53.086  1.00  0.00     0.003 A 
HETATM   31  C   UNL     1     -45.789  61.024 -53.097  1.00  0.00     0.001 A 
HETATM   32  C   UNL     1     -45.485  60.061 -54.063  1.00  0.00     0.016 A 
BRANCH  28  33
HETATM   33  O   UNL     1     -42.783  61.822 -55.838  1.00  0.00    -0.360 OA
HETATM   34  H   UNL     1     -42.748  61.111 -56.505  1.00  0.00     0.217 HD
ENDBRANCH  28  33
ENDBRANCH  10  27
TORSDOF 7
ENDMDL
MODEL 8
REMARK VINA RESULT:      -6.6      2.622      7.519
REMARK  7 active torsions:
REMARK  status: ('A' for Active; 'I' for Inactive)
REMARK    1  A    between atoms: S_2  and  C_3 
REMARK    2  A    between atoms: C_6  and  C_7 
REMARK    3  A    between atoms: N_8  and  C_9 
REMARK    4  A    between atoms: C_9  and  C_10 
REMARK    5  A    between atoms: C_10  and  C_11 
REMARK    6  A    between atoms: C_24  and  C_25 
REMARK    7  A    between atoms: C_26  and  O_27 
ROOT
HETATM    1  C   UNL     1     -42.606  58.157 -52.722  1.00  0.00     0.159 A 
HETATM    2  N   UNL     1     -42.362  56.818 -52.130  1.00  0.00    -0.333 N 
HETATM    3  C   UNL     1     -43.364  56.400 -51.235  1.00  0.00     0.275 A 
HETATM    4  O   UNL     1     -43.432  55.337 -50.641  1.00  0.00    -0.266 OA
HETATM    5  C   UNL     1     -44.306  57.499 -51.215  1.00  0.00     0.155 A 
HETATM    6  C   UNL     1     -43.896  58.512 -52.084  1.00  0.00     0.034 A 
HETATM    7  N   UNL     1     -45.478  57.745 -50.637  1.00  0.00    -0.168 NA
HETATM    8  N   UNL     1     -45.800  58.962 -51.144  1.00  0.00    -0.276 N 
HETATM    9  H   UNL     1     -46.670  59.394 -50.849  1.00  0.00     0.189 HD
HETATM   10  C   UNL     1     -44.896  59.450 -52.073  1.00  0.00     0.074 A 
ENDROOT
BRANCH   1  11
HETATM   11  C   UNL     1     -42.835  58.188 -54.214  1.00  0.00    -0.031 A 
HETATM   12  C   UNL     1     -43.778  57.372 -54.860  1.00  0.00     0.011 A 
HETATM   13  C   UNL     1     -43.988  57.478 -56.238  1.00  0.00     0.019 A 
HETATM   14  C   UNL     1     -43.266  58.404 -56.993  1.00  0.00    -0.000 A 
HETATM   15  C   UNL     1     -42.308  59.201 -56.367  1.00  0.00     0.019 A 
HETATM   16  C   UNL     1     -42.095  59.096 -54.992  1.00  0.00     0.011 A 
BRANCH  14  17
HETATM   17  S   UNL     1     -43.573  58.552 -58.742  1.00  0.00    -0.134 SA
HETATM   18  C   UNL     1     -44.337  56.934 -59.030  1.00  0.00     0.095 C 
ENDBRANCH  14  17
ENDBRANCH   1  11
BRANCH   2  19
HETATM   19  C   UNL     1     -41.286  55.928 -52.543  1.00  0.00     0.132 C 
BRANCH  19  20
HETATM   20  C   UNL     1     -41.685  54.743 -53.431  1.00  0.00     0.058 C 
BRANCH  20  21
HETATM   21  C   UNL     1     -40.947  53.441 -53.224  1.00  0.00    -0.057 A 
HETATM   22  C   UNL     1     -40.684  52.542 -54.267  1.00  0.00     0.007 A 
HETATM   23  C   UNL     1     -39.980  51.360 -54.027  1.00  0.00     0.001 A 
HETATM   24  C   UNL     1     -39.517  51.067 -52.746  1.00  0.00     0.000 A 
HETATM   25  C   UNL     1     -39.752  51.959 -51.704  1.00  0.00     0.001 A 
HETATM   26  C   UNL     1     -40.458  53.139 -51.941  1.00  0.00     0.007 A 
ENDBRANCH  20  21
ENDBRANCH  19  20
ENDBRANCH   2  19
BRANCH  10  27
HETATM   27  C   UNL     1     -45.103  60.680 -52.823  1.00  0.00     0.026 A 
HETATM   28  C   UNL     1     -44.988  61.941 -52.218  1.00  0.00     0.078 A 
HETATM   29  C   UNL     1     -45.140  63.112 -52.957  1.00  0.00     0.037 A 
HETATM   30  C   UNL     1     -45.443  63.037 -54.314  1.00  0.00     0.003 A 
HETATM   31  C   UNL     1     -45.587  61.793 -54.928  1.00  0.00     0.001 A 
HETATM   32  C   UNL     1     -45.414  60.620 -54.188  1.00  0.00     0.016 A 
BRANCH  28  33
HETATM   33  O   UNL     1     -44.752  62.089 -50.878  1.00  0.00    -0.360 OA
HETATM   34  H   UNL     1     -44.201  62.885 -50.764  1.00  0.00     0.217 HD
ENDBRANCH  28  33
ENDBRANCH  10  27
TORSDOF 7
ENDMDL
MODEL 9
REMARK VINA RESULT:      -6.6      4.122      6.505
REMARK  7 active torsions:
REMARK  status: ('A' for Active; 'I' for Inactive)
REMARK    1  A    between atoms: S_2  and  C_3 
REMARK    2  A    between atoms: C_6  and  C_7 
REMARK    3  A    between atoms: N_8  and  C_9 
REMARK    4  A    between atoms: C_9  and  C_10 
REMARK    5  A    between atoms: C_10  and  C_11 
REMARK    6  A    between atoms: C_24  and  C_25 
REMARK    7  A    between atoms: C_26  and  O_27 
ROOT
HETATM    1  C   UNL     1     -42.137  58.328 -56.632  1.00  0.00     0.159 A 
HETATM    2  N   UNL     1     -42.655  59.105 -57.785  1.00  0.00    -0.333 N 
HETATM    3  C   UNL     1     -43.371  58.332 -58.717  1.00  0.00     0.275 A 
HETATM    4  O   UNL     1     -43.932  58.720 -59.729  1.00  0.00    -0.266 OA
HETATM    5  C   UNL     1     -43.322  56.989 -58.179  1.00  0.00     0.155 A 
HETATM    6  C   UNL     1     -42.634  56.972 -56.965  1.00  0.00     0.034 A 
HETATM    7  N   UNL     1     -43.824  55.804 -58.516  1.00  0.00    -0.168 NA
HETATM    8  N   UNL     1     -43.415  55.016 -57.490  1.00  0.00    -0.276 N 
HETATM    9  H   UNL     1     -43.665  54.032 -57.506  1.00  0.00     0.189 HD
HETATM   10  C   UNL     1     -42.732  55.689 -56.490  1.00  0.00     0.074 A 
ENDROOT
BRANCH   1  11
HETATM   11  C   UNL     1     -42.713  58.683 -55.283  1.00  0.00    -0.031 A 
HETATM   12  C   UNL     1     -44.058  58.460 -54.942  1.00  0.00     0.011 A 
HETATM   13  C   UNL     1     -44.529  58.758 -53.661  1.00  0.00     0.019 A 
HETATM   14  C   UNL     1     -43.665  59.278 -52.694  1.00  0.00    -0.000 A 
HETATM   15  C   UNL     1     -42.335  59.530 -53.028  1.00  0.00     0.019 A 
HETATM   16  C   UNL     1     -41.863  59.234 -54.308  1.00  0.00     0.011 A 
BRANCH  14  17
HETATM   17  S   UNL     1     -44.274  59.617 -51.055  1.00  0.00    -0.134 SA
HETATM   18  C   UNL     1     -43.325  61.123 -50.710  1.00  0.00     0.095 C 
ENDBRANCH  14  17
ENDBRANCH   1  11
BRANCH   2  19
HETATM   19  C   UNL     1     -42.588  60.556 -57.885  1.00  0.00     0.132 C 
BRANCH  19  20
HETATM   20  C   UNL     1     -43.913  61.311 -57.723  1.00  0.00     0.058 C 
BRANCH  20  21
HETATM   21  C   UNL     1     -44.297  61.749 -56.328  1.00  0.00    -0.057 A 
HETATM   22  C   UNL     1     -43.390  62.350 -55.444  1.00  0.00     0.007 A 
HETATM   23  C   UNL     1     -43.799  62.754 -54.171  1.00  0.00     0.001 A 
HETATM   24  C   UNL     1     -45.122  62.577 -53.771  1.00  0.00     0.000 A 
HETATM   25  C   UNL     1     -46.039  62.002 -54.644  1.00  0.00     0.001 A 
HETATM   26  C   UNL     1     -45.631  61.594 -55.915  1.00  0.00     0.007 A 
ENDBRANCH  20  21
ENDBRANCH  19  20
ENDBRANCH   2  19
BRANCH  10  27
HETATM   27  C   UNL     1     -42.304  55.061 -55.249  1.00  0.00     0.026 A 
HETATM   28  C   UNL     1     -43.220  54.711 -54.245  1.00  0.00     0.078 A 
HETATM   29  C   UNL     1     -42.805  54.066 -53.082  1.00  0.00     0.037 A 
HETATM   30  C   UNL     1     -41.452  53.792 -52.891  1.00  0.00     0.003 A 
HETATM   31  C   UNL     1     -40.524  54.156 -53.865  1.00  0.00     0.001 A 
HETATM   32  C   UNL     1     -40.947  54.784 -55.040  1.00  0.00     0.016 A 
BRANCH  28  33
HETATM   33  O   UNL     1     -44.554  55.005 -54.339  1.00  0.00    -0.360 OA
HETATM   34  H   UNL     1     -44.995  54.234 -54.740  1.00  0.00     0.217 HD
ENDBRANCH  28  33
ENDBRANCH  10  27
TORSDOF 7
ENDMDL
MODEL 10
REMARK VINA RESULT:      -6.5      3.683      7.009
REMARK  7 active torsions:
REMARK  status: ('A' for Active; 'I' for Inactive)
REMARK    1  A    between atoms: S_2  and  C_3 
REMARK    2  A    between atoms: C_6  and  C_7 
REMARK    3  A    between atoms: N_8  and  C_9 
REMARK    4  A    between atoms: C_9  and  C_10 
REMARK    5  A    between atoms: C_10  and  C_11 
REMARK    6  A    between atoms: C_24  and  C_25 
REMARK    7  A    between atoms: C_26  and  O_27 
ROOT
HETATM    1  C   UNL     1     -43.247  56.724 -56.477  1.00  0.00     0.159 A 
HETATM    2  N   UNL     1     -42.695  57.118 -57.797  1.00  0.00    -0.333 N 
HETATM    3  C   UNL     1     -42.135  58.409 -57.817  1.00  0.00     0.275 A 
HETATM    4  O   UNL     1     -41.583  58.964 -58.754  1.00  0.00    -0.266 OA
HETATM    5  C   UNL     1     -42.328  58.903 -56.471  1.00  0.00     0.155 A 
HETATM    6  C   UNL     1     -42.948  57.935 -55.678  1.00  0.00     0.034 A 
HETATM    7  N   UNL     1     -42.003  60.004 -55.799  1.00  0.00    -0.168 NA
HETATM    8  N   UNL     1     -42.455  59.724 -54.551  1.00  0.00    -0.276 N 
HETATM    9  H   UNL     1     -42.335  60.424 -53.825  1.00  0.00     0.189 HD
HETATM   10  C   UNL     1     -42.991  58.454 -54.409  1.00  0.00     0.074 A 
ENDROOT
BRANCH   1  11
HETATM   11  C   UNL     1     -42.559  55.569 -55.791  1.00  0.00    -0.031 A 
HETATM   12  C   UNL     1     -43.234  54.400 -55.402  1.00  0.00     0.011 A 
HETATM   13  C   UNL     1     -42.540  53.336 -54.817  1.00  0.00     0.019 A 
HETATM   14  C   UNL     1     -41.160  53.418 -54.618  1.00  0.00    -0.000 A 
HETATM   15  C   UNL     1     -40.484  54.584 -54.976  1.00  0.00     0.019 A 
HETATM   16  C   UNL     1     -41.175  55.648 -55.558  1.00  0.00     0.011 A 
BRANCH  14  17
HETATM   17  S   UNL     1     -40.286  52.039 -53.906  1.00  0.00    -0.134 SA
HETATM   18  C   UNL     1     -40.146  52.643 -52.203  1.00  0.00     0.095 C 
ENDBRANCH  14  17
ENDBRANCH   1  11
BRANCH   2  19
HETATM   19  C   UNL     1     -42.579  56.216 -58.934  1.00  0.00     0.132 C 
BRANCH  19  20
HETATM   20  C   UNL     1     -43.855  55.471 -59.345  1.00  0.00     0.058 C 
BRANCH  20  21
HETATM   21  C   UNL     1     -45.019  56.305 -59.831  1.00  0.00    -0.057 A 
HETATM   22  C   UNL     1     -44.992  57.706 -59.856  1.00  0.00     0.007 A 
HETATM   23  C   UNL     1     -46.086  58.430 -60.334  1.00  0.00     0.001 A 
HETATM   24  C   UNL     1     -47.216  57.764 -60.805  1.00  0.00     0.000 A 
HETATM   25  C   UNL     1     -47.250  56.374 -60.806  1.00  0.00     0.001 A 
HETATM   26  C   UNL     1     -46.158  55.648 -60.327  1.00  0.00     0.007 A 
ENDBRANCH  20  21
ENDBRANCH  19  20
ENDBRANCH   2  19
BRANCH  10  27
HETATM   27  C   UNL     1     -43.430  57.907 -53.134  1.00  0.00     0.026 A 
HETATM   28  C   UNL     1     -44.602  58.354 -52.504  1.00  0.00     0.078 A 
HETATM   29  C   UNL     1     -45.039  57.790 -51.308  1.00  0.00     0.037 A 
HETATM   30  C   UNL     1     -44.286  56.784 -50.705  1.00  0.00     0.003 A 
HETATM   31  C   UNL     1     -43.105  56.345 -51.302  1.00  0.00     0.001 A 
HETATM   32  C   UNL     1     -42.681  56.900 -52.513  1.00  0.00     0.016 A 
BRANCH  28  33
HETATM   33  O   UNL     1     -45.357  59.379 -53.008  1.00  0.00    -0.360 OA
HETATM   34  H   UNL     1     -46.101  58.981 -53.496  1.00  0.00     0.217 HD
ENDBRANCH  28  33
ENDBRANCH  10  27
TORSDOF 7
ENDMDL
