MODEL 1
REMARK VINA RESULT:      -9.7      0.000      0.000
REMARK  2 active torsions:
REMARK  status: ('A' for Active; 'I' for Inactive)
REMARK    1  A    between atoms: C_7  and  C_8 
REMARK       I    between atoms: C_8  and  N_9 
REMARK    2  A    between atoms: N_9  and  N_10 
ROOT
HETATM    1  C   UNL     1     -41.324  58.249 -53.804  1.00  0.00     0.292 C 
HETATM    2  N   UNL     1     -42.386  58.212 -54.695  1.00  0.00    -0.241 N 
HETATM    3  O   UNL     1     -40.569  59.198 -53.619  1.00  0.00    -0.264 OA
HETATM    4  H   UNL     1     -42.827  57.306 -54.803  1.00  0.00     0.192 HD
ENDROOT
BRANCH   1   5
HETATM    5  C   UNL     1     -41.199  56.977 -53.067  1.00  0.00     0.154 A 
HETATM    6  C   UNL     1     -40.776  55.720 -53.566  1.00  0.00     0.007 A 
HETATM    7  C   UNL     1     -40.799  54.862 -52.489  1.00  0.00     0.069 A 
HETATM    8  C   UNL     1     -40.329  55.268 -54.911  1.00  0.00     0.048 C 
HETATM    9  C   UNL     1     -40.431  53.458 -52.548  1.00  0.00    -0.001 A 
HETATM   10  N   UNL     1     -41.238  55.601 -51.435  1.00  0.00    -0.276 N 
HETATM   11  C   UNL     1     -40.252  52.908 -53.842  1.00  0.00    -0.045 A 
HETATM   12  C   UNL     1     -40.226  52.666 -51.417  1.00  0.00     0.014 A 
HETATM   13  C   UNL     1     -39.896  51.560 -53.972  1.00  0.00     0.008 A 
HETATM   14  C   UNL     1     -40.546  53.744 -55.083  1.00  0.00     0.044 C 
HETATM   15  C   UNL     1     -39.693  50.778 -52.835  1.00  0.00     0.001 A 
HETATM   16  C   UNL     1     -39.856  51.328 -51.563  1.00  0.00     0.001 A 
HETATM   17  N   UNL     1     -41.494  56.890 -51.745  1.00  0.00    -0.168 NA
HETATM   18  H   UNL     1     -41.394  55.292 -50.481  1.00  0.00     0.189 HD
ENDBRANCH   1   5
BRANCH   2  19
HETATM   19  N   UNL     1     -42.606  59.217 -55.581  1.00  0.00    -0.165 NA
HETATM   20  C   UNL     1     -42.769  58.938 -56.835  1.00  0.00     0.157 A 
HETATM   21  C   UNL     1     -42.872  60.068 -57.883  1.00  0.00     0.277 A 
HETATM   22  C   UNL     1     -42.882  57.682 -57.595  1.00  0.00     0.027 A 
HETATM   23  O   UNL     1     -42.862  61.260 -57.670  1.00  0.00    -0.266 OA
HETATM   24  N   UNL     1     -42.961  59.433 -59.099  1.00  0.00    -0.321 N 
HETATM   25  C   UNL     1     -42.974  58.054 -58.941  1.00  0.00     0.048 A 
HETATM   26  H   UNL     1     -43.043  59.937 -59.969  1.00  0.00     0.169 HD
HETATM   27  C   UNL     1     -43.095  57.124 -59.956  1.00  0.00     0.030 A 
HETATM   28  C   UNL     1     -43.135  55.777 -59.595  1.00  0.00     0.002 A 
HETATM   29  C   UNL     1     -43.072  55.394 -58.244  1.00  0.00     0.001 A 
HETATM   30  C   UNL     1     -42.954  56.350 -57.227  1.00  0.00     0.016 A 
ENDBRANCH   2  19
TORSDOF 2
ENDMDL
MODEL 2
REMARK VINA RESULT:      -9.4      2.649      7.957
REMARK  2 active torsions:
REMARK  status: ('A' for Active; 'I' for Inactive)
REMARK    1  A    between atoms: C_7  and  C_8 
REMARK       I    between atoms: C_8  and  N_9 
REMARK    2  A    between atoms: N_9  and  N_10 
ROOT
HETATM    1  C   UNL     1     -42.623  55.187 -53.477  1.00  0.00     0.292 C 
HETATM    2  N   UNL     1     -41.315  54.875 -53.138  1.00  0.00    -0.241 N 
HETATM    3  O   UNL     1     -43.573  55.254 -52.704  1.00  0.00    -0.264 OA
HETATM    4  H   UNL     1     -40.685  54.747 -53.923  1.00  0.00     0.192 HD
ENDROOT
BRANCH   1   5
HETATM    5  C   UNL     1     -42.753  55.450 -54.923  1.00  0.00     0.154 A 
HETATM    6  C   UNL     1     -42.469  56.651 -55.619  1.00  0.00     0.007 A 
HETATM    7  C   UNL     1     -42.718  56.383 -56.946  1.00  0.00     0.069 A 
HETATM    8  C   UNL     1     -41.965  57.979 -55.174  1.00  0.00     0.048 C 
HETATM    9  C   UNL     1     -42.551  57.343 -58.024  1.00  0.00    -0.001 A 
HETATM   10  N   UNL     1     -43.145  55.093 -56.991  1.00  0.00    -0.276 N 
HETATM   11  C   UNL     1     -42.331  58.689 -57.640  1.00  0.00    -0.045 A 
HETATM   12  C   UNL     1     -42.571  56.995 -59.376  1.00  0.00     0.014 A 
HETATM   13  C   UNL     1     -42.161  59.666 -58.628  1.00  0.00     0.008 A 
HETATM   14  C   UNL     1     -42.382  59.090 -56.169  1.00  0.00     0.044 C 
HETATM   15  C   UNL     1     -42.182  59.309 -59.976  1.00  0.00     0.001 A 
HETATM   16  C   UNL     1     -42.385  57.979 -60.349  1.00  0.00     0.001 A 
HETATM   17  N   UNL     1     -43.183  54.491 -55.783  1.00  0.00    -0.168 NA
HETATM   18  H   UNL     1     -43.434  54.562 -57.805  1.00  0.00     0.189 HD
ENDBRANCH   1   5
BRANCH   2  19
HETATM   19  N   UNL     1     -40.984  54.458 -51.889  1.00  0.00    -0.165 NA
HETATM   20  C   UNL     1     -40.576  53.242 -51.709  1.00  0.00     0.157 A 
HETATM   21  C   UNL     1     -40.336  52.699 -50.284  1.00  0.00     0.277 A 
HETATM   22  C   UNL     1     -40.261  52.126 -52.616  1.00  0.00     0.027 A 
HETATM   23  O   UNL     1     -40.446  53.310 -49.244  1.00  0.00    -0.266 OA
HETATM   24  N   UNL     1     -39.991  51.379 -50.448  1.00  0.00    -0.321 N 
HETATM   25  C   UNL     1     -39.938  51.041 -51.793  1.00  0.00     0.048 A 
HETATM   26  H   UNL     1     -39.773  50.774 -49.670  1.00  0.00     0.169 HD
HETATM   27  C   UNL     1     -39.585  49.807 -52.305  1.00  0.00     0.030 A 
HETATM   28  C   UNL     1     -39.545  49.673 -53.693  1.00  0.00     0.002 A 
HETATM   29  C   UNL     1     -39.840  50.764 -54.529  1.00  0.00     0.001 A 
HETATM   30  C   UNL     1     -40.193  52.009 -53.993  1.00  0.00     0.016 A 
ENDBRANCH   2  19
TORSDOF 2
ENDMDL
MODEL 3
REMARK VINA RESULT:      -9.3      1.662      2.396
REMARK  2 active torsions:
REMARK  status: ('A' for Active; 'I' for Inactive)
REMARK    1  A    between atoms: C_7  and  C_8 
REMARK       I    between atoms: C_8  and  N_9 
REMARK    2  A    between atoms: N_9  and  N_10 
ROOT
HETATM    1  C   UNL     1     -41.403  56.421 -54.264  1.00  0.00     0.292 C 
HETATM    2  N   UNL     1     -42.621  56.497 -54.921  1.00  0.00    -0.241 N 
HETATM    3  O   UNL     1     -40.802  57.356 -53.744  1.00  0.00    -0.264 OA
HETATM    4  H   UNL     1     -42.910  55.648 -55.394  1.00  0.00     0.192 HD
ENDROOT
BRANCH   1   5
HETATM    5  C   UNL     1     -40.888  55.038 -54.249  1.00  0.00     0.154 A 
HETATM    6  C   UNL     1     -40.797  54.155 -53.145  1.00  0.00     0.007 A 
HETATM    7  C   UNL     1     -40.284  52.979 -53.646  1.00  0.00     0.069 A 
HETATM    8  C   UNL     1     -41.168  54.292 -51.711  1.00  0.00     0.048 C 
HETATM    9  C   UNL     1     -40.028  51.790 -52.853  1.00  0.00    -0.001 A 
HETATM   10  N   UNL     1     -40.075  53.201 -54.972  1.00  0.00    -0.276 N 
HETATM   11  C   UNL     1     -40.110  51.941 -51.447  1.00  0.00    -0.045 A 
HETATM   12  C   UNL     1     -39.741  50.541 -53.408  1.00  0.00     0.014 A 
HETATM   13  C   UNL     1     -39.876  50.834 -50.622  1.00  0.00     0.008 A 
HETATM   14  C   UNL     1     -40.349  53.316 -50.832  1.00  0.00     0.044 C 
HETATM   15  C   UNL     1     -39.591  49.590 -51.186  1.00  0.00     0.001 A 
HETATM   16  C   UNL     1     -39.525  49.443 -52.572  1.00  0.00     0.001 A 
HETATM   17  N   UNL     1     -40.428  54.439 -55.378  1.00  0.00    -0.168 NA
HETATM   18  H   UNL     1     -39.691  52.559 -55.657  1.00  0.00     0.189 HD
ENDBRANCH   1   5
BRANCH   2  19
HETATM   19  N   UNL     1     -43.216  57.690 -55.181  1.00  0.00    -0.165 NA
HETATM   20  C   UNL     1     -43.541  57.988 -56.399  1.00  0.00     0.157 A 
HETATM   21  C   UNL     1     -44.080  59.394 -56.744  1.00  0.00     0.277 A 
HETATM   22  C   UNL     1     -43.512  57.253 -57.674  1.00  0.00     0.027 A 
HETATM   23  O   UNL     1     -44.293  60.301 -55.971  1.00  0.00    -0.266 OA
HETATM   24  N   UNL     1     -44.248  59.397 -58.108  1.00  0.00    -0.321 N 
HETATM   25  C   UNL     1     -43.929  58.161 -58.653  1.00  0.00     0.048 A 
HETATM   26  H   UNL     1     -44.597  60.200 -58.610  1.00  0.00     0.169 HD
HETATM   27  C   UNL     1     -44.026  57.815 -59.987  1.00  0.00     0.030 A 
HETATM   28  C   UNL     1     -43.703  56.504 -60.337  1.00  0.00     0.002 A 
HETATM   29  C   UNL     1     -43.310  55.575 -59.358  1.00  0.00     0.001 A 
HETATM   30  C   UNL     1     -43.221  55.942 -58.009  1.00  0.00     0.016 A 
ENDBRANCH   2  19
TORSDOF 2
ENDMDL
MODEL 4
REMARK VINA RESULT:      -9.3      1.655      2.231
REMARK  2 active torsions:
REMARK  status: ('A' for Active; 'I' for Inactive)
REMARK    1  A    between atoms: C_7  and  C_8 
REMARK       I    between atoms: C_8  and  N_9 
REMARK    2  A    between atoms: N_9  and  N_10 
ROOT
HETATM    1  C   UNL     1     -41.645  56.763 -51.871  1.00  0.00     0.292 C 
HETATM    2  N   UNL     1     -42.916  56.876 -52.414  1.00  0.00    -0.241 N 
HETATM    3  O   UNL     1     -40.832  57.672 -51.739  1.00  0.00    -0.264 OA
HETATM    4  H   UNL     1     -43.404  55.998 -52.556  1.00  0.00     0.192 HD
ENDROOT
BRANCH   1   5
HETATM    5  C   UNL     1     -41.366  55.378 -51.445  1.00  0.00     0.154 A 
HETATM    6  C   UNL     1     -40.873  54.308 -52.232  1.00  0.00     0.007 A 
HETATM    7  C   UNL     1     -40.753  53.237 -51.375  1.00  0.00     0.069 A 
HETATM    8  C   UNL     1     -40.478  54.207 -53.663  1.00  0.00     0.048 C 
HETATM    9  C   UNL     1     -40.274  51.922 -51.765  1.00  0.00    -0.001 A 
HETATM   10  N   UNL     1     -41.183  53.680 -50.163  1.00  0.00    -0.276 N 
HETATM   11  C   UNL     1     -40.134  51.689 -53.155  1.00  0.00    -0.045 A 
HETATM   12  C   UNL     1     -39.930  50.924 -50.850  1.00  0.00     0.014 A 
HETATM   13  C   UNL     1     -39.675  50.443 -53.601  1.00  0.00     0.008 A 
HETATM   14  C   UNL     1     -40.578  52.745 -54.162  1.00  0.00     0.044 C 
HETATM   15  C   UNL     1     -39.334  49.454 -52.679  1.00  0.00     0.001 A 
HETATM   16  C   UNL     1     -39.459  49.693 -51.310  1.00  0.00     0.001 A 
HETATM   17  N   UNL     1     -41.566  54.975 -50.164  1.00  0.00    -0.168 NA
HETATM   18  H   UNL     1     -41.250  53.156 -49.298  1.00  0.00     0.189 HD
ENDBRANCH   1   5
BRANCH   2  19
HETATM   19  N   UNL     1     -43.339  58.024 -53.002  1.00  0.00    -0.165 NA
HETATM   20  C   UNL     1     -43.418  58.088 -54.293  1.00  0.00     0.157 A 
HETATM   21  C   UNL     1     -43.751  59.425 -54.992  1.00  0.00     0.277 A 
HETATM   22  C   UNL     1     -43.240  57.108 -55.377  1.00  0.00     0.027 A 
HETATM   23  O   UNL     1     -44.006  60.481 -54.459  1.00  0.00    -0.266 OA
HETATM   24  N   UNL     1     -43.680  59.161 -56.340  1.00  0.00    -0.321 N 
HETATM   25  C   UNL     1     -43.392  57.823 -56.571  1.00  0.00     0.048 A 
HETATM   26  H   UNL     1     -43.858  59.864 -57.040  1.00  0.00     0.169 HD
HETATM   27  C   UNL     1     -43.290  57.219 -57.809  1.00  0.00     0.030 A 
HETATM   28  C   UNL     1     -43.039  55.847 -57.839  1.00  0.00     0.002 A 
HETATM   29  C   UNL     1     -42.913  55.114 -56.646  1.00  0.00     0.001 A 
HETATM   30  C   UNL     1     -43.023  55.742 -55.398  1.00  0.00     0.016 A 
ENDBRANCH   2  19
TORSDOF 2
ENDMDL
MODEL 5
REMARK VINA RESULT:      -9.3      2.296      7.318
REMARK  2 active torsions:
REMARK  status: ('A' for Active; 'I' for Inactive)
REMARK    1  A    between atoms: C_7  and  C_8 
REMARK       I    between atoms: C_8  and  N_9 
REMARK    2  A    between atoms: N_9  and  N_10 
ROOT
HETATM    1  C   UNL     1     -43.235  56.827 -52.200  1.00  0.00     0.292 C 
HETATM    2  N   UNL     1     -41.909  56.639 -51.838  1.00  0.00    -0.241 N 
HETATM    3  O   UNL     1     -44.215  56.586 -51.503  1.00  0.00    -0.264 OA
HETATM    4  H   UNL     1     -41.235  56.776 -52.583  1.00  0.00     0.192 HD
ENDROOT
BRANCH   1   5
HETATM    5  C   UNL     1     -43.344  57.375 -53.566  1.00  0.00     0.154 A 
HETATM    6  C   UNL     1     -43.346  56.665 -54.791  1.00  0.00     0.007 A 
HETATM    7  C   UNL     1     -43.503  57.615 -55.775  1.00  0.00     0.069 A 
HETATM    8  C   UNL     1     -43.255  55.215 -55.117  1.00  0.00     0.048 C 
HETATM    9  C   UNL     1     -43.564  57.324 -57.197  1.00  0.00    -0.001 A 
HETATM   10  N   UNL     1     -43.563  58.811 -55.131  1.00  0.00    -0.276 N 
HETATM   11  C   UNL     1     -43.221  56.005 -57.585  1.00  0.00    -0.045 A 
HETATM   12  C   UNL     1     -43.962  58.255 -58.158  1.00  0.00     0.014 A 
HETATM   13  C   UNL     1     -43.259  55.656 -58.941  1.00  0.00     0.008 A 
HETATM   14  C   UNL     1     -42.714  55.004 -56.552  1.00  0.00     0.044 C 
HETATM   15  C   UNL     1     -43.659  56.593 -59.893  1.00  0.00     0.001 A 
HETATM   16  C   UNL     1     -44.010  57.887 -59.505  1.00  0.00     0.001 A 
HETATM   17  N   UNL     1     -43.469  58.708 -53.788  1.00  0.00    -0.168 NA
HETATM   18  H   UNL     1     -43.660  59.734 -55.540  1.00  0.00     0.189 HD
ENDBRANCH   1   5
BRANCH   2  19
HETATM   19  N   UNL     1     -41.569  56.013 -50.682  1.00  0.00    -0.165 NA
HETATM   20  C   UNL     1     -41.082  54.814 -50.725  1.00  0.00     0.157 A 
HETATM   21  C   UNL     1     -40.827  54.025 -49.422  1.00  0.00     0.277 A 
HETATM   22  C   UNL     1     -40.678  53.914 -51.818  1.00  0.00     0.027 A 
HETATM   23  O   UNL     1     -40.993  54.418 -48.290  1.00  0.00    -0.266 OA
HETATM   24  N   UNL     1     -40.389  52.785 -49.825  1.00  0.00    -0.321 N 
HETATM   25  C   UNL     1     -40.294  52.715 -51.208  1.00  0.00     0.048 A 
HETATM   26  H   UNL     1     -40.143  52.058 -49.170  1.00  0.00     0.169 HD
HETATM   27  C   UNL     1     -39.849  51.627 -51.934  1.00  0.00     0.030 A 
HETATM   28  C   UNL     1     -39.780  51.763 -53.321  1.00  0.00     0.002 A 
HETATM   29  C   UNL     1     -40.135  52.973 -53.943  1.00  0.00     0.001 A 
HETATM   30  C   UNL     1     -40.581  54.068 -53.190  1.00  0.00     0.016 A 
ENDBRANCH   2  19
TORSDOF 2
ENDMDL
MODEL 6
REMARK VINA RESULT:      -8.7      1.569      1.990
REMARK  2 active torsions:
REMARK  status: ('A' for Active; 'I' for Inactive)
REMARK    1  A    between atoms: C_7  and  C_8 
REMARK       I    between atoms: C_8  and  N_9 
REMARK    2  A    between atoms: N_9  and  N_10 
ROOT
HETATM    1  C   UNL     1     -42.786  58.982 -53.814  1.00  0.00     0.292 C 
HETATM    2  N   UNL     1     -41.722  59.009 -54.704  1.00  0.00    -0.241 N 
HETATM    3  O   UNL     1     -43.852  59.574 -53.946  1.00  0.00    -0.264 OA
HETATM    4  H   UNL     1     -40.874  58.559 -54.377  1.00  0.00     0.192 HD
ENDROOT
BRANCH   1   5
HETATM    5  C   UNL     1     -42.488  58.126 -52.651  1.00  0.00     0.154 A 
HETATM    6  C   UNL     1     -41.923  56.827 -52.648  1.00  0.00     0.007 A 
HETATM    7  C   UNL     1     -41.816  56.467 -51.323  1.00  0.00     0.069 A 
HETATM    8  C   UNL     1     -41.452  55.930 -53.738  1.00  0.00     0.048 C 
HETATM    9  C   UNL     1     -41.278  55.201 -50.855  1.00  0.00    -0.001 A 
HETATM   10  N   UNL     1     -42.321  57.511 -50.613  1.00  0.00    -0.276 N 
HETATM   11  C   UNL     1     -41.061  54.207 -51.841  1.00  0.00    -0.045 A 
HETATM   12  C   UNL     1     -40.953  54.948 -49.522  1.00  0.00     0.014 A 
HETATM   13  C   UNL     1     -40.543  52.963 -51.460  1.00  0.00     0.008 A 
HETATM   14  C   UNL     1     -41.483  54.449 -53.287  1.00  0.00     0.044 C 
HETATM   15  C   UNL     1     -40.220  52.720 -50.125  1.00  0.00     0.001 A 
HETATM   16  C   UNL     1     -40.422  53.707 -49.160  1.00  0.00     0.001 A 
HETATM   17  N   UNL     1     -42.742  58.538 -51.382  1.00  0.00    -0.168 NA
HETATM   18  H   UNL     1     -42.417  57.590 -49.606  1.00  0.00     0.189 HD
ENDBRANCH   1   5
BRANCH   2  19
HETATM   19  N   UNL     1     -41.713  59.842 -55.777  1.00  0.00    -0.165 NA
HETATM   20  C   UNL     1     -41.935  59.361 -56.959  1.00  0.00     0.157 A 
HETATM   21  C   UNL     1     -41.784  60.255 -58.209  1.00  0.00     0.277 A 
HETATM   22  C   UNL     1     -42.326  58.035 -57.466  1.00  0.00     0.027 A 
HETATM   23  O   UNL     1     -41.508  61.433 -58.232  1.00  0.00    -0.266 OA
HETATM   24  N   UNL     1     -42.014  59.426 -59.282  1.00  0.00    -0.321 N 
HETATM   25  C   UNL     1     -42.334  58.143 -58.861  1.00  0.00     0.048 A 
HETATM   26  H   UNL     1     -41.982  59.753 -60.236  1.00  0.00     0.169 HD
HETATM   27  C   UNL     1     -42.660  57.080 -59.681  1.00  0.00     0.030 A 
HETATM   28  C   UNL     1     -43.000  55.874 -59.068  1.00  0.00     0.002 A 
HETATM   29  C   UNL     1     -43.023  55.762 -57.667  1.00  0.00     0.001 A 
HETATM   30  C   UNL     1     -42.694  56.852 -56.850  1.00  0.00     0.016 A 
ENDBRANCH   2  19
TORSDOF 2
ENDMDL
MODEL 7
REMARK VINA RESULT:      -8.7      2.874      4.917
REMARK  2 active torsions:
REMARK  status: ('A' for Active; 'I' for Inactive)
REMARK    1  A    between atoms: C_7  and  C_8 
REMARK       I    between atoms: C_8  and  N_9 
REMARK    2  A    between atoms: N_9  and  N_10 
ROOT
HETATM    1  C   UNL     1     -43.313  57.035 -54.838  1.00  0.00     0.292 C 
HETATM    2  N   UNL     1     -42.540  58.173 -55.016  1.00  0.00    -0.241 N 
HETATM    3  O   UNL     1     -44.524  57.006 -54.645  1.00  0.00    -0.264 OA
HETATM    4  H   UNL     1     -41.539  58.015 -55.042  1.00  0.00     0.192 HD
ENDROOT
BRANCH   1   5
HETATM    5  C   UNL     1     -42.490  55.812 -54.917  1.00  0.00     0.154 A 
HETATM    6  C   UNL     1     -42.001  55.021 -53.848  1.00  0.00     0.007 A 
HETATM    7  C   UNL     1     -41.320  53.979 -54.434  1.00  0.00     0.069 A 
HETATM    8  C   UNL     1     -42.139  55.128 -52.370  1.00  0.00     0.048 C 
HETATM    9  C   UNL     1     -40.654  52.916 -53.701  1.00  0.00    -0.001 A 
HETATM   10  N   UNL     1     -41.403  54.187 -55.776  1.00  0.00    -0.276 N 
HETATM   11  C   UNL     1     -40.524  53.101 -52.303  1.00  0.00    -0.045 A 
HETATM   12  C   UNL     1     -40.181  51.746 -54.299  1.00  0.00     0.014 A 
HETATM   13  C   UNL     1     -39.894  52.115 -51.534  1.00  0.00     0.008 A 
HETATM   14  C   UNL     1     -40.972  54.407 -51.653  1.00  0.00     0.044 C 
HETATM   15  C   UNL     1     -39.425  50.950 -52.140  1.00  0.00     0.001 A 
HETATM   16  C   UNL     1     -39.568  50.765 -53.516  1.00  0.00     0.001 A 
HETATM   17  N   UNL     1     -42.105  55.291 -56.110  1.00  0.00    -0.168 NA
HETATM   18  H   UNL     1     -41.003  53.625 -56.519  1.00  0.00     0.189 HD
ENDBRANCH   1   5
BRANCH   2  19
HETATM   19  N   UNL     1     -43.057  59.417 -54.843  1.00  0.00    -0.165 NA
HETATM   20  C   UNL     1     -42.918  60.012 -53.702  1.00  0.00     0.157 A 
HETATM   21  C   UNL     1     -43.621  61.360 -53.431  1.00  0.00     0.277 A 
HETATM   22  C   UNL     1     -42.192  59.689 -52.462  1.00  0.00     0.027 A 
HETATM   23  O   UNL     1     -44.296  61.998 -54.208  1.00  0.00    -0.266 OA
HETATM   24  N   UNL     1     -43.331  61.668 -52.123  1.00  0.00    -0.321 N 
HETATM   25  C   UNL     1     -42.500  60.711 -51.557  1.00  0.00     0.048 A 
HETATM   26  H   UNL     1     -43.666  62.509 -51.677  1.00  0.00     0.169 HD
HETATM   27  C   UNL     1     -41.989  60.739 -50.274  1.00  0.00     0.030 A 
HETATM   28  C   UNL     1     -41.130  59.705 -49.901  1.00  0.00     0.002 A 
HETATM   29  C   UNL     1     -40.790  58.689 -50.811  1.00  0.00     0.001 A 
HETATM   30  C   UNL     1     -41.315  58.678 -52.110  1.00  0.00     0.016 A 
ENDBRANCH   2  19
TORSDOF 2
ENDMDL
MODEL 8
REMARK VINA RESULT:      -8.6      2.925      3.715
REMARK  2 active torsions:
REMARK  status: ('A' for Active; 'I' for Inactive)
REMARK    1  A    between atoms: C_7  and  C_8 
REMARK       I    between atoms: C_8  and  N_9 
REMARK    2  A    between atoms: N_9  and  N_10 
ROOT
HETATM    1  C   UNL     1     -42.628  56.813 -56.441  1.00  0.00     0.292 C 
HETATM    2  N   UNL     1     -43.522  55.932 -57.031  1.00  0.00    -0.241 N 
HETATM    3  O   UNL     1     -41.955  57.658 -57.022  1.00  0.00    -0.264 OA
HETATM    4  H   UNL     1     -43.900  55.222 -56.414  1.00  0.00     0.192 HD
ENDROOT
BRANCH   1   5
HETATM    5  C   UNL     1     -42.578  56.624 -54.978  1.00  0.00     0.154 A 
HETATM    6  C   UNL     1     -41.765  55.724 -54.245  1.00  0.00     0.007 A 
HETATM    7  C   UNL     1     -42.060  55.948 -52.919  1.00  0.00     0.069 A 
HETATM    8  C   UNL     1     -40.740  54.727 -54.656  1.00  0.00     0.048 C 
HETATM    9  C   UNL     1     -41.447  55.239 -51.809  1.00  0.00    -0.001 A 
HETATM   10  N   UNL     1     -43.015  56.917 -52.909  1.00  0.00    -0.276 N 
HETATM   11  C   UNL     1     -40.665  54.105 -52.141  1.00  0.00    -0.045 A 
HETATM   12  C   UNL     1     -41.572  55.637 -50.477  1.00  0.00     0.014 A 
HETATM   13  C   UNL     1     -40.044  53.376 -51.120  1.00  0.00     0.008 A 
HETATM   14  C   UNL     1     -40.584  53.620 -53.585  1.00  0.00     0.044 C 
HETATM   15  C   UNL     1     -40.174  53.782 -49.792  1.00  0.00     0.001 A 
HETATM   16  C   UNL     1     -40.934  54.908 -49.471  1.00  0.00     0.001 A 
HETATM   17  N   UNL     1     -43.358  57.353 -54.140  1.00  0.00    -0.168 NA
HETATM   18  H   UNL     1     -43.481  57.322 -52.105  1.00  0.00     0.189 HD
ENDBRANCH   1   5
BRANCH   2  19
HETATM   19  N   UNL     1     -43.630  55.827 -58.381  1.00  0.00    -0.165 NA
HETATM   20  C   UNL     1     -44.535  56.513 -59.004  1.00  0.00     0.157 A 
HETATM   21  C   UNL     1     -44.778  56.301 -60.514  1.00  0.00     0.277 A 
HETATM   22  C   UNL     1     -45.500  57.545 -58.589  1.00  0.00     0.027 A 
HETATM   23  O   UNL     1     -44.167  55.561 -61.252  1.00  0.00    -0.266 OA
HETATM   24  N   UNL     1     -45.838  57.116 -60.833  1.00  0.00    -0.321 N 
HETATM   25  C   UNL     1     -46.257  57.844 -59.727  1.00  0.00     0.048 A 
HETATM   26  H   UNL     1     -46.212  57.180 -61.768  1.00  0.00     0.169 HD
HETATM   27  C   UNL     1     -47.271  58.782 -59.713  1.00  0.00     0.030 A 
HETATM   28  C   UNL     1     -47.517  59.447 -58.511  1.00  0.00     0.002 A 
HETATM   29  C   UNL     1     -46.744  59.175 -57.369  1.00  0.00     0.001 A 
HETATM   30  C   UNL     1     -45.716  58.223 -57.403  1.00  0.00     0.016 A 
ENDBRANCH   2  19
TORSDOF 2
ENDMDL
MODEL 9
REMARK VINA RESULT:      -8.6      2.798      4.329
REMARK  2 active torsions:
REMARK  status: ('A' for Active; 'I' for Inactive)
REMARK    1  A    between atoms: C_7  and  C_8 
REMARK       I    between atoms: C_8  and  N_9 
REMARK    2  A    between atoms: N_9  and  N_10 
ROOT
HETATM    1  C   UNL     1     -41.354  56.540 -54.427  1.00  0.00     0.292 C 
HETATM    2  N   UNL     1     -42.555  56.587 -55.119  1.00  0.00    -0.241 N 
HETATM    3  O   UNL     1     -40.759  57.499 -53.947  1.00  0.00    -0.264 OA
HETATM    4  H   UNL     1     -42.840  55.714 -55.550  1.00  0.00     0.192 HD
ENDROOT
BRANCH   1   5
HETATM    5  C   UNL     1     -40.852  55.156 -54.320  1.00  0.00     0.154 A 
HETATM    6  C   UNL     1     -40.812  54.332 -53.168  1.00  0.00     0.007 A 
HETATM    7  C   UNL     1     -40.291  53.128 -53.587  1.00  0.00     0.069 A 
HETATM    8  C   UNL     1     -41.239  54.547 -51.759  1.00  0.00     0.048 C 
HETATM    9  C   UNL     1     -40.076  51.980 -52.723  1.00  0.00    -0.001 A 
HETATM   10  N   UNL     1     -40.027  53.278 -54.913  1.00  0.00    -0.276 N 
HETATM   11  C   UNL     1     -40.213  52.206 -51.331  1.00  0.00    -0.045 A 
HETATM   12  C   UNL     1     -39.778  50.702 -53.199  1.00  0.00     0.014 A 
HETATM   13  C   UNL     1     -40.021  51.142 -50.440  1.00  0.00     0.008 A 
HETATM   14  C   UNL     1     -40.464  53.612 -50.798  1.00  0.00     0.044 C 
HETATM   15  C   UNL     1     -39.725  49.868 -50.926  1.00  0.00     0.001 A 
HETATM   16  C   UNL     1     -39.605  49.648 -52.299  1.00  0.00     0.001 A 
HETATM   17  N   UNL     1     -40.353  54.496 -55.396  1.00  0.00    -0.168 NA
HETATM   18  H   UNL     1     -39.621  52.599 -55.547  1.00  0.00     0.189 HD
ENDBRANCH   1   5
BRANCH   2  19
HETATM   19  N   UNL     1     -43.132  57.767 -55.463  1.00  0.00    -0.165 NA
HETATM   20  C   UNL     1     -43.916  58.363 -54.621  1.00  0.00     0.157 A 
HETATM   21  C   UNL     1     -44.700  59.626 -55.040  1.00  0.00     0.277 A 
HETATM   22  C   UNL     1     -44.297  58.107 -53.223  1.00  0.00     0.027 A 
HETATM   23  O   UNL     1     -44.645  60.195 -56.107  1.00  0.00    -0.266 OA
HETATM   24  N   UNL     1     -45.479  59.950 -53.955  1.00  0.00    -0.321 N 
HETATM   25  C   UNL     1     -45.247  59.082 -52.897  1.00  0.00     0.048 A 
HETATM   26  H   UNL     1     -46.099  60.746 -53.950  1.00  0.00     0.169 HD
HETATM   27  C   UNL     1     -45.835  59.151 -51.649  1.00  0.00     0.030 A 
HETATM   28  C   UNL     1     -45.438  58.212 -50.697  1.00  0.00     0.002 A 
HETATM   29  C   UNL     1     -44.463  57.246 -51.003  1.00  0.00     0.001 A 
HETATM   30  C   UNL     1     -43.875  57.192 -52.274  1.00  0.00     0.016 A 
ENDBRANCH   2  19
TORSDOF 2
ENDMDL
MODEL 10
REMARK VINA RESULT:      -8.5      2.124      7.815
REMARK  2 active torsions:
REMARK  status: ('A' for Active; 'I' for Inactive)
REMARK    1  A    between atoms: C_7  and  C_8 
REMARK       I    between atoms: C_8  and  N_9 
REMARK    2  A    between atoms: N_9  and  N_10 
ROOT
HETATM    1  C   UNL     1     -42.939  56.764 -54.493  1.00  0.00     0.292 C 
HETATM    2  N   UNL     1     -41.734  56.987 -53.844  1.00  0.00    -0.241 N 
HETATM    3  O   UNL     1     -43.997  56.445 -53.962  1.00  0.00    -0.264 OA
HETATM    4  H   UNL     1     -40.934  57.123 -54.452  1.00  0.00     0.192 HD
ENDROOT
BRANCH   1   5
HETATM    5  C   UNL     1     -42.807  56.966 -55.949  1.00  0.00     0.154 A 
HETATM    6  C   UNL     1     -42.589  58.182 -56.642  1.00  0.00     0.007 A 
HETATM    7  C   UNL     1     -42.508  57.845 -57.975  1.00  0.00     0.069 A 
HETATM    8  C   UNL     1     -42.416  59.587 -56.184  1.00  0.00     0.048 C 
HETATM    9  C   UNL     1     -42.283  58.794 -59.051  1.00  0.00    -0.001 A 
HETATM   10  N   UNL     1     -42.696  56.499 -58.029  1.00  0.00    -0.276 N 
HETATM   11  C   UNL     1     -42.374  60.166 -58.710  1.00  0.00    -0.045 A 
HETATM   12  C   UNL     1     -41.964  58.417 -60.357  1.00  0.00     0.014 A 
HETATM   13  C   UNL     1     -42.168  61.135 -59.699  1.00  0.00     0.008 A 
HETATM   14  C   UNL     1     -42.796  60.585 -57.305  1.00  0.00     0.044 C 
HETATM   15  C   UNL     1     -41.848  60.749 -61.001  1.00  0.00     0.001 A 
HETATM   16  C   UNL     1     -41.745  59.396 -61.329  1.00  0.00     0.001 A 
HETATM   17  N   UNL     1     -42.883  55.928 -56.820  1.00  0.00    -0.168 NA
HETATM   18  H   UNL     1     -42.717  55.907 -58.852  1.00  0.00     0.189 HD
ENDBRANCH   1   5
BRANCH   2  19
HETATM   19  N   UNL     1     -41.580  56.723 -52.521  1.00  0.00    -0.165 NA
HETATM   20  C   UNL     1     -41.192  55.545 -52.146  1.00  0.00     0.157 A 
HETATM   21  C   UNL     1     -41.152  55.174 -50.647  1.00  0.00     0.277 A 
HETATM   22  C   UNL     1     -40.744  54.341 -52.864  1.00  0.00     0.027 A 
HETATM   23  O   UNL     1     -41.412  55.897 -49.712  1.00  0.00    -0.266 OA
HETATM   24  N   UNL     1     -40.777  53.852 -50.607  1.00  0.00    -0.321 N 
HETATM   25  C   UNL     1     -40.532  53.364 -51.884  1.00  0.00     0.048 A 
HETATM   26  H   UNL     1     -40.666  53.345 -49.742  1.00  0.00     0.169 HD
HETATM   27  C   UNL     1     -40.100  52.090 -52.194  1.00  0.00     0.030 A 
HETATM   28  C   UNL     1     -39.863  51.799 -53.538  1.00  0.00     0.002 A 
HETATM   29  C   UNL     1     -40.045  52.781 -54.528  1.00  0.00     0.001 A 
HETATM   30  C   UNL     1     -40.480  54.070 -54.195  1.00  0.00     0.016 A 
ENDBRANCH   2  19
TORSDOF 2
ENDMDL
