MODEL 1
REMARK VINA RESULT:      -9.0      0.000      0.000
REMARK  4 active torsions:
REMARK  status: ('A' for Active; 'I' for Inactive)
REMARK    1  A    between atoms: C_4  and  C_5 
REMARK    2  A    between atoms: C_9  and  C_10 
REMARK       I    between atoms: C_10  and  N_11 
REMARK    3  A    between atoms: C_17  and  O_18 
REMARK    4  A    between atoms: C_25  and  O_26 
ROOT
HETATM    1  C   UNL     1     -41.094  54.507 -54.187  1.00  0.00     0.065 A 
HETATM    2  N   UNL     1     -40.831  55.797 -53.808  1.00  0.00    -0.277 N 
HETATM    3  H   UNL     1     -40.257  56.110 -53.032  1.00  0.00     0.189 HD
HETATM    4  N   UNL     1     -41.394  56.726 -54.595  1.00  0.00    -0.169 NA
HETATM    5  C   UNL     1     -42.081  56.023 -55.516  1.00  0.00     0.149 A 
HETATM    6  C   UNL     1     -41.914  54.626 -55.291  1.00  0.00     0.071 A 
ENDROOT
BRANCH   5   7
HETATM    7  C   UNL     1     -42.866  56.630 -56.611  1.00  0.00     0.299 C 
HETATM    8  N   UNL     1     -43.116  55.765 -57.645  1.00  0.00    -0.183 NA
HETATM    9  C   UNL     1     -44.112  56.034 -58.408  1.00  0.00     0.175 A 
HETATM   10  S   UNL     1     -44.446  54.923 -59.775  1.00  0.00    -0.050 SA
HETATM   11  N   UNL     1     -45.020  57.067 -58.403  1.00  0.00    -0.334 N 
HETATM   12  C   UNL     1     -45.751  55.989 -60.353  1.00  0.00     0.037 A 
HETATM   13  C   UNL     1     -45.879  57.096 -59.503  1.00  0.00     0.051 A 
HETATM   14  C   UNL     1     -46.563  55.825 -61.462  1.00  0.00     0.058 A 
HETATM   15  C   UNL     1     -46.866  58.036 -59.738  1.00  0.00     0.034 A 
HETATM   16  C   UNL     1     -47.697  57.882 -60.856  1.00  0.00     0.039 A 
HETATM   17  C   UNL     1     -47.547  56.784 -61.720  1.00  0.00     0.069 A 
HETATM   18  H   UNL     1     -44.832  57.893 -57.848  1.00  0.00     0.168 HD
HETATM   19  O   UNL     1     -43.241  57.802 -56.565  1.00  0.00    -0.263 OA
BRANCH  17  20
HETATM   20  O   UNL     1     -48.301  56.536 -62.835  1.00  0.00    -0.356 OA
HETATM   21  C   UNL     1     -48.817  57.664 -63.532  1.00  0.00     0.210 C 
ENDBRANCH  17  20
ENDBRANCH   5   7
BRANCH   1  22
HETATM   22  C   UNL     1     -40.569  53.341 -53.482  1.00  0.00     0.026 A 
HETATM   23  C   UNL     1     -40.273  52.174 -54.207  1.00  0.00     0.023 A 
HETATM   24  C   UNL     1     -39.762  51.032 -53.572  1.00  0.00    -0.061 A 
HETATM   25  C   UNL     1     -39.421  49.805 -54.365  1.00  0.00     0.048 C 
HETATM   26  C   UNL     1     -39.513  51.071 -52.196  1.00  0.00     0.009 A 
HETATM   27  C   UNL     1     -39.800  52.222 -51.463  1.00  0.00     0.038 A 
HETATM   28  C   UNL     1     -40.331  53.341 -52.099  1.00  0.00     0.078 A 
BRANCH  28  29
HETATM   29  O   UNL     1     -40.621  54.405 -51.288  1.00  0.00    -0.360 OA
HETATM   30  H   UNL     1     -40.311  54.200 -50.390  1.00  0.00     0.217 HD
ENDBRANCH  28  29
ENDBRANCH   1  22
TORSDOF 4
ENDMDL
MODEL 2
REMARK VINA RESULT:      -8.7      3.871      4.559
REMARK  4 active torsions:
REMARK  status: ('A' for Active; 'I' for Inactive)
REMARK    1  A    between atoms: C_4  and  C_5 
REMARK    2  A    between atoms: C_9  and  C_10 
REMARK       I    between atoms: C_10  and  N_11 
REMARK    3  A    between atoms: C_17  and  O_18 
REMARK    4  A    between atoms: C_25  and  O_26 
ROOT
HETATM    1  C   UNL     1     -41.833  54.175 -54.284  1.00  0.00     0.065 A 
HETATM    2  N   UNL     1     -43.048  54.629 -53.846  1.00  0.00    -0.277 N 
HETATM    3  H   UNL     1     -43.539  54.367 -52.997  1.00  0.00     0.189 HD
HETATM    4  N   UNL     1     -43.613  55.545 -54.647  1.00  0.00    -0.169 NA
HETATM    5  C   UNL     1     -42.749  55.682 -55.672  1.00  0.00     0.149 A 
HETATM    6  C   UNL     1     -41.619  54.838 -55.475  1.00  0.00     0.071 A 
ENDROOT
BRANCH   5   7
HETATM    7  C   UNL     1     -42.949  56.601 -56.811  1.00  0.00     0.299 C 
HETATM    8  N   UNL     1     -42.592  57.896 -56.534  1.00  0.00    -0.183 NA
HETATM    9  C   UNL     1     -42.318  58.656 -57.531  1.00  0.00     0.175 A 
HETATM   10  S   UNL     1     -41.864  60.357 -57.190  1.00  0.00    -0.050 SA
HETATM   11  N   UNL     1     -42.318  58.428 -58.887  1.00  0.00    -0.334 N 
HETATM   12  C   UNL     1     -41.804  60.715 -58.935  1.00  0.00     0.037 A 
HETATM   13  C   UNL     1     -42.108  59.563 -59.672  1.00  0.00     0.051 A 
HETATM   14  C   UNL     1     -41.511  61.919 -59.552  1.00  0.00     0.058 A 
HETATM   15  C   UNL     1     -42.076  59.600 -61.055  1.00  0.00     0.034 A 
HETATM   16  C   UNL     1     -41.780  60.811 -61.694  1.00  0.00     0.039 A 
HETATM   17  C   UNL     1     -41.501  61.970 -60.949  1.00  0.00     0.069 A 
HETATM   18  H   UNL     1     -42.772  57.600 -59.253  1.00  0.00     0.168 HD
HETATM   19  O   UNL     1     -43.396  56.208 -57.888  1.00  0.00    -0.263 OA
BRANCH  17  20
HETATM   20  O   UNL     1     -41.199  63.200 -61.467  1.00  0.00    -0.356 OA
HETATM   21  C   UNL     1     -39.905  63.363 -62.037  1.00  0.00     0.210 C 
ENDBRANCH  17  20
ENDBRANCH   5   7
BRANCH   1  22
HETATM   22  C   UNL     1     -41.037  53.189 -53.558  1.00  0.00     0.026 A 
HETATM   23  C   UNL     1     -40.610  52.025 -54.222  1.00  0.00     0.023 A 
HETATM   24  C   UNL     1     -39.840  51.053 -53.565  1.00  0.00    -0.061 A 
HETATM   25  C   UNL     1     -39.366  49.832 -54.296  1.00  0.00     0.048 C 
HETATM   26  C   UNL     1     -39.463  51.267 -52.236  1.00  0.00     0.009 A 
HETATM   27  C   UNL     1     -39.876  52.417 -51.564  1.00  0.00     0.038 A 
HETATM   28  C   UNL     1     -40.663  53.362 -52.217  1.00  0.00     0.078 A 
BRANCH  28  29
HETATM   29  O   UNL     1     -41.055  54.434 -51.461  1.00  0.00    -0.360 OA
HETATM   30  H   UNL     1     -40.261  54.873 -51.115  1.00  0.00     0.217 HD
ENDBRANCH  28  29
ENDBRANCH   1  22
TORSDOF 4
ENDMDL
MODEL 3
REMARK VINA RESULT:      -8.3      6.595     10.229
REMARK  4 active torsions:
REMARK  status: ('A' for Active; 'I' for Inactive)
REMARK    1  A    between atoms: C_4  and  C_5 
REMARK    2  A    between atoms: C_9  and  C_10 
REMARK       I    between atoms: C_10  and  N_11 
REMARK    3  A    between atoms: C_17  and  O_18 
REMARK    4  A    between atoms: C_25  and  O_26 
ROOT
HETATM    1  C   UNL     1     -43.077  61.734 -50.964  1.00  0.00     0.065 A 
HETATM    2  N   UNL     1     -43.211  62.045 -52.291  1.00  0.00    -0.277 N 
HETATM    3  H   UNL     1     -43.657  62.863 -52.694  1.00  0.00     0.189 HD
HETATM    4  N   UNL     1     -42.654  61.153 -53.123  1.00  0.00    -0.169 NA
HETATM    5  C   UNL     1     -42.153  60.198 -52.315  1.00  0.00     0.149 A 
HETATM    6  C   UNL     1     -42.399  60.531 -50.953  1.00  0.00     0.071 A 
ENDROOT
BRANCH   5   7
HETATM    7  C   UNL     1     -41.432  58.999 -52.791  1.00  0.00     0.299 C 
HETATM    8  N   UNL     1     -41.436  57.968 -51.887  1.00  0.00    -0.183 NA
HETATM    9  C   UNL     1     -41.233  56.786 -52.343  1.00  0.00     0.175 A 
HETATM   10  S   UNL     1     -41.218  55.426 -51.175  1.00  0.00    -0.050 SA
HETATM   11  N   UNL     1     -40.995  56.320 -53.616  1.00  0.00    -0.334 N 
HETATM   12  C   UNL     1     -40.770  54.287 -52.470  1.00  0.00     0.037 A 
HETATM   13  C   UNL     1     -40.668  54.966 -53.692  1.00  0.00     0.051 A 
HETATM   14  C   UNL     1     -40.538  52.926 -52.371  1.00  0.00     0.058 A 
HETATM   15  C   UNL     1     -40.373  54.265 -54.847  1.00  0.00     0.034 A 
HETATM   16  C   UNL     1     -40.137  52.886 -54.763  1.00  0.00     0.039 A 
HETATM   17  C   UNL     1     -40.215  52.216 -53.530  1.00  0.00     0.069 A 
HETATM   18  H   UNL     1     -40.741  56.975 -54.346  1.00  0.00     0.168 HD
HETATM   19  O   UNL     1     -40.893  58.966 -53.897  1.00  0.00    -0.263 OA
BRANCH  17  20
HETATM   20  O   UNL     1     -40.005  50.877 -53.334  1.00  0.00    -0.356 OA
HETATM   21  C   UNL     1     -39.936  50.056 -54.493  1.00  0.00     0.210 C 
ENDBRANCH  17  20
ENDBRANCH   5   7
BRANCH   1  22
HETATM   22  C   UNL     1     -43.594  62.574 -49.887  1.00  0.00     0.026 A 
HETATM   23  C   UNL     1     -44.396  61.995 -48.889  1.00  0.00     0.023 A 
HETATM   24  C   UNL     1     -44.911  62.764 -47.833  1.00  0.00    -0.061 A 
HETATM   25  C   UNL     1     -45.740  62.125 -46.758  1.00  0.00     0.048 C 
HETATM   26  C   UNL     1     -44.589  64.122 -47.759  1.00  0.00     0.009 A 
HETATM   27  C   UNL     1     -43.792  64.710 -48.740  1.00  0.00     0.038 A 
HETATM   28  C   UNL     1     -43.308  63.945 -49.798  1.00  0.00     0.078 A 
BRANCH  28  29
HETATM   29  O   UNL     1     -42.573  64.620 -50.735  1.00  0.00    -0.360 OA
HETATM   30  H   UNL     1     -43.078  65.401 -51.016  1.00  0.00     0.217 HD
ENDBRANCH  28  29
ENDBRANCH   1  22
TORSDOF 4
ENDMDL
MODEL 4
REMARK VINA RESULT:      -8.2      1.129      1.277
REMARK  4 active torsions:
REMARK  status: ('A' for Active; 'I' for Inactive)
REMARK    1  A    between atoms: C_4  and  C_5 
REMARK    2  A    between atoms: C_9  and  C_10 
REMARK       I    between atoms: C_10  and  N_11 
REMARK    3  A    between atoms: C_17  and  O_18 
REMARK    4  A    between atoms: C_25  and  O_26 
ROOT
HETATM    1  C   UNL     1     -41.158  54.374 -53.406  1.00  0.00     0.065 A 
HETATM    2  N   UNL     1     -41.016  55.529 -52.683  1.00  0.00    -0.277 N 
HETATM    3  H   UNL     1     -40.521  55.653 -51.806  1.00  0.00     0.189 HD
HETATM    4  N   UNL     1     -41.589  56.602 -53.245  1.00  0.00    -0.169 NA
HETATM    5  C   UNL     1     -42.159  56.135 -54.373  1.00  0.00     0.149 A 
HETATM    6  C   UNL     1     -41.906  54.740 -54.507  1.00  0.00     0.071 A 
ENDROOT
BRANCH   5   7
HETATM    7  C   UNL     1     -42.909  56.970 -55.334  1.00  0.00     0.299 C 
HETATM    8  N   UNL     1     -43.010  56.406 -56.581  1.00  0.00    -0.183 NA
HETATM    9  C   UNL     1     -43.966  56.812 -57.333  1.00  0.00     0.175 A 
HETATM   10  S   UNL     1     -44.106  56.099 -58.972  1.00  0.00    -0.050 SA
HETATM   11  N   UNL     1     -44.954  57.750 -57.138  1.00  0.00    -0.334 N 
HETATM   12  C   UNL     1     -45.449  57.203 -59.364  1.00  0.00     0.037 A 
HETATM   13  C   UNL     1     -45.729  58.026 -58.265  1.00  0.00     0.051 A 
HETATM   14  C   UNL     1     -46.161  57.299 -60.547  1.00  0.00     0.058 A 
HETATM   15  C   UNL     1     -46.771  58.934 -58.332  1.00  0.00     0.034 A 
HETATM   16  C   UNL     1     -47.502  59.042 -59.523  1.00  0.00     0.039 A 
HETATM   17  C   UNL     1     -47.199  58.231 -60.630  1.00  0.00     0.069 A 
HETATM   18  H   UNL     1     -44.876  58.403 -56.368  1.00  0.00     0.168 HD
HETATM   19  O   UNL     1     -43.381  58.060 -55.013  1.00  0.00    -0.263 OA
BRANCH  17  20
HETATM   20  O   UNL     1     -47.845  58.252 -61.837  1.00  0.00    -0.356 OA
HETATM   21  C   UNL     1     -48.484  57.049 -62.249  1.00  0.00     0.210 C 
ENDBRANCH  17  20
ENDBRANCH   5   7
BRANCH   1  22
HETATM   22  C   UNL     1     -40.599  53.091 -52.987  1.00  0.00     0.026 A 
HETATM   23  C   UNL     1     -40.395  52.084 -53.947  1.00  0.00     0.023 A 
HETATM   24  C   UNL     1     -39.856  50.838 -53.590  1.00  0.00    -0.061 A 
HETATM   25  C   UNL     1     -39.614  49.785 -54.631  1.00  0.00     0.048 C 
HETATM   26  C   UNL     1     -39.486  50.611 -52.261  1.00  0.00     0.009 A 
HETATM   27  C   UNL     1     -39.680  51.601 -51.298  1.00  0.00     0.038 A 
HETATM   28  C   UNL     1     -40.241  52.824 -51.658  1.00  0.00     0.078 A 
BRANCH  28  29
HETATM   29  O   UNL     1     -40.434  53.714 -50.635  1.00  0.00    -0.360 OA
HETATM   30  H   UNL     1     -39.578  53.879 -50.207  1.00  0.00     0.217 HD
ENDBRANCH  28  29
ENDBRANCH   1  22
TORSDOF 4
ENDMDL
MODEL 5
REMARK VINA RESULT:      -8.1      6.502      8.595
REMARK  4 active torsions:
REMARK  status: ('A' for Active; 'I' for Inactive)
REMARK    1  A    between atoms: C_4  and  C_5 
REMARK    2  A    between atoms: C_9  and  C_10 
REMARK       I    between atoms: C_10  and  N_11 
REMARK    3  A    between atoms: C_17  and  O_18 
REMARK    4  A    between atoms: C_25  and  O_26 
ROOT
HETATM    1  C   UNL     1     -40.942  55.639 -52.999  1.00  0.00     0.065 A 
HETATM    2  N   UNL     1     -40.887  56.574 -53.998  1.00  0.00    -0.277 N 
HETATM    3  H   UNL     1     -40.610  56.433 -54.964  1.00  0.00     0.189 HD
HETATM    4  N   UNL     1     -41.275  57.802 -53.623  1.00  0.00    -0.169 NA
HETATM    5  C   UNL     1     -41.574  57.681 -52.315  1.00  0.00     0.149 A 
HETATM    6  C   UNL     1     -41.379  56.335 -51.890  1.00  0.00     0.071 A 
ENDROOT
BRANCH   5   7
HETATM    7  C   UNL     1     -42.060  58.789 -51.467  1.00  0.00     0.299 C 
HETATM    8  N   UNL     1     -43.193  59.390 -51.955  1.00  0.00    -0.183 NA
HETATM    9  C   UNL     1     -43.920  60.038 -51.120  1.00  0.00     0.175 A 
HETATM   10  S   UNL     1     -45.396  60.844 -51.741  1.00  0.00    -0.050 SA
HETATM   11  N   UNL     1     -43.785  60.270 -49.771  1.00  0.00    -0.334 N 
HETATM   12  C   UNL     1     -45.705  61.564 -50.140  1.00  0.00     0.037 A 
HETATM   13  C   UNL     1     -44.714  61.163 -49.234  1.00  0.00     0.051 A 
HETATM   14  C   UNL     1     -46.741  62.402 -49.764  1.00  0.00     0.058 A 
HETATM   15  C   UNL     1     -44.781  61.569 -47.914  1.00  0.00     0.034 A 
HETATM   16  C   UNL     1     -45.825  62.417 -47.517  1.00  0.00     0.039 A 
HETATM   17  C   UNL     1     -46.801  62.837 -48.437  1.00  0.00     0.069 A 
HETATM   18  H   UNL     1     -42.896  60.087 -49.321  1.00  0.00     0.168 HD
HETATM   19  O   UNL     1     -41.480  59.114 -50.432  1.00  0.00    -0.263 OA
BRANCH  17  20
HETATM   20  O   UNL     1     -47.860  63.659 -48.159  1.00  0.00    -0.356 OA
HETATM   21  C   UNL     1     -48.489  64.299 -49.263  1.00  0.00     0.210 C 
ENDBRANCH  17  20
ENDBRANCH   5   7
BRANCH   1  22
HETATM   22  C   UNL     1     -40.580  54.237 -53.192  1.00  0.00     0.026 A 
HETATM   23  C   UNL     1     -40.365  53.422 -52.067  1.00  0.00     0.023 A 
HETATM   24  C   UNL     1     -40.020  52.068 -52.205  1.00  0.00    -0.061 A 
HETATM   25  C   UNL     1     -39.825  51.203 -50.995  1.00  0.00     0.048 C 
HETATM   26  C   UNL     1     -39.922  51.517 -53.486  1.00  0.00     0.009 A 
HETATM   27  C   UNL     1     -40.135  52.312 -54.612  1.00  0.00     0.038 A 
HETATM   28  C   UNL     1     -40.451  53.661 -54.464  1.00  0.00     0.078 A 
BRANCH  28  29
HETATM   29  O   UNL     1     -40.596  54.369 -55.627  1.00  0.00    -0.360 OA
HETATM   30  H   UNL     1     -40.364  53.788 -56.370  1.00  0.00     0.217 HD
ENDBRANCH  28  29
ENDBRANCH   1  22
TORSDOF 4
ENDMDL
MODEL 6
REMARK VINA RESULT:      -7.9      6.082      7.964
REMARK  4 active torsions:
REMARK  status: ('A' for Active; 'I' for Inactive)
REMARK    1  A    between atoms: C_4  and  C_5 
REMARK    2  A    between atoms: C_9  and  C_10 
REMARK       I    between atoms: C_10  and  N_11 
REMARK    3  A    between atoms: C_17  and  O_18 
REMARK    4  A    between atoms: C_25  and  O_26 
ROOT
HETATM    1  C   UNL     1     -40.779  54.497 -53.299  1.00  0.00     0.065 A 
HETATM    2  N   UNL     1     -40.796  54.968 -54.585  1.00  0.00    -0.277 N 
HETATM    3  H   UNL     1     -40.554  54.464 -55.432  1.00  0.00     0.189 HD
HETATM    4  N   UNL     1     -41.210  56.238 -54.700  1.00  0.00    -0.169 NA
HETATM    5  C   UNL     1     -41.452  56.635 -53.436  1.00  0.00     0.149 A 
HETATM    6  C   UNL     1     -41.194  55.566 -52.530  1.00  0.00     0.071 A 
ENDROOT
BRANCH   5   7
HETATM    7  C   UNL     1     -41.941  57.978 -53.064  1.00  0.00     0.299 C 
HETATM    8  N   UNL     1     -43.178  57.962 -52.473  1.00  0.00    -0.183 NA
HETATM    9  C   UNL     1     -43.494  58.970 -51.745  1.00  0.00     0.175 A 
HETATM   10  S   UNL     1     -45.114  58.976 -50.976  1.00  0.00    -0.050 SA
HETATM   11  N   UNL     1     -42.815  60.124 -51.427  1.00  0.00    -0.334 N 
HETATM   12  C   UNL     1     -44.834  60.617 -50.342  1.00  0.00     0.037 A 
HETATM   13  C   UNL     1     -43.562  61.067 -50.720  1.00  0.00     0.051 A 
HETATM   14  C   UNL     1     -45.689  61.401 -49.586  1.00  0.00     0.058 A 
HETATM   15  C   UNL     1     -43.114  62.306 -50.297  1.00  0.00     0.034 A 
HETATM   16  C   UNL     1     -43.967  63.110 -49.529  1.00  0.00     0.039 A 
HETATM   17  C   UNL     1     -45.252  62.664 -49.175  1.00  0.00     0.069 A 
HETATM   18  H   UNL     1     -41.994  60.381 -51.962  1.00  0.00     0.168 HD
HETATM   19  O   UNL     1     -41.276  58.991 -53.281  1.00  0.00    -0.263 OA
BRANCH  17  20
HETATM   20  O   UNL     1     -46.164  63.363 -48.431  1.00  0.00    -0.356 OA
HETATM   21  C   UNL     1     -47.110  62.603 -47.688  1.00  0.00     0.210 C 
ENDBRANCH  17  20
ENDBRANCH   5   7
BRANCH   1  22
HETATM   22  C   UNL     1     -40.378  53.138 -52.947  1.00  0.00     0.026 A 
HETATM   23  C   UNL     1     -40.289  52.164 -53.957  1.00  0.00     0.023 A 
HETATM   24  C   UNL     1     -39.904  50.847 -53.665  1.00  0.00    -0.061 A 
HETATM   25  C   UNL     1     -39.783  49.826 -54.758  1.00  0.00     0.048 C 
HETATM   26  C   UNL     1     -39.569  50.510 -52.350  1.00  0.00     0.009 A 
HETATM   27  C   UNL     1     -39.650  51.465 -51.337  1.00  0.00     0.038 A 
HETATM   28  C   UNL     1     -40.059  52.763 -51.633  1.00  0.00     0.078 A 
BRANCH  28  29
HETATM   29  O   UNL     1     -40.151  53.617 -50.567  1.00  0.00    -0.360 OA
HETATM   30  H   UNL     1     -40.173  53.088 -49.752  1.00  0.00     0.217 HD
ENDBRANCH  28  29
ENDBRANCH   1  22
TORSDOF 4
ENDMDL
MODEL 7
REMARK VINA RESULT:      -7.9      9.518     11.801
REMARK  4 active torsions:
REMARK  status: ('A' for Active; 'I' for Inactive)
REMARK    1  A    between atoms: C_4  and  C_5 
REMARK    2  A    between atoms: C_9  and  C_10 
REMARK       I    between atoms: C_10  and  N_11 
REMARK    3  A    between atoms: C_17  and  O_18 
REMARK    4  A    between atoms: C_25  and  O_26 
ROOT
HETATM    1  C   UNL     1     -45.944  62.574 -47.008  1.00  0.00     0.065 A 
HETATM    2  N   UNL     1     -46.522  63.144 -48.111  1.00  0.00    -0.277 N 
HETATM    3  H   UNL     1     -46.986  64.045 -48.172  1.00  0.00     0.189 HD
HETATM    4  N   UNL     1     -46.421  62.408 -49.227  1.00  0.00    -0.169 NA
HETATM    5  C   UNL     1     -45.773  61.291 -48.842  1.00  0.00     0.149 A 
HETATM    6  C   UNL     1     -45.456  61.363 -47.455  1.00  0.00     0.071 A 
ENDROOT
BRANCH   5   7
HETATM    7  C   UNL     1     -45.425  60.177 -49.748  1.00  0.00     0.299 C 
HETATM    8  N   UNL     1     -44.404  60.479 -50.614  1.00  0.00    -0.183 NA
HETATM    9  C   UNL     1     -43.753  59.497 -51.119  1.00  0.00     0.175 A 
HETATM   10  S   UNL     1     -42.426  59.870 -52.266  1.00  0.00    -0.050 SA
HETATM   11  N   UNL     1     -43.880  58.135 -50.968  1.00  0.00    -0.334 N 
HETATM   12  C   UNL     1     -42.175  58.133 -52.578  1.00  0.00     0.037 A 
HETATM   13  C   UNL     1     -43.072  57.374 -51.814  1.00  0.00     0.051 A 
HETATM   14  C   UNL     1     -41.259  57.540 -53.430  1.00  0.00     0.058 A 
HETATM   15  C   UNL     1     -43.024  55.992 -51.866  1.00  0.00     0.034 A 
HETATM   16  C   UNL     1     -42.101  55.377 -52.723  1.00  0.00     0.039 A 
HETATM   17  C   UNL     1     -41.222  56.145 -53.506  1.00  0.00     0.069 A 
HETATM   18  H   UNL     1     -44.719  57.757 -50.546  1.00  0.00     0.168 HD
HETATM   19  O   UNL     1     -46.015  59.098 -49.703  1.00  0.00    -0.263 OA
BRANCH  17  20
HETATM   20  O   UNL     1     -40.284  55.651 -54.372  1.00  0.00    -0.356 OA
HETATM   21  C   UNL     1     -40.540  54.373 -54.943  1.00  0.00     0.210 C 
ENDBRANCH  17  20
ENDBRANCH   5   7
BRANCH   1  22
HETATM   22  C   UNL     1     -45.924  63.210 -45.694  1.00  0.00     0.026 A 
HETATM   23  C   UNL     1     -44.753  63.152 -44.919  1.00  0.00     0.023 A 
HETATM   24  C   UNL     1     -44.687  63.752 -43.652  1.00  0.00    -0.061 A 
HETATM   25  C   UNL     1     -43.419  63.709 -42.852  1.00  0.00     0.048 C 
HETATM   26  C   UNL     1     -45.799  64.449 -43.171  1.00  0.00     0.009 A 
HETATM   27  C   UNL     1     -46.968  64.518 -43.928  1.00  0.00     0.038 A 
HETATM   28  C   UNL     1     -47.032  63.896 -45.172  1.00  0.00     0.078 A 
BRANCH  28  29
HETATM   29  O   UNL     1     -48.235  63.980 -45.819  1.00  0.00    -0.360 OA
HETATM   30  H   UNL     1     -48.105  64.476 -46.644  1.00  0.00     0.217 HD
ENDBRANCH  28  29
ENDBRANCH   1  22
TORSDOF 4
ENDMDL
MODEL 8
REMARK VINA RESULT:      -7.7      2.700      2.997
REMARK  4 active torsions:
REMARK  status: ('A' for Active; 'I' for Inactive)
REMARK    1  A    between atoms: C_4  and  C_5 
REMARK    2  A    between atoms: C_9  and  C_10 
REMARK       I    between atoms: C_10  and  N_11 
REMARK    3  A    between atoms: C_17  and  O_18 
REMARK    4  A    between atoms: C_25  and  O_26 
ROOT
HETATM    1  C   UNL     1     -41.983  54.442 -53.425  1.00  0.00     0.065 A 
HETATM    2  N   UNL     1     -42.832  55.041 -52.531  1.00  0.00    -0.277 N 
HETATM    3  H   UNL     1     -42.952  54.819 -51.548  1.00  0.00     0.189 HD
HETATM    4  N   UNL     1     -43.551  56.048 -53.046  1.00  0.00    -0.169 NA
HETATM    5  C   UNL     1     -43.185  56.102 -54.342  1.00  0.00     0.149 A 
HETATM    6  C   UNL     1     -42.200  55.109 -54.614  1.00  0.00     0.071 A 
ENDROOT
BRANCH   5   7
HETATM    7  C   UNL     1     -43.717  57.076 -55.317  1.00  0.00     0.299 C 
HETATM    8  N   UNL     1     -42.761  57.575 -56.164  1.00  0.00    -0.183 NA
HETATM    9  C   UNL     1     -43.163  58.066 -57.279  1.00  0.00     0.175 A 
HETATM   10  S   UNL     1     -41.929  58.739 -58.393  1.00  0.00    -0.050 SA
HETATM   11  N   UNL     1     -44.419  58.207 -57.821  1.00  0.00    -0.334 N 
HETATM   12  C   UNL     1     -43.204  59.290 -59.509  1.00  0.00     0.037 A 
HETATM   13  C   UNL     1     -44.465  58.940 -59.009  1.00  0.00     0.051 A 
HETATM   14  C   UNL     1     -43.059  59.969 -60.707  1.00  0.00     0.058 A 
HETATM   15  C   UNL     1     -45.603  59.232 -59.739  1.00  0.00     0.034 A 
HETATM   16  C   UNL     1     -45.472  59.917 -60.955  1.00  0.00     0.039 A 
HETATM   17  C   UNL     1     -44.206  60.289 -61.439  1.00  0.00     0.069 A 
HETATM   18  H   UNL     1     -45.233  58.095 -57.229  1.00  0.00     0.168 HD
HETATM   19  O   UNL     1     -44.908  57.385 -55.337  1.00  0.00    -0.263 OA
BRANCH  17  20
HETATM   20  O   UNL     1     -43.962  60.957 -62.608  1.00  0.00    -0.356 OA
HETATM   21  C   UNL     1     -42.603  61.090 -63.007  1.00  0.00     0.210 C 
ENDBRANCH  17  20
ENDBRANCH   5   7
BRANCH   1  22
HETATM   22  C   UNL     1     -41.097  53.337 -53.073  1.00  0.00     0.026 A 
HETATM   23  C   UNL     1     -40.892  52.298 -53.997  1.00  0.00     0.023 A 
HETATM   24  C   UNL     1     -40.046  51.218 -53.703  1.00  0.00    -0.061 A 
HETATM   25  C   UNL     1     -39.813  50.133 -54.713  1.00  0.00     0.048 C 
HETATM   26  C   UNL     1     -39.368  51.197 -52.480  1.00  0.00     0.009 A 
HETATM   27  C   UNL     1     -39.559  52.220 -51.553  1.00  0.00     0.038 A 
HETATM   28  C   UNL     1     -40.422  53.274 -51.844  1.00  0.00     0.078 A 
BRANCH  28  29
HETATM   29  O   UNL     1     -40.578  54.207 -50.854  1.00  0.00    -0.360 OA
HETATM   30  H   UNL     1     -39.773  54.748 -50.813  1.00  0.00     0.217 HD
ENDBRANCH  28  29
ENDBRANCH   1  22
TORSDOF 4
ENDMDL
MODEL 9
REMARK VINA RESULT:      -7.7      6.746     10.288
REMARK  4 active torsions:
REMARK  status: ('A' for Active; 'I' for Inactive)
REMARK    1  A    between atoms: C_4  and  C_5 
REMARK    2  A    between atoms: C_9  and  C_10 
REMARK       I    between atoms: C_10  and  N_11 
REMARK    3  A    between atoms: C_17  and  O_18 
REMARK    4  A    between atoms: C_25  and  O_26 
ROOT
HETATM    1  C   UNL     1     -44.289  61.297 -50.441  1.00  0.00     0.065 A 
HETATM    2  N   UNL     1     -43.874  62.039 -51.514  1.00  0.00    -0.277 N 
HETATM    3  H   UNL     1     -44.102  63.006 -51.724  1.00  0.00     0.189 HD
HETATM    4  N   UNL     1     -43.053  61.386 -52.349  1.00  0.00    -0.169 NA
HETATM    5  C   UNL     1     -42.940  60.151 -51.821  1.00  0.00     0.149 A 
HETATM    6  C   UNL     1     -43.702  60.060 -50.621  1.00  0.00     0.071 A 
ENDROOT
BRANCH   5   7
HETATM    7  C   UNL     1     -42.118  59.070 -52.403  1.00  0.00     0.299 C 
HETATM    8  N   UNL     1     -41.913  58.021 -51.542  1.00  0.00    -0.183 NA
HETATM    9  C   UNL     1     -41.604  56.889 -52.060  1.00  0.00     0.175 A 
HETATM   10  S   UNL     1     -41.316  55.509 -50.952  1.00  0.00    -0.050 SA
HETATM   11  N   UNL     1     -41.420  56.495 -53.366  1.00  0.00    -0.334 N 
HETATM   12  C   UNL     1     -40.842  54.475 -52.324  1.00  0.00     0.037 A 
HETATM   13  C   UNL     1     -40.933  55.196 -53.522  1.00  0.00     0.051 A 
HETATM   14  C   UNL     1     -40.433  53.153 -52.299  1.00  0.00     0.058 A 
HETATM   15  C   UNL     1     -40.654  54.573 -54.726  1.00  0.00     0.034 A 
HETATM   16  C   UNL     1     -40.240  53.234 -54.716  1.00  0.00     0.039 A 
HETATM   17  C   UNL     1     -40.125  52.524 -53.508  1.00  0.00     0.069 A 
HETATM   18  H   UNL     1     -41.315  57.197 -54.088  1.00  0.00     0.168 HD
HETATM   19  O   UNL     1     -41.677  59.138 -53.549  1.00  0.00    -0.263 OA
BRANCH  17  20
HETATM   20  O   UNL     1     -39.732  51.219 -53.383  1.00  0.00    -0.356 OA
HETATM   21  C   UNL     1     -40.219  50.300 -54.354  1.00  0.00     0.210 C 
ENDBRANCH  17  20
ENDBRANCH   5   7
BRANCH   1  22
HETATM   22  C   UNL     1     -45.173  61.815 -49.401  1.00  0.00     0.026 A 
HETATM   23  C   UNL     1     -44.795  61.693 -48.052  1.00  0.00     0.023 A 
HETATM   24  C   UNL     1     -45.612  62.180 -47.020  1.00  0.00    -0.061 A 
HETATM   25  C   UNL     1     -45.179  62.070 -45.588  1.00  0.00     0.048 C 
HETATM   26  C   UNL     1     -46.806  62.830 -47.346  1.00  0.00     0.009 A 
HETATM   27  C   UNL     1     -47.194  62.962 -48.678  1.00  0.00     0.038 A 
HETATM   28  C   UNL     1     -46.390  62.450 -49.694  1.00  0.00     0.078 A 
BRANCH  28  29
HETATM   29  O   UNL     1     -46.877  62.588 -50.966  1.00  0.00    -0.360 OA
HETATM   30  H   UNL     1     -46.944  61.705 -51.366  1.00  0.00     0.217 HD
ENDBRANCH  28  29
ENDBRANCH   1  22
TORSDOF 4
ENDMDL
MODEL 10
REMARK VINA RESULT:      -7.6      1.551      2.394
REMARK  4 active torsions:
REMARK  status: ('A' for Active; 'I' for Inactive)
REMARK    1  A    between atoms: C_4  and  C_5 
REMARK    2  A    between atoms: C_9  and  C_10 
REMARK       I    between atoms: C_10  and  N_11 
REMARK    3  A    between atoms: C_17  and  O_18 
REMARK    4  A    between atoms: C_25  and  O_26 
ROOT
HETATM    1  C   UNL     1     -40.959  54.246 -53.570  1.00  0.00     0.065 A 
HETATM    2  N   UNL     1     -40.253  53.899 -54.692  1.00  0.00    -0.277 N 
HETATM    3  H   UNL     1     -39.496  53.227 -54.765  1.00  0.00     0.189 HD
HETATM    4  N   UNL     1     -40.656  54.523 -55.809  1.00  0.00    -0.169 NA
HETATM    5  C   UNL     1     -41.651  55.338 -55.405  1.00  0.00     0.149 A 
HETATM    6  C   UNL     1     -41.869  55.187 -54.006  1.00  0.00     0.071 A 
ENDROOT
BRANCH   5   7
HETATM    7  C   UNL     1     -42.413  56.229 -56.305  1.00  0.00     0.299 C 
HETATM    8  N   UNL     1     -42.866  55.600 -57.437  1.00  0.00    -0.183 NA
HETATM    9  C   UNL     1     -43.863  56.132 -58.044  1.00  0.00     0.175 A 
HETATM   10  S   UNL     1     -44.461  55.334 -59.534  1.00  0.00    -0.050 SA
HETATM   11  N   UNL     1     -44.602  57.263 -57.783  1.00  0.00    -0.334 N 
HETATM   12  C   UNL     1     -45.629  56.654 -59.801  1.00  0.00     0.037 A 
HETATM   13  C   UNL     1     -45.525  57.601 -58.774  1.00  0.00     0.051 A 
HETATM   14  C   UNL     1     -46.535  56.799 -60.837  1.00  0.00     0.058 A 
HETATM   15  C   UNL     1     -46.373  58.694 -58.755  1.00  0.00     0.034 A 
HETATM   16  C   UNL     1     -47.297  58.854 -59.796  1.00  0.00     0.039 A 
HETATM   17  C   UNL     1     -47.379  57.913 -60.837  1.00  0.00     0.069 A 
HETATM   18  H   UNL     1     -44.250  57.945 -57.122  1.00  0.00     0.168 HD
HETATM   19  O   UNL     1     -42.601  57.414 -56.033  1.00  0.00    -0.263 OA
BRANCH  17  20
HETATM   20  O   UNL     1     -48.241  57.969 -61.899  1.00  0.00    -0.356 OA
HETATM   21  C   UNL     1     -48.519  56.747 -62.571  1.00  0.00     0.210 C 
ENDBRANCH  17  20
ENDBRANCH   5   7
BRANCH   1  22
HETATM   22  C   UNL     1     -40.699  53.676 -52.252  1.00  0.00     0.026 A 
HETATM   23  C   UNL     1     -40.937  54.455 -51.106  1.00  0.00     0.023 A 
HETATM   24  C   UNL     1     -40.705  53.947 -49.819  1.00  0.00    -0.061 A 
HETATM   25  C   UNL     1     -40.994  54.781 -48.605  1.00  0.00     0.048 C 
HETATM   26  C   UNL     1     -40.261  52.629 -49.676  1.00  0.00     0.009 A 
HETATM   27  C   UNL     1     -40.022  51.842 -50.802  1.00  0.00     0.038 A 
HETATM   28  C   UNL     1     -40.230  52.365 -52.076  1.00  0.00     0.078 A 
BRANCH  28  29
HETATM   29  O   UNL     1     -39.925  51.532 -53.119  1.00  0.00    -0.360 OA
HETATM   30  H   UNL     1     -39.010  51.226 -53.010  1.00  0.00     0.217 HD
ENDBRANCH  28  29
ENDBRANCH   1  22
TORSDOF 4
ENDMDL
