MODEL 1
REMARK VINA RESULT:      -8.9      0.000      0.000
REMARK  5 active torsions:
REMARK  status: ('A' for Active; 'I' for Inactive)
REMARK    1  A    between atoms: C_2  and  C_3 
REMARK    2  A    between atoms: C_5  and  C_6 
REMARK    3  A    between atoms: C_6  and  C_7 
REMARK       I    between atoms: C_7  and  N_8 
REMARK    4  A    between atoms: N_8  and  C_9 
REMARK    5  A    between atoms: C_16  and  C_17 
REMARK       I    between atoms: C_17  and  N_18 
ROOT
HETATM    1  C   UNL     1     -42.698  56.513 -56.947  1.00  0.00     0.035 A 
HETATM    2  C   UNL     1     -43.272  55.822 -58.027  1.00  0.00     0.046 A 
HETATM    3  C   UNL     1     -44.343  56.402 -58.738  1.00  0.00     0.030 A 
HETATM    4  C   UNL     1     -44.812  57.645 -58.341  1.00  0.00     0.063 A 
HETATM    5  N   UNL     1     -45.847  57.929 -59.188  1.00  0.00    -0.277 N 
HETATM    6  H   UNL     1     -46.434  58.755 -59.183  1.00  0.00     0.189 HD
HETATM    7  N   UNL     1     -46.080  56.985 -60.117  1.00  0.00    -0.168 NA
HETATM    8  C   UNL     1     -45.154  56.036 -59.852  1.00  0.00     0.156 A 
HETATM    9  C   UNL     1     -44.262  58.361 -57.277  1.00  0.00     0.034 A 
HETATM   10  C   UNL     1     -43.191  57.771 -56.592  1.00  0.00     0.032 A 
ENDROOT
BRANCH   1  11
HETATM   11  N   UNL     1     -41.675  55.848 -56.242  1.00  0.00    -0.327 N 
HETATM   12  C   UNL     1     -41.761  54.632 -55.583  1.00  0.00     0.226 C 
HETATM   13  O   UNL     1     -42.789  54.021 -55.310  1.00  0.00    -0.273 OA
HETATM   14  H   UNL     1     -40.758  56.276 -56.286  1.00  0.00     0.169 HD
BRANCH  12  15
HETATM   15  C   UNL     1     -40.393  54.069 -55.215  1.00  0.00     0.141 C 
BRANCH  15  16
HETATM   16  C   UNL     1     -40.354  53.526 -53.804  1.00  0.00    -0.049 A 
HETATM   17  C   UNL     1     -39.973  52.195 -53.565  1.00  0.00     0.014 A 
HETATM   18  C   UNL     1     -39.900  51.685 -52.262  1.00  0.00    -0.058 A 
HETATM   19  C   UNL     1     -40.232  52.519 -51.188  1.00  0.00     0.007 A 
HETATM   20  C   UNL     1     -40.639  53.834 -51.416  1.00  0.00     0.001 A 
HETATM   21  C   UNL     1     -40.703  54.336 -52.716  1.00  0.00     0.007 A 
BRANCH  18  22
HETATM   22  C   UNL     1     -39.429  50.273 -52.023  1.00  0.00     0.034 C 
HETATM   23  C   UNL     1     -39.773  49.792 -50.621  1.00  0.00     0.010 C 
ENDBRANCH  18  22
ENDBRANCH  15  16
ENDBRANCH  12  15
ENDBRANCH   1  11
BRANCH   8  24
HETATM   24  C   UNL     1     -45.055  54.813 -60.659  1.00  0.00     0.270 C 
HETATM   25  N   UNL     1     -45.141  53.657 -59.935  1.00  0.00    -0.365 N 
HETATM   26  H   UNL     1     -45.273  53.721 -58.933  1.00  0.00     0.159 HD
HETATM   27  H   UNL     1     -45.105  52.765 -60.405  1.00  0.00     0.159 HD
HETATM   28  O   UNL     1     -44.914  54.796 -61.879  1.00  0.00    -0.266 OA
ENDBRANCH   8  24
TORSDOF 5
ENDMDL
MODEL 2
REMARK VINA RESULT:      -8.6      0.776      1.840
REMARK  5 active torsions:
REMARK  status: ('A' for Active; 'I' for Inactive)
REMARK    1  A    between atoms: C_2  and  C_3 
REMARK    2  A    between atoms: C_5  and  C_6 
REMARK    3  A    between atoms: C_6  and  C_7 
REMARK       I    between atoms: C_7  and  N_8 
REMARK    4  A    between atoms: N_8  and  C_9 
REMARK    5  A    between atoms: C_16  and  C_17 
REMARK       I    between atoms: C_17  and  N_18 
ROOT
HETATM    1  C   UNL     1     -42.471  56.344 -56.659  1.00  0.00     0.035 A 
HETATM    2  C   UNL     1     -43.092  55.729 -57.759  1.00  0.00     0.046 A 
HETATM    3  C   UNL     1     -44.109  56.412 -58.459  1.00  0.00     0.030 A 
HETATM    4  C   UNL     1     -44.480  57.678 -58.030  1.00  0.00     0.063 A 
HETATM    5  N   UNL     1     -45.484  58.066 -58.873  1.00  0.00    -0.277 N 
HETATM    6  H   UNL     1     -46.003  58.935 -58.848  1.00  0.00     0.189 HD
HETATM    7  N   UNL     1     -45.785  57.168 -59.828  1.00  0.00    -0.168 NA
HETATM    8  C   UNL     1     -44.939  56.142 -59.585  1.00  0.00     0.156 A 
HETATM    9  C   UNL     1     -43.880  58.319 -56.945  1.00  0.00     0.034 A 
HETATM   10  C   UNL     1     -42.864  57.627 -56.272  1.00  0.00     0.032 A 
ENDROOT
BRANCH   1  11
HETATM   11  N   UNL     1     -41.509  55.581 -55.968  1.00  0.00    -0.327 N 
HETATM   12  C   UNL     1     -41.703  54.375 -55.313  1.00  0.00     0.226 C 
HETATM   13  O   UNL     1     -42.782  53.864 -55.031  1.00  0.00    -0.273 OA
HETATM   14  H   UNL     1     -40.556  55.919 -56.020  1.00  0.00     0.169 HD
BRANCH  12  15
HETATM   15  C   UNL     1     -40.392  53.683 -54.962  1.00  0.00     0.141 C 
BRANCH  15  16
HETATM   16  C   UNL     1     -40.303  53.325 -53.495  1.00  0.00    -0.049 A 
HETATM   17  C   UNL     1     -40.632  54.272 -52.511  1.00  0.00     0.014 A 
HETATM   18  C   UNL     1     -40.587  53.947 -51.149  1.00  0.00    -0.058 A 
HETATM   19  C   UNL     1     -40.187  52.659 -50.772  1.00  0.00     0.007 A 
HETATM   20  C   UNL     1     -39.830  51.721 -51.740  1.00  0.00     0.001 A 
HETATM   21  C   UNL     1     -39.884  52.050 -53.095  1.00  0.00     0.007 A 
BRANCH  18  22
HETATM   22  C   UNL     1     -41.004  54.958 -50.111  1.00  0.00     0.034 C 
HETATM   23  C   UNL     1     -40.764  54.449 -48.697  1.00  0.00     0.010 C 
ENDBRANCH  18  22
ENDBRANCH  15  16
ENDBRANCH  12  15
ENDBRANCH   1  11
BRANCH   8  24
HETATM   24  C   UNL     1     -44.934  54.936 -60.424  1.00  0.00     0.270 C 
HETATM   25  N   UNL     1     -45.154  53.775 -59.737  1.00  0.00    -0.365 N 
HETATM   26  H   UNL     1     -45.312  53.826 -58.738  1.00  0.00     0.159 HD
HETATM   27  H   UNL     1     -45.190  52.897 -60.231  1.00  0.00     0.159 HD
HETATM   28  O   UNL     1     -44.756  54.937 -61.639  1.00  0.00    -0.266 OA
ENDBRANCH   8  24
TORSDOF 5
ENDMDL
MODEL 3
REMARK VINA RESULT:      -8.2      1.840      2.769
REMARK  5 active torsions:
REMARK  status: ('A' for Active; 'I' for Inactive)
REMARK    1  A    between atoms: C_2  and  C_3 
REMARK    2  A    between atoms: C_5  and  C_6 
REMARK    3  A    between atoms: C_6  and  C_7 
REMARK       I    between atoms: C_7  and  N_8 
REMARK    4  A    between atoms: N_8  and  C_9 
REMARK    5  A    between atoms: C_16  and  C_17 
REMARK       I    between atoms: C_17  and  N_18 
ROOT
HETATM    1  C   UNL     1     -43.202  56.177 -57.893  1.00  0.00     0.035 A 
HETATM    2  C   UNL     1     -44.156  57.206 -57.834  1.00  0.00     0.046 A 
HETATM    3  C   UNL     1     -45.115  57.329 -58.861  1.00  0.00     0.030 A 
HETATM    4  C   UNL     1     -45.082  56.430 -59.917  1.00  0.00     0.063 A 
HETATM    5  N   UNL     1     -46.099  56.811 -60.748  1.00  0.00    -0.277 N 
HETATM    6  H   UNL     1     -46.362  56.385 -61.629  1.00  0.00     0.189 HD
HETATM    7  N   UNL     1     -46.805  57.870 -60.314  1.00  0.00    -0.168 NA
HETATM    8  C   UNL     1     -46.209  58.198 -59.145  1.00  0.00     0.156 A 
HETATM    9  C   UNL     1     -44.152  55.394 -60.004  1.00  0.00     0.034 A 
HETATM   10  C   UNL     1     -43.215  55.283 -58.967  1.00  0.00     0.032 A 
ENDROOT
BRANCH   1  11
HETATM   11  N   UNL     1     -42.235  56.151 -56.869  1.00  0.00    -0.327 N 
HETATM   12  C   UNL     1     -42.139  55.243 -55.825  1.00  0.00     0.226 C 
HETATM   13  O   UNL     1     -42.995  54.435 -55.481  1.00  0.00    -0.273 OA
HETATM   14  H   UNL     1     -41.488  56.830 -56.948  1.00  0.00     0.169 HD
BRANCH  12  15
HETATM   15  C   UNL     1     -40.799  55.322 -55.104  1.00  0.00     0.141 C 
BRANCH  15  16
HETATM   16  C   UNL     1     -40.614  54.200 -54.106  1.00  0.00    -0.049 A 
HETATM   17  C   UNL     1     -40.285  52.907 -54.543  1.00  0.00     0.014 A 
HETATM   18  C   UNL     1     -40.078  51.865 -53.631  1.00  0.00    -0.058 A 
HETATM   19  C   UNL     1     -40.221  52.123 -52.263  1.00  0.00     0.007 A 
HETATM   20  C   UNL     1     -40.575  53.397 -51.819  1.00  0.00     0.001 A 
HETATM   21  C   UNL     1     -40.774  54.432 -52.734  1.00  0.00     0.007 A 
BRANCH  18  22
HETATM   22  C   UNL     1     -39.665  50.498 -54.118  1.00  0.00     0.034 C 
HETATM   23  C   UNL     1     -39.596  49.490 -52.980  1.00  0.00     0.010 C 
ENDBRANCH  18  22
ENDBRANCH  15  16
ENDBRANCH  12  15
ENDBRANCH   1  11
BRANCH   8  24
HETATM   24  C   UNL     1     -46.690  59.319 -58.327  1.00  0.00     0.270 C 
HETATM   25  N   UNL     1     -47.718  58.996 -57.486  1.00  0.00    -0.365 N 
HETATM   26  H   UNL     1     -48.056  58.041 -57.478  1.00  0.00     0.159 HD
HETATM   27  H   UNL     1     -48.101  59.695 -56.868  1.00  0.00     0.159 HD
HETATM   28  O   UNL     1     -46.227  60.455 -58.365  1.00  0.00    -0.266 OA
ENDBRANCH   8  24
TORSDOF 5
ENDMDL
MODEL 4
REMARK VINA RESULT:      -8.2      3.614      5.624
REMARK  5 active torsions:
REMARK  status: ('A' for Active; 'I' for Inactive)
REMARK    1  A    between atoms: C_2  and  C_3 
REMARK    2  A    between atoms: C_5  and  C_6 
REMARK    3  A    between atoms: C_6  and  C_7 
REMARK       I    between atoms: C_7  and  N_8 
REMARK    4  A    between atoms: N_8  and  C_9 
REMARK    5  A    between atoms: C_16  and  C_17 
REMARK       I    between atoms: C_17  and  N_18 
ROOT
HETATM    1  C   UNL     1     -41.189  56.962 -51.020  1.00  0.00     0.035 A 
HETATM    2  C   UNL     1     -42.003  56.834 -52.158  1.00  0.00     0.046 A 
HETATM    3  C   UNL     1     -42.672  57.965 -52.669  1.00  0.00     0.030 A 
HETATM    4  C   UNL     1     -42.516  59.183 -52.022  1.00  0.00     0.063 A 
HETATM    5  N   UNL     1     -43.289  60.067 -52.722  1.00  0.00    -0.277 N 
HETATM    6  H   UNL     1     -43.426  61.051 -52.524  1.00  0.00     0.189 HD
HETATM    7  N   UNL     1     -43.920  59.534 -53.783  1.00  0.00    -0.168 NA
HETATM    8  C   UNL     1     -43.544  58.235 -53.764  1.00  0.00     0.156 A 
HETATM    9  C   UNL     1     -41.711  59.346 -50.893  1.00  0.00     0.034 A 
HETATM   10  C   UNL     1     -41.046  58.210 -50.409  1.00  0.00     0.032 A 
ENDROOT
BRANCH   1  11
HETATM   11  N   UNL     1     -40.602  55.781 -50.526  1.00  0.00    -0.327 N 
HETATM   12  C   UNL     1     -41.253  54.643 -50.073  1.00  0.00     0.226 C 
HETATM   13  O   UNL     1     -42.448  54.540 -49.818  1.00  0.00    -0.273 OA
HETATM   14  H   UNL     1     -39.592  55.734 -50.576  1.00  0.00     0.169 HD
BRANCH  12  15
HETATM   15  C   UNL     1     -40.313  53.453 -49.922  1.00  0.00     0.141 C 
BRANCH  15  16
HETATM   16  C   UNL     1     -40.140  52.686 -51.215  1.00  0.00    -0.049 A 
HETATM   17  C   UNL     1     -40.382  53.310 -52.450  1.00  0.00     0.014 A 
HETATM   18  C   UNL     1     -40.195  52.624 -53.656  1.00  0.00    -0.058 A 
HETATM   19  C   UNL     1     -39.778  51.288 -53.619  1.00  0.00     0.007 A 
HETATM   20  C   UNL     1     -39.562  50.651 -52.398  1.00  0.00     0.001 A 
HETATM   21  C   UNL     1     -39.744  51.343 -51.200  1.00  0.00     0.007 A 
BRANCH  18  22
HETATM   22  C   UNL     1     -40.401  53.330 -54.973  1.00  0.00     0.034 C 
HETATM   23  C   UNL     1     -40.291  54.841 -54.827  1.00  0.00     0.010 C 
ENDBRANCH  18  22
ENDBRANCH  15  16
ENDBRANCH  12  15
ENDBRANCH   1  11
BRANCH   8  24
HETATM   24  C   UNL     1     -44.013  57.285 -54.781  1.00  0.00     0.270 C 
HETATM   25  N   UNL     1     -44.977  56.423 -54.338  1.00  0.00    -0.365 N 
HETATM   26  H   UNL     1     -45.297  56.503 -53.380  1.00  0.00     0.159 HD
HETATM   27  H   UNL     1     -45.377  55.747 -54.971  1.00  0.00     0.159 HD
HETATM   28  O   UNL     1     -43.602  57.246 -55.937  1.00  0.00    -0.266 OA
ENDBRANCH   8  24
TORSDOF 5
ENDMDL
MODEL 5
REMARK VINA RESULT:      -8.2      2.746      4.327
REMARK  5 active torsions:
REMARK  status: ('A' for Active; 'I' for Inactive)
REMARK    1  A    between atoms: C_2  and  C_3 
REMARK    2  A    between atoms: C_5  and  C_6 
REMARK    3  A    between atoms: C_6  and  C_7 
REMARK       I    between atoms: C_7  and  N_8 
REMARK    4  A    between atoms: N_8  and  C_9 
REMARK    5  A    between atoms: C_16  and  C_17 
REMARK       I    between atoms: C_17  and  N_18 
ROOT
HETATM    1  C   UNL     1     -43.247  56.929 -52.187  1.00  0.00     0.035 A 
HETATM    2  C   UNL     1     -43.046  56.665 -53.552  1.00  0.00     0.046 A 
HETATM    3  C   UNL     1     -43.839  57.323 -54.515  1.00  0.00     0.030 A 
HETATM    4  C   UNL     1     -44.812  58.213 -54.084  1.00  0.00     0.063 A 
HETATM    5  N   UNL     1     -45.420  58.665 -55.222  1.00  0.00    -0.277 N 
HETATM    6  H   UNL     1     -46.189  59.321 -55.286  1.00  0.00     0.189 HD
HETATM    7  N   UNL     1     -44.912  58.161 -56.361  1.00  0.00    -0.168 NA
HETATM    8  C   UNL     1     -43.930  57.333 -55.938  1.00  0.00     0.156 A 
HETATM    9  C   UNL     1     -45.035  58.501 -52.736  1.00  0.00     0.034 A 
HETATM   10  C   UNL     1     -44.227  57.845 -51.797  1.00  0.00     0.032 A 
ENDROOT
BRANCH   1  11
HETATM   11  N   UNL     1     -42.464  56.189 -51.279  1.00  0.00    -0.327 N 
HETATM   12  C   UNL     1     -42.809  55.011 -50.635  1.00  0.00     0.226 C 
HETATM   13  O   UNL     1     -43.930  54.516 -50.571  1.00  0.00    -0.273 OA
HETATM   14  H   UNL     1     -41.518  56.522 -51.138  1.00  0.00     0.169 HD
BRANCH  12  15
HETATM   15  C   UNL     1     -41.612  54.328 -49.986  1.00  0.00     0.141 C 
BRANCH  15  16
HETATM   16  C   UNL     1     -40.935  53.344 -50.915  1.00  0.00    -0.049 A 
HETATM   17  C   UNL     1     -40.912  53.574 -52.300  1.00  0.00     0.014 A 
HETATM   18  C   UNL     1     -40.261  52.691 -53.170  1.00  0.00    -0.058 A 
HETATM   19  C   UNL     1     -39.641  51.553 -52.642  1.00  0.00     0.007 A 
HETATM   20  C   UNL     1     -39.682  51.300 -51.271  1.00  0.00     0.001 A 
HETATM   21  C   UNL     1     -40.327  52.188 -50.409  1.00  0.00     0.007 A 
BRANCH  18  22
HETATM   22  C   UNL     1     -40.195  52.988 -54.647  1.00  0.00     0.034 C 
HETATM   23  C   UNL     1     -40.213  54.485 -54.924  1.00  0.00     0.010 C 
ENDBRANCH  18  22
ENDBRANCH  15  16
ENDBRANCH  12  15
ENDBRANCH   1  11
BRANCH   8  24
HETATM   24  C   UNL     1     -43.103  56.576 -56.886  1.00  0.00     0.270 C 
HETATM   25  N   UNL     1     -42.172  57.332 -57.543  1.00  0.00    -0.365 N 
HETATM   26  H   UNL     1     -42.112  58.321 -57.329  1.00  0.00     0.159 HD
HETATM   27  H   UNL     1     -41.542  56.897 -58.199  1.00  0.00     0.159 HD
HETATM   28  O   UNL     1     -43.208  55.370 -57.090  1.00  0.00    -0.266 OA
ENDBRANCH   8  24
TORSDOF 5
ENDMDL
MODEL 6
REMARK VINA RESULT:      -8.1      3.868      5.551
REMARK  5 active torsions:
REMARK  status: ('A' for Active; 'I' for Inactive)
REMARK    1  A    between atoms: C_2  and  C_3 
REMARK    2  A    between atoms: C_5  and  C_6 
REMARK    3  A    between atoms: C_6  and  C_7 
REMARK       I    between atoms: C_7  and  N_8 
REMARK    4  A    between atoms: N_8  and  C_9 
REMARK    5  A    between atoms: C_16  and  C_17 
REMARK       I    between atoms: C_17  and  N_18 
ROOT
HETATM    1  C   UNL     1     -43.349  57.631 -54.418  1.00  0.00     0.035 A 
HETATM    2  C   UNL     1     -43.797  58.058 -53.157  1.00  0.00     0.046 A 
HETATM    3  C   UNL     1     -44.792  59.054 -53.069  1.00  0.00     0.030 A 
HETATM    4  C   UNL     1     -45.297  59.598 -54.241  1.00  0.00     0.063 A 
HETATM    5  N   UNL     1     -46.210  60.535 -53.841  1.00  0.00    -0.277 N 
HETATM    6  H   UNL     1     -46.767  61.140 -54.433  1.00  0.00     0.189 HD
HETATM    7  N   UNL     1     -46.357  60.634 -52.508  1.00  0.00    -0.168 NA
HETATM    8  C   UNL     1     -45.488  59.720 -52.019  1.00  0.00     0.156 A 
HETATM    9  C   UNL     1     -44.879  59.193 -55.509  1.00  0.00     0.034 A 
HETATM   10  C   UNL     1     -43.898  58.194 -55.573  1.00  0.00     0.032 A 
ENDROOT
BRANCH   1  11
HETATM   11  N   UNL     1     -42.310  56.681 -54.432  1.00  0.00    -0.327 N 
HETATM   12  C   UNL     1     -42.408  55.330 -54.726  1.00  0.00     0.226 C 
HETATM   13  O   UNL     1     -43.443  54.676 -54.814  1.00  0.00    -0.273 OA
HETATM   14  H   UNL     1     -41.376  57.044 -54.279  1.00  0.00     0.169 HD
BRANCH  12  15
HETATM   15  C   UNL     1     -41.049  54.681 -54.960  1.00  0.00     0.141 C 
BRANCH  15  16
HETATM   16  C   UNL     1     -40.642  53.768 -53.824  1.00  0.00    -0.049 A 
HETATM   17  C   UNL     1     -40.326  52.423 -54.073  1.00  0.00     0.014 A 
HETATM   18  C   UNL     1     -39.916  51.572 -53.038  1.00  0.00    -0.058 A 
HETATM   19  C   UNL     1     -39.841  52.078 -51.735  1.00  0.00     0.007 A 
HETATM   20  C   UNL     1     -40.180  53.405 -51.473  1.00  0.00     0.001 A 
HETATM   21  C   UNL     1     -40.581  54.247 -52.510  1.00  0.00     0.007 A 
BRANCH  18  22
HETATM   22  C   UNL     1     -39.521  50.148 -53.335  1.00  0.00     0.034 C 
HETATM   23  C   UNL     1     -39.840  49.761 -54.772  1.00  0.00     0.010 C 
ENDBRANCH  18  22
ENDBRANCH  15  16
ENDBRANCH  12  15
ENDBRANCH   1  11
BRANCH   8  24
HETATM   24  C   UNL     1     -45.341  59.497 -50.574  1.00  0.00     0.270 C 
HETATM   25  N   UNL     1     -44.171  59.972 -50.051  1.00  0.00    -0.365 N 
HETATM   26  H   UNL     1     -43.517  60.437 -50.670  1.00  0.00     0.159 HD
HETATM   27  H   UNL     1     -43.989  59.885 -49.063  1.00  0.00     0.159 HD
HETATM   28  O   UNL     1     -46.179  58.942 -49.869  1.00  0.00    -0.266 OA
ENDBRANCH   8  24
TORSDOF 5
ENDMDL
MODEL 7
REMARK VINA RESULT:      -8.0      3.096      8.656
REMARK  5 active torsions:
REMARK  status: ('A' for Active; 'I' for Inactive)
REMARK    1  A    between atoms: C_2  and  C_3 
REMARK    2  A    between atoms: C_5  and  C_6 
REMARK    3  A    between atoms: C_6  and  C_7 
REMARK       I    between atoms: C_7  and  N_8 
REMARK    4  A    between atoms: N_8  and  C_9 
REMARK    5  A    between atoms: C_16  and  C_17 
REMARK       I    between atoms: C_17  and  N_18 
ROOT
HETATM    1  C   UNL     1     -40.989  54.551 -54.283  1.00  0.00     0.035 A 
HETATM    2  C   UNL     1     -41.195  54.610 -52.895  1.00  0.00     0.046 A 
HETATM    3  C   UNL     1     -40.744  53.554 -52.076  1.00  0.00     0.030 A 
HETATM    4  C   UNL     1     -40.115  52.470 -52.671  1.00  0.00     0.063 A 
HETATM    5  N   UNL     1     -39.819  51.615 -51.645  1.00  0.00    -0.277 N 
HETATM    6  H   UNL     1     -39.366  50.712 -51.712  1.00  0.00     0.189 HD
HETATM    7  N   UNL     1     -40.185  52.060 -50.429  1.00  0.00    -0.168 NA
HETATM    8  C   UNL     1     -40.754  53.259 -50.681  1.00  0.00     0.156 A 
HETATM    9  C   UNL     1     -39.890  52.382 -54.045  1.00  0.00     0.034 A 
HETATM   10  C   UNL     1     -40.336  53.448 -54.838  1.00  0.00     0.032 A 
ENDROOT
BRANCH   1  11
HETATM   11  N   UNL     1     -41.521  55.608 -55.047  1.00  0.00    -0.327 N 
HETATM   12  C   UNL     1     -42.852  55.977 -55.163  1.00  0.00     0.226 C 
HETATM   13  O   UNL     1     -43.824  55.322 -54.799  1.00  0.00    -0.273 OA
HETATM   14  H   UNL     1     -40.844  56.208 -55.503  1.00  0.00     0.169 HD
BRANCH  12  15
HETATM   15  C   UNL     1     -43.026  57.349 -55.803  1.00  0.00     0.141 C 
BRANCH  15  16
HETATM   16  C   UNL     1     -42.845  57.312 -57.304  1.00  0.00    -0.049 A 
HETATM   17  C   UNL     1     -43.545  56.375 -58.082  1.00  0.00     0.014 A 
HETATM   18  C   UNL     1     -43.414  56.349 -59.476  1.00  0.00    -0.058 A 
HETATM   19  C   UNL     1     -42.554  57.265 -60.094  1.00  0.00     0.007 A 
HETATM   20  C   UNL     1     -41.833  58.181 -59.328  1.00  0.00     0.001 A 
HETATM   21  C   UNL     1     -41.973  58.205 -57.941  1.00  0.00     0.007 A 
BRANCH  18  22
HETATM   22  C   UNL     1     -44.221  55.376 -60.299  1.00  0.00     0.034 C 
HETATM   23  C   UNL     1     -44.535  54.105 -59.523  1.00  0.00     0.010 C 
ENDBRANCH  18  22
ENDBRANCH  15  16
ENDBRANCH  12  15
ENDBRANCH   1  11
BRANCH   8  24
HETATM   24  C   UNL     1     -41.289  54.098 -49.600  1.00  0.00     0.270 C 
HETATM   25  N   UNL     1     -40.402  54.338 -48.588  1.00  0.00    -0.365 N 
HETATM   26  H   UNL     1     -39.470  53.947 -48.657  1.00  0.00     0.159 HD
HETATM   27  H   UNL     1     -40.671  54.922 -47.811  1.00  0.00     0.159 HD
HETATM   28  O   UNL     1     -42.425  54.562 -49.579  1.00  0.00    -0.266 OA
ENDBRANCH   8  24
TORSDOF 5
ENDMDL
MODEL 8
REMARK VINA RESULT:      -8.0      2.858      8.583
REMARK  5 active torsions:
REMARK  status: ('A' for Active; 'I' for Inactive)
REMARK    1  A    between atoms: C_2  and  C_3 
REMARK    2  A    between atoms: C_5  and  C_6 
REMARK    3  A    between atoms: C_6  and  C_7 
REMARK       I    between atoms: C_7  and  N_8 
REMARK    4  A    between atoms: N_8  and  C_9 
REMARK    5  A    between atoms: C_16  and  C_17 
REMARK       I    between atoms: C_17  and  N_18 
ROOT
HETATM    1  C   UNL     1     -41.165  54.601 -54.654  1.00  0.00     0.035 A 
HETATM    2  C   UNL     1     -40.827  53.239 -54.705  1.00  0.00     0.046 A 
HETATM    3  C   UNL     1     -40.395  52.582 -53.534  1.00  0.00     0.030 A 
HETATM    4  C   UNL     1     -40.302  53.309 -52.356  1.00  0.00     0.063 A 
HETATM    5  N   UNL     1     -39.842  52.424 -51.420  1.00  0.00    -0.277 N 
HETATM    6  H   UNL     1     -39.643  52.613 -50.445  1.00  0.00     0.189 HD
HETATM    7  N   UNL     1     -39.646  51.177 -51.884  1.00  0.00    -0.168 NA
HETATM    8  C   UNL     1     -39.987  51.260 -53.189  1.00  0.00     0.156 A 
HETATM    9  C   UNL     1     -40.635  54.661 -52.270  1.00  0.00     0.034 A 
HETATM   10  C   UNL     1     -41.074  55.291 -53.443  1.00  0.00     0.032 A 
ENDROOT
BRANCH   1  11
HETATM   11  N   UNL     1     -41.528  55.209 -55.872  1.00  0.00    -0.327 N 
HETATM   12  C   UNL     1     -42.684  55.924 -56.145  1.00  0.00     0.226 C 
HETATM   13  O   UNL     1     -43.692  55.973 -55.448  1.00  0.00    -0.273 OA
HETATM   14  H   UNL     1     -40.831  55.178 -56.607  1.00  0.00     0.169 HD
BRANCH  12  15
HETATM   15  C   UNL     1     -42.595  56.704 -57.451  1.00  0.00     0.141 C 
BRANCH  15  16
HETATM   16  C   UNL     1     -43.699  56.339 -58.418  1.00  0.00    -0.049 A 
HETATM   17  C   UNL     1     -44.781  57.210 -58.624  1.00  0.00     0.014 A 
HETATM   18  C   UNL     1     -45.794  56.902 -59.540  1.00  0.00    -0.058 A 
HETATM   19  C   UNL     1     -45.727  55.694 -60.244  1.00  0.00     0.007 A 
HETATM   20  C   UNL     1     -44.672  54.809 -60.026  1.00  0.00     0.001 A 
HETATM   21  C   UNL     1     -43.663  55.125 -59.117  1.00  0.00     0.007 A 
BRANCH  18  22
HETATM   22  C   UNL     1     -46.915  57.879 -59.793  1.00  0.00     0.034 C 
HETATM   23  C   UNL     1     -47.132  58.808 -58.607  1.00  0.00     0.010 C 
ENDBRANCH  18  22
ENDBRANCH  15  16
ENDBRANCH  12  15
ENDBRANCH   1  11
BRANCH   8  24
HETATM   24  C   UNL     1     -39.925  50.090 -54.075  1.00  0.00     0.270 C 
HETATM   25  N   UNL     1     -41.103  49.804 -54.707  1.00  0.00    -0.365 N 
HETATM   26  H   UNL     1     -41.902  50.402 -54.536  1.00  0.00     0.159 HD
HETATM   27  H   UNL     1     -41.153  49.030 -55.352  1.00  0.00     0.159 HD
HETATM   28  O   UNL     1     -38.919  49.411 -54.258  1.00  0.00    -0.266 OA
ENDBRANCH   8  24
TORSDOF 5
ENDMDL
MODEL 9
REMARK VINA RESULT:      -7.9      1.828      2.424
REMARK  5 active torsions:
REMARK  status: ('A' for Active; 'I' for Inactive)
REMARK    1  A    between atoms: C_2  and  C_3 
REMARK    2  A    between atoms: C_5  and  C_6 
REMARK    3  A    between atoms: C_6  and  C_7 
REMARK       I    between atoms: C_7  and  N_8 
REMARK    4  A    between atoms: N_8  and  C_9 
REMARK    5  A    between atoms: C_16  and  C_17 
REMARK       I    between atoms: C_17  and  N_18 
ROOT
HETATM    1  C   UNL     1     -43.546  57.169 -54.801  1.00  0.00     0.035 A 
HETATM    2  C   UNL     1     -43.460  56.588 -56.077  1.00  0.00     0.046 A 
HETATM    3  C   UNL     1     -43.972  57.278 -57.195  1.00  0.00     0.030 A 
HETATM    4  C   UNL     1     -44.564  58.518 -57.000  1.00  0.00     0.063 A 
HETATM    5  N   UNL     1     -44.978  58.921 -58.240  1.00  0.00    -0.277 N 
HETATM    6  H   UNL     1     -45.464  59.778 -58.475  1.00  0.00     0.189 HD
HETATM    7  N   UNL     1     -44.688  58.057 -59.230  1.00  0.00    -0.168 NA
HETATM    8  C   UNL     1     -44.063  57.039 -58.597  1.00  0.00     0.156 A 
HETATM    9  C   UNL     1     -44.661  59.126 -55.748  1.00  0.00     0.034 A 
HETATM   10  C   UNL     1     -44.135  58.427 -54.652  1.00  0.00     0.032 A 
ENDROOT
BRANCH   1  11
HETATM   11  N   UNL     1     -43.072  56.397 -53.722  1.00  0.00    -0.327 N 
HETATM   12  C   UNL     1     -41.798  56.407 -53.175  1.00  0.00     0.226 C 
HETATM   13  O   UNL     1     -40.799  56.924 -53.665  1.00  0.00    -0.273 OA
HETATM   14  H   UNL     1     -43.763  55.826 -53.250  1.00  0.00     0.169 HD
BRANCH  12  15
HETATM   15  C   UNL     1     -41.734  55.695 -51.830  1.00  0.00     0.141 C 
BRANCH  15  16
HETATM   16  C   UNL     1     -41.020  54.364 -51.914  1.00  0.00    -0.049 A 
HETATM   17  C   UNL     1     -41.087  53.594 -53.087  1.00  0.00     0.014 A 
HETATM   18  C   UNL     1     -40.405  52.376 -53.194  1.00  0.00    -0.058 A 
HETATM   19  C   UNL     1     -39.661  51.917 -52.100  1.00  0.00     0.007 A 
HETATM   20  C   UNL     1     -39.610  52.660 -50.921  1.00  0.00     0.001 A 
HETATM   21  C   UNL     1     -40.287  53.877 -50.825  1.00  0.00     0.007 A 
BRANCH  18  22
HETATM   22  C   UNL     1     -40.440  51.595 -54.483  1.00  0.00     0.034 C 
HETATM   23  C   UNL     1     -39.902  50.182 -54.303  1.00  0.00     0.010 C 
ENDBRANCH  18  22
ENDBRANCH  15  16
ENDBRANCH  12  15
ENDBRANCH   1  11
BRANCH   8  24
HETATM   24  C   UNL     1     -43.563  55.870 -59.333  1.00  0.00     0.270 C 
HETATM   25  N   UNL     1     -44.291  54.730 -59.132  1.00  0.00    -0.365 N 
HETATM   26  H   UNL     1     -45.100  54.772 -58.523  1.00  0.00     0.159 HD
HETATM   27  H   UNL     1     -44.037  53.880 -59.612  1.00  0.00     0.159 HD
HETATM   28  O   UNL     1     -42.585  55.883 -60.074  1.00  0.00    -0.266 OA
ENDBRANCH   8  24
TORSDOF 5
ENDMDL
MODEL 10
REMARK VINA RESULT:      -7.8      4.430      6.039
REMARK  5 active torsions:
REMARK  status: ('A' for Active; 'I' for Inactive)
REMARK    1  A    between atoms: C_2  and  C_3 
REMARK    2  A    between atoms: C_5  and  C_6 
REMARK    3  A    between atoms: C_6  and  C_7 
REMARK       I    between atoms: C_7  and  N_8 
REMARK    4  A    between atoms: N_8  and  C_9 
REMARK    5  A    between atoms: C_16  and  C_17 
REMARK       I    between atoms: C_17  and  N_18 
ROOT
HETATM    1  C   UNL     1     -41.132  57.728 -50.784  1.00  0.00     0.035 A 
HETATM    2  C   UNL     1     -42.188  57.702 -51.710  1.00  0.00     0.046 A 
HETATM    3  C   UNL     1     -42.957  58.864 -51.927  1.00  0.00     0.030 A 
HETATM    4  C   UNL     1     -42.653  60.009 -51.205  1.00  0.00     0.063 A 
HETATM    5  N   UNL     1     -43.567  60.944 -51.608  1.00  0.00    -0.277 N 
HETATM    6  H   UNL     1     -43.653  61.898 -51.278  1.00  0.00     0.189 HD
HETATM    7  N   UNL     1     -44.428  60.510 -52.546  1.00  0.00    -0.168 NA
HETATM    8  C   UNL     1     -44.059  59.227 -52.755  1.00  0.00     0.156 A 
HETATM    9  C   UNL     1     -41.608  60.072 -50.282  1.00  0.00     0.034 A 
HETATM   10  C   UNL     1     -40.850  58.908 -50.091  1.00  0.00     0.032 A 
ENDROOT
BRANCH   1  11
HETATM   11  N   UNL     1     -40.448  56.516 -50.570  1.00  0.00    -0.327 N 
HETATM   12  C   UNL     1     -40.959  55.342 -50.038  1.00  0.00     0.226 C 
HETATM   13  O   UNL     1     -42.033  55.212 -49.459  1.00  0.00    -0.273 OA
HETATM   14  H   UNL     1     -39.495  56.480 -50.912  1.00  0.00     0.169 HD
BRANCH  12  15
HETATM   15  C   UNL     1     -40.035  54.151 -50.254  1.00  0.00     0.141 C 
BRANCH  15  16
HETATM   16  C   UNL     1     -40.217  53.518 -51.616  1.00  0.00    -0.049 A 
HETATM   17  C   UNL     1     -39.791  52.200 -51.850  1.00  0.00     0.014 A 
HETATM   18  C   UNL     1     -39.982  51.588 -53.096  1.00  0.00    -0.058 A 
HETATM   19  C   UNL     1     -40.591  52.318 -54.123  1.00  0.00     0.007 A 
HETATM   20  C   UNL     1     -40.991  53.637 -53.910  1.00  0.00     0.001 A 
HETATM   21  C   UNL     1     -40.804  54.237 -52.664  1.00  0.00     0.007 A 
BRANCH  18  22
HETATM   22  C   UNL     1     -39.575  50.152 -53.308  1.00  0.00     0.034 C 
HETATM   23  C   UNL     1     -39.753  49.722 -54.758  1.00  0.00     0.010 C 
ENDBRANCH  18  22
ENDBRANCH  15  16
ENDBRANCH  12  15
ENDBRANCH   1  11
BRANCH   8  24
HETATM   24  C   UNL     1     -44.752  58.379 -53.733  1.00  0.00     0.270 C 
HETATM   25  N   UNL     1     -45.513  59.071 -54.633  1.00  0.00    -0.365 N 
HETATM   26  H   UNL     1     -45.536  60.082 -54.573  1.00  0.00     0.159 HD
HETATM   27  H   UNL     1     -46.011  58.576 -55.358  1.00  0.00     0.159 HD
HETATM   28  O   UNL     1     -44.672  57.154 -53.771  1.00  0.00    -0.266 OA
ENDBRANCH   8  24
TORSDOF 5
ENDMDL
