MODEL 1
REMARK VINA RESULT:      -7.6      0.000      0.000
REMARK  11 active torsions:
REMARK  status: ('A' for Active; 'I' for Inactive)
REMARK    1  A    between atoms: C_4  and  C_5 
REMARK    2  A    between atoms: C_7  and  O_8 
REMARK    3  A    between atoms: C_10  and  O_11 
REMARK    4  A    between atoms: C_16  and  C_17 
REMARK    5  A    between atoms: C_20  and  C_21 
REMARK    6  A    between atoms: C_21  and  N_22 
REMARK    7  A    between atoms: N_22  and  C_23 
REMARK    8  A    between atoms: C_23  and  N_24 
REMARK    9  A    between atoms: N_24  and  C_25 
REMARK   10  A    between atoms: C_27  and  C_28 
REMARK   11  A    between atoms: C_28  and  O_29 
ROOT
HETATM    1  C   UNL     1     -43.020  57.102 -57.259  1.00  0.00     0.067 C 
HETATM    2  C   UNL     1     -42.112  58.300 -57.596  1.00  0.00     0.001 C 
HETATM    3  C   UNL     1     -42.628  59.614 -56.973  1.00  0.00     0.040 C 
HETATM    4  C   UNL     1     -44.018  59.999 -57.502  1.00  0.00     0.206 C 
HETATM    5  N   UNL     1     -44.531  58.803 -58.302  1.00  0.00    -0.065 N 
HETATM    6  H   UNL     1     -45.504  58.978 -58.589  1.00  0.00     0.280 HD
HETATM    7  C   UNL     1     -44.494  57.506 -57.488  1.00  0.00     0.246 C 
HETATM    8  C   UNL     1     -42.211  58.503 -59.132  1.00  0.00     0.033 C 
HETATM    9  C   UNL     1     -43.681  58.645 -59.559  1.00  0.00     0.236 C 
ENDROOT
BRANCH   4  10
HETATM   10  C   UNL     1     -45.006  60.438 -56.396  1.00  0.00     0.155 C 
BRANCH  10  11
HETATM   11  N   UNL     1     -44.352  61.178 -55.317  1.00  0.00    -0.365 N 
HETATM   12  H   UNL     1     -44.016  62.112 -55.536  1.00  0.00     0.161 HD
BRANCH  11  13
HETATM   13  C   UNL     1     -44.589  61.019 -53.978  1.00  0.00     0.172 C 
HETATM   14  S   UNL     1     -46.095  61.059 -53.258  1.00  0.00    -0.041 SA
BRANCH  13  15
HETATM   15  N   UNL     1     -43.503  60.842 -53.169  1.00  0.00    -0.333 N 
HETATM   16  H   UNL     1     -43.345  61.638 -52.554  1.00  0.00     0.168 HD
BRANCH  15  17
HETATM   17  C   UNL     1     -42.669  59.728 -52.931  1.00  0.00     0.035 A 
HETATM   18  C   UNL     1     -42.891  58.785 -51.926  1.00  0.00     0.047 A 
HETATM   19  C   UNL     1     -42.005  57.712 -51.732  1.00  0.00     0.041 A 
HETATM   20  C   UNL     1     -40.869  57.598 -52.536  1.00  0.00     0.018 A 
HETATM   21  C   UNL     1     -40.622  58.554 -53.520  1.00  0.00     0.003 A 
HETATM   22  C   UNL     1     -41.515  59.613 -53.712  1.00  0.00     0.029 A 
BRANCH  19  23
HETATM   23  C   UNL     1     -42.337  56.734 -50.659  1.00  0.00     0.293 C 
HETATM   24  O   UNL     1     -41.525  56.371 -49.819  1.00  0.00    -0.259 OA
BRANCH  23  25
HETATM   25  O   UNL     1     -43.625  56.331 -50.755  1.00  0.00    -0.323 OA
HETATM   26  C   UNL     1     -43.821  54.930 -50.557  1.00  0.00     0.213 C 
ENDBRANCH  23  25
ENDBRANCH  19  23
ENDBRANCH  15  17
ENDBRANCH  13  15
ENDBRANCH  11  13
ENDBRANCH  10  11
ENDBRANCH   4  10
BRANCH   1  27
HETATM   27  C   UNL     1     -42.843  56.316 -55.988  1.00  0.00     0.038 C 
HETATM   28  N   UNL     1     -43.617  56.225 -54.851  1.00  0.00    -0.277 N 
HETATM   29  C   UNL     1     -44.768  56.977 -54.412  1.00  0.00     0.179 C 
HETATM   30  N   UNL     1     -43.214  55.253 -54.018  1.00  0.00    -0.172 NA
HETATM   31  C   UNL     1     -42.050  54.816 -54.503  1.00  0.00     0.089 C 
HETATM   32  C   UNL     1     -41.780  55.458 -55.731  1.00  0.00     0.061 C 
BRANCH  31  33
HETATM   33  C   UNL     1     -41.264  53.790 -53.820  1.00  0.00    -0.003 A 
HETATM   34  C   UNL     1     -40.802  54.010 -52.513  1.00  0.00     0.053 A 
HETATM   35  C   UNL     1     -40.068  53.030 -51.836  1.00  0.00     0.102 A 
HETATM   36  C   UNL     1     -39.772  51.813 -52.481  1.00  0.00     0.101 A 
HETATM   37  C   UNL     1     -40.224  51.596 -53.786  1.00  0.00     0.040 A 
HETATM   38  C   UNL     1     -40.966  52.577 -54.451  1.00  0.00     0.017 A 
BRANCH  35  39
HETATM   39  O   UNL     1     -39.599  53.161 -50.552  1.00  0.00    -0.353 OA
HETATM   40  C   UNL     1     -40.545  53.109 -49.494  1.00  0.00     0.210 C 
ENDBRANCH  35  39
BRANCH  36  41
HETATM   41  O   UNL     1     -39.051  50.902 -51.750  1.00  0.00    -0.353 OA
HETATM   42  C   UNL     1     -39.674  49.665 -51.434  1.00  0.00     0.210 C 
ENDBRANCH  36  41
ENDBRANCH  31  33
ENDBRANCH   1  27
TORSDOF 11
ENDMDL
MODEL 2
REMARK VINA RESULT:      -7.4      3.284      5.658
REMARK  11 active torsions:
REMARK  status: ('A' for Active; 'I' for Inactive)
REMARK    1  A    between atoms: C_4  and  C_5 
REMARK    2  A    between atoms: C_7  and  O_8 
REMARK    3  A    between atoms: C_10  and  O_11 
REMARK    4  A    between atoms: C_16  and  C_17 
REMARK    5  A    between atoms: C_20  and  C_21 
REMARK    6  A    between atoms: C_21  and  N_22 
REMARK    7  A    between atoms: N_22  and  C_23 
REMARK    8  A    between atoms: C_23  and  N_24 
REMARK    9  A    between atoms: N_24  and  C_25 
REMARK   10  A    between atoms: C_27  and  C_28 
REMARK   11  A    between atoms: C_28  and  O_29 
ROOT
HETATM    1  C   UNL     1     -43.244  59.280 -54.387  1.00  0.00     0.067 C 
HETATM    2  C   UNL     1     -44.255  58.902 -55.485  1.00  0.00     0.001 C 
HETATM    3  C   UNL     1     -43.610  58.876 -56.886  1.00  0.00     0.040 C 
HETATM    4  C   UNL     1     -43.064  60.253 -57.297  1.00  0.00     0.206 C 
HETATM    5  N   UNL     1     -43.133  61.141 -56.056  1.00  0.00    -0.065 N 
HETATM    6  H   UNL     1     -42.681  62.044 -56.259  1.00  0.00     0.280 HD
HETATM    7  C   UNL     1     -42.429  60.508 -54.853  1.00  0.00     0.246 C 
HETATM    8  C   UNL     1     -45.299  60.050 -55.530  1.00  0.00     0.033 C 
HETATM    9  C   UNL     1     -44.597  61.405 -55.715  1.00  0.00     0.236 C 
ENDROOT
BRANCH   4  10
HETATM   10  C   UNL     1     -41.645  60.203 -57.909  1.00  0.00     0.155 C 
BRANCH  10  11
HETATM   11  N   UNL     1     -41.567  60.870 -59.208  1.00  0.00    -0.365 N 
HETATM   12  H   UNL     1     -40.683  61.311 -59.448  1.00  0.00     0.161 HD
BRANCH  11  13
HETATM   13  C   UNL     1     -42.298  60.548 -60.320  1.00  0.00     0.172 C 
HETATM   14  S   UNL     1     -43.307  61.595 -61.142  1.00  0.00    -0.041 SA
BRANCH  13  15
HETATM   15  N   UNL     1     -42.214  59.262 -60.771  1.00  0.00    -0.333 N 
HETATM   16  H   UNL     1     -41.444  59.131 -61.425  1.00  0.00     0.168 HD
BRANCH  15  17
HETATM   17  C   UNL     1     -42.887  58.079 -60.396  1.00  0.00     0.035 A 
HETATM   18  C   UNL     1     -44.275  57.964 -60.304  1.00  0.00     0.047 A 
HETATM   19  C   UNL     1     -44.878  56.760 -59.903  1.00  0.00     0.041 A 
HETATM   20  C   UNL     1     -44.078  55.667 -59.562  1.00  0.00     0.018 A 
HETATM   21  C   UNL     1     -42.690  55.783 -59.618  1.00  0.00     0.003 A 
HETATM   22  C   UNL     1     -42.101  56.983 -60.028  1.00  0.00     0.029 A 
BRANCH  19  23
HETATM   23  C   UNL     1     -46.365  56.716 -59.866  1.00  0.00     0.293 C 
HETATM   24  O   UNL     1     -47.022  57.250 -58.983  1.00  0.00    -0.259 OA
BRANCH  23  25
HETATM   25  O   UNL     1     -46.854  56.025 -60.921  1.00  0.00    -0.323 OA
HETATM   26  C   UNL     1     -47.888  56.699 -61.640  1.00  0.00     0.213 C 
ENDBRANCH  23  25
ENDBRANCH  19  23
ENDBRANCH  15  17
ENDBRANCH  13  15
ENDBRANCH  11  13
ENDBRANCH  10  11
ENDBRANCH   4  10
BRANCH   1  27
HETATM   27  C   UNL     1     -42.372  58.244 -53.730  1.00  0.00     0.038 C 
HETATM   28  N   UNL     1     -41.663  58.258 -52.549  1.00  0.00    -0.277 N 
HETATM   29  C   UNL     1     -41.368  59.323 -51.620  1.00  0.00     0.179 C 
HETATM   30  N   UNL     1     -41.171  57.054 -52.218  1.00  0.00    -0.172 NA
HETATM   31  C   UNL     1     -41.384  56.269 -53.275  1.00  0.00     0.089 C 
HETATM   32  C   UNL     1     -42.129  56.975 -54.245  1.00  0.00     0.061 C 
BRANCH  31  33
HETATM   33  C   UNL     1     -40.919  54.884 -53.317  1.00  0.00    -0.003 A 
HETATM   34  C   UNL     1     -40.751  54.161 -52.126  1.00  0.00     0.053 A 
HETATM   35  C   UNL     1     -40.330  52.826 -52.148  1.00  0.00     0.102 A 
HETATM   36  C   UNL     1     -40.053  52.205 -53.382  1.00  0.00     0.101 A 
HETATM   37  C   UNL     1     -40.211  52.927 -54.569  1.00  0.00     0.040 A 
HETATM   38  C   UNL     1     -40.643  54.257 -54.537  1.00  0.00     0.017 A 
BRANCH  35  39
HETATM   39  O   UNL     1     -40.160  52.048 -51.030  1.00  0.00    -0.353 OA
HETATM   40  C   UNL     1     -40.419  52.642 -49.765  1.00  0.00     0.210 C 
ENDBRANCH  35  39
BRANCH  36  41
HETATM   41  O   UNL     1     -39.647  50.896 -53.321  1.00  0.00    -0.353 OA
HETATM   42  C   UNL     1     -39.906  50.070 -54.447  1.00  0.00     0.210 C 
ENDBRANCH  36  41
ENDBRANCH  31  33
ENDBRANCH   1  27
TORSDOF 11
ENDMDL
MODEL 3
REMARK VINA RESULT:      -7.3      3.146      5.758
REMARK  11 active torsions:
REMARK  status: ('A' for Active; 'I' for Inactive)
REMARK    1  A    between atoms: C_4  and  C_5 
REMARK    2  A    between atoms: C_7  and  O_8 
REMARK    3  A    between atoms: C_10  and  O_11 
REMARK    4  A    between atoms: C_16  and  C_17 
REMARK    5  A    between atoms: C_20  and  C_21 
REMARK    6  A    between atoms: C_21  and  N_22 
REMARK    7  A    between atoms: N_22  and  C_23 
REMARK    8  A    between atoms: C_23  and  N_24 
REMARK    9  A    between atoms: N_24  and  C_25 
REMARK   10  A    between atoms: C_27  and  C_28 
REMARK   11  A    between atoms: C_28  and  O_29 
ROOT
HETATM    1  C   UNL     1     -42.681  58.595 -53.707  1.00  0.00     0.067 C 
HETATM    2  C   UNL     1     -44.036  59.170 -54.163  1.00  0.00     0.001 C 
HETATM    3  C   UNL     1     -44.016  59.600 -55.644  1.00  0.00     0.040 C 
HETATM    4  C   UNL     1     -42.994  60.716 -55.910  1.00  0.00     0.206 C 
HETATM    5  N   UNL     1     -42.159  60.859 -54.638  1.00  0.00    -0.065 N 
HETATM    6  H   UNL     1     -41.393  61.525 -54.808  1.00  0.00     0.280 HD
HETATM    7  C   UNL     1     -41.549  59.526 -54.197  1.00  0.00     0.246 C 
HETATM    8  C   UNL     1     -44.248  60.478 -53.354  1.00  0.00     0.033 C 
HETATM    9  C   UNL     1     -43.041  61.414 -53.524  1.00  0.00     0.236 C 
ENDROOT
BRANCH   4  10
HETATM   10  C   UNL     1     -42.123  60.478 -57.165  1.00  0.00     0.155 C 
BRANCH  10  11
HETATM   11  N   UNL     1     -42.829  60.789 -58.408  1.00  0.00    -0.365 N 
HETATM   12  H   UNL     1     -43.676  61.346 -58.331  1.00  0.00     0.161 HD
BRANCH  11  13
HETATM   13  C   UNL     1     -42.260  60.889 -59.649  1.00  0.00     0.172 C 
HETATM   14  S   UNL     1     -41.440  62.225 -60.224  1.00  0.00    -0.041 SA
BRANCH  13  15
HETATM   15  N   UNL     1     -42.401  59.820 -60.488  1.00  0.00    -0.333 N 
HETATM   16  H   UNL     1     -41.930  59.964 -61.380  1.00  0.00     0.168 HD
BRANCH  15  17
HETATM   17  C   UNL     1     -42.939  58.530 -60.298  1.00  0.00     0.035 A 
HETATM   18  C   UNL     1     -44.301  58.264 -60.150  1.00  0.00     0.047 A 
HETATM   19  C   UNL     1     -44.766  56.954 -59.942  1.00  0.00     0.041 A 
HETATM   20  C   UNL     1     -43.851  55.902 -59.853  1.00  0.00     0.018 A 
HETATM   21  C   UNL     1     -42.487  56.163 -59.966  1.00  0.00     0.003 A 
HETATM   22  C   UNL     1     -42.035  57.469 -60.184  1.00  0.00     0.029 A 
BRANCH  19  23
HETATM   23  C   UNL     1     -46.237  56.758 -59.828  1.00  0.00     0.293 C 
HETATM   24  O   UNL     1     -46.904  57.252 -58.930  1.00  0.00    -0.259 OA
BRANCH  23  25
HETATM   25  O   UNL     1     -46.699  55.982 -60.835  1.00  0.00    -0.323 OA
HETATM   26  C   UNL     1     -47.767  56.563 -61.586  1.00  0.00     0.213 C 
ENDBRANCH  23  25
ENDBRANCH  19  23
ENDBRANCH  15  17
ENDBRANCH  13  15
ENDBRANCH  11  13
ENDBRANCH  10  11
ENDBRANCH   4  10
BRANCH   1  27
HETATM   27  C   UNL     1     -42.339  57.142 -53.900  1.00  0.00     0.038 C 
HETATM   28  N   UNL     1     -42.422  56.320 -55.003  1.00  0.00    -0.277 N 
HETATM   29  C   UNL     1     -43.021  56.514 -56.301  1.00  0.00     0.179 C 
HETATM   30  N   UNL     1     -41.826  55.132 -54.817  1.00  0.00    -0.172 NA
HETATM   31  C   UNL     1     -41.512  55.079 -53.521  1.00  0.00     0.089 C 
HETATM   32  C   UNL     1     -41.820  56.315 -52.910  1.00  0.00     0.061 C 
BRANCH  31  33
HETATM   33  C   UNL     1     -40.901  53.895 -52.920  1.00  0.00    -0.003 A 
HETATM   34  C   UNL     1     -40.366  52.887 -53.736  1.00  0.00     0.053 A 
HETATM   35  C   UNL     1     -39.756  51.757 -53.178  1.00  0.00     0.102 A 
HETATM   36  C   UNL     1     -39.695  51.622 -51.777  1.00  0.00     0.101 A 
HETATM   37  C   UNL     1     -40.236  52.621 -50.962  1.00  0.00     0.040 A 
HETATM   38  C   UNL     1     -40.833  53.751 -51.530  1.00  0.00     0.017 A 
BRANCH  35  39
HETATM   39  O   UNL     1     -39.194  50.739 -53.908  1.00  0.00    -0.353 OA
HETATM   40  C   UNL     1     -40.071  49.852 -54.588  1.00  0.00     0.210 C 
ENDBRANCH  35  39
BRANCH  36  41
HETATM   41  O   UNL     1     -39.080  50.489 -51.307  1.00  0.00    -0.353 OA
HETATM   42  C   UNL     1     -39.878  49.543 -50.610  1.00  0.00     0.210 C 
ENDBRANCH  36  41
ENDBRANCH  31  33
ENDBRANCH   1  27
TORSDOF 11
ENDMDL
MODEL 4
REMARK VINA RESULT:      -7.3      2.830      5.432
REMARK  11 active torsions:
REMARK  status: ('A' for Active; 'I' for Inactive)
REMARK    1  A    between atoms: C_4  and  C_5 
REMARK    2  A    between atoms: C_7  and  O_8 
REMARK    3  A    between atoms: C_10  and  O_11 
REMARK    4  A    between atoms: C_16  and  C_17 
REMARK    5  A    between atoms: C_20  and  C_21 
REMARK    6  A    between atoms: C_21  and  N_22 
REMARK    7  A    between atoms: N_22  and  C_23 
REMARK    8  A    between atoms: C_23  and  N_24 
REMARK    9  A    between atoms: N_24  and  C_25 
REMARK   10  A    between atoms: C_27  and  C_28 
REMARK   11  A    between atoms: C_28  and  O_29 
ROOT
HETATM    1  C   UNL     1     -43.435  58.646 -51.521  1.00  0.00     0.067 C 
HETATM    2  C   UNL     1     -44.962  58.442 -51.522  1.00  0.00     0.001 C 
HETATM    3  C   UNL     1     -45.641  59.148 -52.713  1.00  0.00     0.040 C 
HETATM    4  C   UNL     1     -45.437  60.671 -52.678  1.00  0.00     0.206 C 
HETATM    5  N   UNL     1     -44.408  60.950 -51.584  1.00  0.00    -0.065 N 
HETATM    6  H   UNL     1     -44.163  61.950 -51.596  1.00  0.00     0.280 HD
HETATM    7  C   UNL     1     -43.125  60.138 -51.778  1.00  0.00     0.246 C 
HETATM    8  C   UNL     1     -45.497  59.160 -50.254  1.00  0.00     0.033 C 
HETATM    9  C   UNL     1     -45.024  60.623 -50.227  1.00  0.00     0.236 C 
ENDROOT
BRANCH   4  10
HETATM   10  C   UNL     1     -45.030  61.276 -54.042  1.00  0.00     0.155 C 
BRANCH  10  11
HETATM   11  N   UNL     1     -45.859  60.790 -55.144  1.00  0.00    -0.365 N 
HETATM   12  H   UNL     1     -46.796  61.176 -55.222  1.00  0.00     0.161 HD
BRANCH  11  13
HETATM   13  C   UNL     1     -45.399  60.314 -56.343  1.00  0.00     0.172 C 
HETATM   14  S   UNL     1     -44.659  61.236 -57.522  1.00  0.00    -0.041 SA
BRANCH  13  15
HETATM   15  N   UNL     1     -45.588  58.986 -56.601  1.00  0.00    -0.333 N 
HETATM   16  H   UNL     1     -46.575  58.742 -56.667  1.00  0.00     0.168 HD
BRANCH  15  17
HETATM   17  C   UNL     1     -44.692  57.947 -56.930  1.00  0.00     0.035 A 
HETATM   18  C   UNL     1     -44.440  57.514 -58.232  1.00  0.00     0.047 A 
HETATM   19  C   UNL     1     -43.550  56.456 -58.485  1.00  0.00     0.041 A 
HETATM   20  C   UNL     1     -42.926  55.807 -57.418  1.00  0.00     0.018 A 
HETATM   21  C   UNL     1     -43.198  56.211 -56.111  1.00  0.00     0.003 A 
HETATM   22  C   UNL     1     -44.078  57.271 -55.871  1.00  0.00     0.029 A 
BRANCH  19  23
HETATM   23  C   UNL     1     -43.315  56.082 -59.907  1.00  0.00     0.293 C 
HETATM   24  O   UNL     1     -44.181  55.589 -60.614  1.00  0.00    -0.259 OA
BRANCH  23  25
HETATM   25  O   UNL     1     -42.045  56.367 -60.277  1.00  0.00    -0.323 OA
HETATM   26  C   UNL     1     -41.727  57.760 -60.272  1.00  0.00     0.213 C 
ENDBRANCH  23  25
ENDBRANCH  19  23
ENDBRANCH  15  17
ENDBRANCH  13  15
ENDBRANCH  11  13
ENDBRANCH  10  11
ENDBRANCH   4  10
BRANCH   1  27
HETATM   27  C   UNL     1     -42.521  57.739 -52.301  1.00  0.00     0.038 C 
HETATM   28  N   UNL     1     -41.580  58.002 -53.273  1.00  0.00    -0.277 N 
HETATM   29  C   UNL     1     -41.265  59.207 -54.002  1.00  0.00     0.179 C 
HETATM   30  N   UNL     1     -40.828  56.933 -53.578  1.00  0.00    -0.172 NA
HETATM   31  C   UNL     1     -41.392  55.898 -52.951  1.00  0.00     0.089 C 
HETATM   32  C   UNL     1     -42.456  56.358 -52.145  1.00  0.00     0.061 C 
BRANCH  31  33
HETATM   33  C   UNL     1     -40.887  54.535 -53.100  1.00  0.00    -0.003 A 
HETATM   34  C   UNL     1     -40.562  53.776 -51.965  1.00  0.00     0.053 A 
HETATM   35  C   UNL     1     -40.100  52.461 -52.087  1.00  0.00     0.102 A 
HETATM   36  C   UNL     1     -39.941  51.896 -53.369  1.00  0.00     0.101 A 
HETATM   37  C   UNL     1     -40.256  52.654 -54.500  1.00  0.00     0.040 A 
HETATM   38  C   UNL     1     -40.728  53.964 -54.367  1.00  0.00     0.017 A 
BRANCH  35  39
HETATM   39  O   UNL     1     -39.779  51.649 -51.027  1.00  0.00    -0.353 OA
HETATM   40  C   UNL     1     -40.486  51.842 -49.810  1.00  0.00     0.210 C 
ENDBRANCH  35  39
BRANCH  36  41
HETATM   41  O   UNL     1     -39.486  50.602 -53.405  1.00  0.00    -0.353 OA
HETATM   42  C   UNL     1     -39.742  49.844 -54.579  1.00  0.00     0.210 C 
ENDBRANCH  36  41
ENDBRANCH  31  33
ENDBRANCH   1  27
TORSDOF 11
ENDMDL
MODEL 5
REMARK VINA RESULT:      -7.3      3.488      6.062
REMARK  11 active torsions:
REMARK  status: ('A' for Active; 'I' for Inactive)
REMARK    1  A    between atoms: C_4  and  C_5 
REMARK    2  A    between atoms: C_7  and  O_8 
REMARK    3  A    between atoms: C_10  and  O_11 
REMARK    4  A    between atoms: C_16  and  C_17 
REMARK    5  A    between atoms: C_20  and  C_21 
REMARK    6  A    between atoms: C_21  and  N_22 
REMARK    7  A    between atoms: N_22  and  C_23 
REMARK    8  A    between atoms: C_23  and  N_24 
REMARK    9  A    between atoms: N_24  and  C_25 
REMARK   10  A    between atoms: C_27  and  C_28 
REMARK   11  A    between atoms: C_28  and  O_29 
ROOT
HETATM    1  C   UNL     1     -42.938  59.167 -52.890  1.00  0.00     0.067 C 
HETATM    2  C   UNL     1     -44.236  59.730 -53.499  1.00  0.00     0.001 C 
HETATM    3  C   UNL     1     -44.236  59.655 -55.040  1.00  0.00     0.040 C 
HETATM    4  C   UNL     1     -43.104  60.489 -55.660  1.00  0.00     0.206 C 
HETATM    5  N   UNL     1     -42.199  60.926 -54.509  1.00  0.00    -0.065 N 
HETATM    6  H   UNL     1     -41.369  61.401 -54.891  1.00  0.00     0.280 HD
HETATM    7  C   UNL     1     -41.729  59.740 -53.663  1.00  0.00     0.246 C 
HETATM    8  C   UNL     1     -44.256  61.244 -53.157  1.00  0.00     0.033 C 
HETATM    9  C   UNL     1     -42.957  61.916 -53.630  1.00  0.00     0.236 C 
ENDROOT
BRANCH   4  10
HETATM   10  C   UNL     1     -42.327  59.752 -56.776  1.00  0.00     0.155 C 
BRANCH  10  11
HETATM   11  N   UNL     1     -42.739  60.165 -58.117  1.00  0.00    -0.365 N 
HETATM   12  H   UNL     1     -42.979  61.145 -58.245  1.00  0.00     0.161 HD
BRANCH  11  13
HETATM   13  C   UNL     1     -42.357  59.573 -59.290  1.00  0.00     0.172 C 
HETATM   14  S   UNL     1     -41.886  60.388 -60.669  1.00  0.00    -0.041 SA
BRANCH  13  15
HETATM   15  N   UNL     1     -42.393  58.208 -59.341  1.00  0.00    -0.333 N 
HETATM   16  H   UNL     1     -41.539  57.785 -58.981  1.00  0.00     0.168 HD
BRANCH  15  17
HETATM   17  C   UNL     1     -43.425  57.297 -59.655  1.00  0.00     0.035 A 
HETATM   18  C   UNL     1     -44.726  57.674 -59.991  1.00  0.00     0.047 A 
HETATM   19  C   UNL     1     -45.710  56.711 -60.272  1.00  0.00     0.041 A 
HETATM   20  C   UNL     1     -45.392  55.353 -60.187  1.00  0.00     0.018 A 
HETATM   21  C   UNL     1     -44.104  54.968 -59.819  1.00  0.00     0.003 A 
HETATM   22  C   UNL     1     -43.129  55.934 -59.552  1.00  0.00     0.029 A 
BRANCH  19  23
HETATM   23  C   UNL     1     -47.062  57.202 -60.655  1.00  0.00     0.293 C 
HETATM   24  O   UNL     1     -47.477  58.309 -60.342  1.00  0.00    -0.259 OA
BRANCH  23  25
HETATM   25  O   UNL     1     -47.727  56.271 -61.375  1.00  0.00    -0.323 OA
HETATM   26  C   UNL     1     -48.504  56.801 -62.451  1.00  0.00     0.213 C 
ENDBRANCH  23  25
ENDBRANCH  19  23
ENDBRANCH  15  17
ENDBRANCH  13  15
ENDBRANCH  11  13
ENDBRANCH  10  11
ENDBRANCH   4  10
BRANCH   1  27
HETATM   27  C   UNL     1     -42.778  57.698 -52.603  1.00  0.00     0.038 C 
HETATM   28  N   UNL     1     -43.542  56.819 -51.866  1.00  0.00    -0.277 N 
HETATM   29  C   UNL     1     -44.658  57.032 -50.976  1.00  0.00     0.179 C 
HETATM   30  N   UNL     1     -43.168  55.540 -52.023  1.00  0.00    -0.172 NA
HETATM   31  C   UNL     1     -42.026  55.575 -52.714  1.00  0.00     0.089 C 
HETATM   32  C   UNL     1     -41.745  56.905 -53.093  1.00  0.00     0.061 C 
BRANCH  31  33
HETATM   33  C   UNL     1     -41.273  54.362 -53.025  1.00  0.00    -0.003 A 
HETATM   34  C   UNL     1     -40.766  53.562 -51.989  1.00  0.00     0.053 A 
HETATM   35  C   UNL     1     -40.062  52.385 -52.268  1.00  0.00     0.102 A 
HETATM   36  C   UNL     1     -39.843  52.007 -53.608  1.00  0.00     0.101 A 
HETATM   37  C   UNL     1     -40.340  52.807 -54.641  1.00  0.00     0.040 A 
HETATM   38  C   UNL     1     -41.052  53.976 -54.351  1.00  0.00     0.017 A 
BRANCH  35  39
HETATM   39  O   UNL     1     -39.552  51.541 -51.313  1.00  0.00    -0.353 OA
HETATM   40  C   UNL     1     -40.350  51.282 -50.166  1.00  0.00     0.210 C 
ENDBRANCH  35  39
BRANCH  36  41
HETATM   41  O   UNL     1     -39.148  50.839 -53.799  1.00  0.00    -0.353 OA
HETATM   42  C   UNL     1     -39.783  49.804 -54.535  1.00  0.00     0.210 C 
ENDBRANCH  36  41
ENDBRANCH  31  33
ENDBRANCH   1  27
TORSDOF 11
ENDMDL
MODEL 6
REMARK VINA RESULT:      -7.2      1.478      2.482
REMARK  11 active torsions:
REMARK  status: ('A' for Active; 'I' for Inactive)
REMARK    1  A    between atoms: C_4  and  C_5 
REMARK    2  A    between atoms: C_7  and  O_8 
REMARK    3  A    between atoms: C_10  and  O_11 
REMARK    4  A    between atoms: C_16  and  C_17 
REMARK    5  A    between atoms: C_20  and  C_21 
REMARK    6  A    between atoms: C_21  and  N_22 
REMARK    7  A    between atoms: N_22  and  C_23 
REMARK    8  A    between atoms: C_23  and  N_24 
REMARK    9  A    between atoms: N_24  and  C_25 
REMARK   10  A    between atoms: C_27  and  C_28 
REMARK   11  A    between atoms: C_28  and  O_29 
ROOT
HETATM    1  C   UNL     1     -42.933  56.605 -57.689  1.00  0.00     0.067 C 
HETATM    2  C   UNL     1     -42.047  57.743 -58.231  1.00  0.00     0.001 C 
HETATM    3  C   UNL     1     -42.609  59.135 -57.877  1.00  0.00     0.040 C 
HETATM    4  C   UNL     1     -43.997  59.374 -58.493  1.00  0.00     0.206 C 
HETATM    5  N   UNL     1     -44.462  58.034 -59.061  1.00  0.00    -0.065 N 
HETATM    6  H   UNL     1     -45.432  58.124 -59.393  1.00  0.00     0.280 HD
HETATM    7  C   UNL     1     -44.411  56.916 -58.017  1.00  0.00     0.246 C 
HETATM    8  C   UNL     1     -42.117  57.649 -59.779  1.00  0.00     0.033 C 
HETATM    9  C   UNL     1     -43.580  57.666 -60.251  1.00  0.00     0.236 C 
ENDROOT
BRANCH   4  10
HETATM   10  C   UNL     1     -45.019  59.985 -57.507  1.00  0.00     0.155 C 
BRANCH  10  11
HETATM   11  N   UNL     1     -44.384  60.575 -56.330  1.00  0.00    -0.365 N 
HETATM   12  H   UNL     1     -43.392  60.787 -56.398  1.00  0.00     0.161 HD
BRANCH  11  13
HETATM   13  C   UNL     1     -45.008  61.340 -55.381  1.00  0.00     0.172 C 
HETATM   14  S   UNL     1     -46.483  62.098 -55.577  1.00  0.00    -0.041 SA
BRANCH  13  15
HETATM   15  N   UNL     1     -44.356  61.517 -54.194  1.00  0.00    -0.333 N 
HETATM   16  H   UNL     1     -44.367  62.489 -53.888  1.00  0.00     0.168 HD
BRANCH  15  17
HETATM   17  C   UNL     1     -43.813  60.604 -53.265  1.00  0.00     0.035 A 
HETATM   18  C   UNL     1     -42.468  60.236 -53.225  1.00  0.00     0.047 A 
HETATM   19  C   UNL     1     -41.999  59.302 -52.285  1.00  0.00     0.041 A 
HETATM   20  C   UNL     1     -42.896  58.711 -51.392  1.00  0.00     0.018 A 
HETATM   21  C   UNL     1     -44.248  59.048 -51.447  1.00  0.00     0.003 A 
HETATM   22  C   UNL     1     -44.702  59.985 -52.380  1.00  0.00     0.029 A 
BRANCH  19  23
HETATM   23  C   UNL     1     -40.543  58.993 -52.291  1.00  0.00     0.293 C 
HETATM   24  O   UNL     1     -39.860  59.041 -53.305  1.00  0.00    -0.259 OA
BRANCH  23  25
HETATM   25  O   UNL     1     -40.114  58.668 -51.051  1.00  0.00    -0.323 OA
HETATM   26  C   UNL     1     -39.410  59.713 -50.377  1.00  0.00     0.213 C 
ENDBRANCH  23  25
ENDBRANCH  19  23
ENDBRANCH  15  17
ENDBRANCH  13  15
ENDBRANCH  11  13
ENDBRANCH  10  11
ENDBRANCH   4  10
BRANCH   1  27
HETATM   27  C   UNL     1     -42.766  56.077 -56.289  1.00  0.00     0.038 C 
HETATM   28  N   UNL     1     -43.478  56.307 -55.132  1.00  0.00    -0.277 N 
HETATM   29  C   UNL     1     -44.517  57.258 -54.819  1.00  0.00     0.179 C 
HETATM   30  N   UNL     1     -43.130  55.485 -54.130  1.00  0.00    -0.172 NA
HETATM   31  C   UNL     1     -42.048  54.829 -54.554  1.00  0.00     0.089 C 
HETATM   32  C   UNL     1     -41.783  55.174 -55.898  1.00  0.00     0.061 C 
BRANCH  31  33
HETATM   33  C   UNL     1     -41.334  53.881 -53.701  1.00  0.00    -0.003 A 
HETATM   34  C   UNL     1     -40.622  52.816 -54.273  1.00  0.00     0.053 A 
HETATM   35  C   UNL     1     -39.913  51.912 -53.473  1.00  0.00     0.102 A 
HETATM   36  C   UNL     1     -39.930  52.063 -52.072  1.00  0.00     0.101 A 
HETATM   37  C   UNL     1     -40.646  53.119 -51.500  1.00  0.00     0.040 A 
HETATM   38  C   UNL     1     -41.342  54.023 -52.309  1.00  0.00     0.017 A 
BRANCH  35  39
HETATM   39  O   UNL     1     -39.179  50.858 -53.957  1.00  0.00    -0.353 OA
HETATM   40  C   UNL     1     -39.885  49.787 -54.569  1.00  0.00     0.210 C 
ENDBRANCH  35  39
BRANCH  36  41
HETATM   41  O   UNL     1     -39.209  51.140 -51.357  1.00  0.00    -0.353 OA
HETATM   42  C   UNL     1     -39.931  50.164 -50.620  1.00  0.00     0.210 C 
ENDBRANCH  36  41
ENDBRANCH  31  33
ENDBRANCH   1  27
TORSDOF 11
ENDMDL
MODEL 7
REMARK VINA RESULT:      -7.2      1.721      2.509
REMARK  11 active torsions:
REMARK  status: ('A' for Active; 'I' for Inactive)
REMARK    1  A    between atoms: C_4  and  C_5 
REMARK    2  A    between atoms: C_7  and  O_8 
REMARK    3  A    between atoms: C_10  and  O_11 
REMARK    4  A    between atoms: C_16  and  C_17 
REMARK    5  A    between atoms: C_20  and  C_21 
REMARK    6  A    between atoms: C_21  and  N_22 
REMARK    7  A    between atoms: N_22  and  C_23 
REMARK    8  A    between atoms: C_23  and  N_24 
REMARK    9  A    between atoms: N_24  and  C_25 
REMARK   10  A    between atoms: C_27  and  C_28 
REMARK   11  A    between atoms: C_28  and  O_29 
ROOT
HETATM    1  C   UNL     1     -43.682  56.732 -57.482  1.00  0.00     0.067 C 
HETATM    2  C   UNL     1     -42.801  56.526 -58.729  1.00  0.00     0.001 C 
HETATM    3  C   UNL     1     -41.728  57.626 -58.869  1.00  0.00     0.040 C 
HETATM    4  C   UNL     1     -42.348  59.022 -59.038  1.00  0.00     0.206 C 
HETATM    5  N   UNL     1     -43.844  58.874 -58.765  1.00  0.00    -0.065 N 
HETATM    6  H   UNL     1     -44.283  59.806 -58.765  1.00  0.00     0.280 HD
HETATM    7  C   UNL     1     -44.121  58.212 -57.412  1.00  0.00     0.246 C 
HETATM    8  C   UNL     1     -43.736  56.700 -59.956  1.00  0.00     0.033 C 
HETATM    9  C   UNL     1     -44.474  58.046 -59.881  1.00  0.00     0.236 C 
ENDROOT
BRANCH   4  10
HETATM   10  C   UNL     1     -41.690  60.107 -58.154  1.00  0.00     0.155 C 
BRANCH  10  11
HETATM   11  N   UNL     1     -42.343  61.410 -58.281  1.00  0.00    -0.365 N 
HETATM   12  H   UNL     1     -42.821  61.603 -59.157  1.00  0.00     0.161 HD
BRANCH  11  13
HETATM   13  C   UNL     1     -42.838  62.161 -57.250  1.00  0.00     0.172 C 
HETATM   14  S   UNL     1     -42.648  63.812 -57.088  1.00  0.00    -0.041 SA
BRANCH  13  15
HETATM   15  N   UNL     1     -43.514  61.501 -56.264  1.00  0.00    -0.333 N 
HETATM   16  H   UNL     1     -44.368  61.063 -56.607  1.00  0.00     0.168 HD
BRANCH  15  17
HETATM   17  C   UNL     1     -43.184  61.196 -54.927  1.00  0.00     0.035 A 
HETATM   18  C   UNL     1     -42.239  60.240 -54.552  1.00  0.00     0.047 A 
HETATM   19  C   UNL     1     -41.975  59.973 -53.198  1.00  0.00     0.041 A 
HETATM   20  C   UNL     1     -42.688  60.653 -52.207  1.00  0.00     0.018 A 
HETATM   21  C   UNL     1     -43.658  61.585 -52.573  1.00  0.00     0.003 A 
HETATM   22  C   UNL     1     -43.905  61.851 -53.923  1.00  0.00     0.029 A 
BRANCH  19  23
HETATM   23  C   UNL     1     -40.927  58.962 -52.889  1.00  0.00     0.293 C 
HETATM   24  O   UNL     1     -39.755  59.104 -53.209  1.00  0.00    -0.259 OA
BRANCH  23  25
HETATM   25  O   UNL     1     -41.454  57.909 -52.224  1.00  0.00    -0.323 OA
HETATM   26  C   UNL     1     -40.922  57.713 -50.912  1.00  0.00     0.213 C 
ENDBRANCH  23  25
ENDBRANCH  19  23
ENDBRANCH  15  17
ENDBRANCH  13  15
ENDBRANCH  11  13
ENDBRANCH  10  11
ENDBRANCH   4  10
BRANCH   1  27
HETATM   27  C   UNL     1     -43.272  56.202 -56.134  1.00  0.00     0.038 C 
HETATM   28  N   UNL     1     -43.750  56.454 -54.867  1.00  0.00    -0.277 N 
HETATM   29  C   UNL     1     -44.686  57.434 -54.372  1.00  0.00     0.179 C 
HETATM   30  N   UNL     1     -43.246  55.623 -53.941  1.00  0.00    -0.172 NA
HETATM   31  C   UNL     1     -42.279  54.936 -54.554  1.00  0.00     0.089 C 
HETATM   32  C   UNL     1     -42.260  55.271 -55.926  1.00  0.00     0.061 C 
BRANCH  31  33
HETATM   33  C   UNL     1     -41.446  53.970 -53.842  1.00  0.00    -0.003 A 
HETATM   34  C   UNL     1     -41.314  54.045 -52.448  1.00  0.00     0.053 A 
HETATM   35  C   UNL     1     -40.539  53.113 -51.747  1.00  0.00     0.102 A 
HETATM   36  C   UNL     1     -39.866  52.097 -52.454  1.00  0.00     0.101 A 
HETATM   37  C   UNL     1     -39.989  52.026 -53.845  1.00  0.00     0.040 A 
HETATM   38  C   UNL     1     -40.775  52.955 -54.534  1.00  0.00     0.017 A 
BRANCH  35  39
HETATM   39  O   UNL     1     -40.377  53.108 -50.384  1.00  0.00    -0.353 OA
HETATM   40  C   UNL     1     -39.844  54.277 -49.777  1.00  0.00     0.210 C 
ENDBRANCH  35  39
BRANCH  36  41
HETATM   41  O   UNL     1     -39.129  51.221 -51.697  1.00  0.00    -0.353 OA
HETATM   42  C   UNL     1     -39.544  49.864 -51.664  1.00  0.00     0.210 C 
ENDBRANCH  36  41
ENDBRANCH  31  33
ENDBRANCH   1  27
TORSDOF 11
ENDMDL
MODEL 8
REMARK VINA RESULT:      -7.0      2.762      5.168
REMARK  11 active torsions:
REMARK  status: ('A' for Active; 'I' for Inactive)
REMARK    1  A    between atoms: C_4  and  C_5 
REMARK    2  A    between atoms: C_7  and  O_8 
REMARK    3  A    between atoms: C_10  and  O_11 
REMARK    4  A    between atoms: C_16  and  C_17 
REMARK    5  A    between atoms: C_20  and  C_21 
REMARK    6  A    between atoms: C_21  and  N_22 
REMARK    7  A    between atoms: N_22  and  C_23 
REMARK    8  A    between atoms: C_23  and  N_24 
REMARK    9  A    between atoms: N_24  and  C_25 
REMARK   10  A    between atoms: C_27  and  C_28 
REMARK   11  A    between atoms: C_28  and  O_29 
ROOT
HETATM    1  C   UNL     1     -44.856  58.706 -51.848  1.00  0.00     0.067 C 
HETATM    2  C   UNL     1     -45.754  59.634 -52.688  1.00  0.00     0.001 C 
HETATM    3  C   UNL     1     -44.935  60.671 -53.483  1.00  0.00     0.040 C 
HETATM    4  C   UNL     1     -44.136  61.607 -52.563  1.00  0.00     0.206 C 
HETATM    5  N   UNL     1     -44.239  61.029 -51.152  1.00  0.00    -0.065 N 
HETATM    6  H   UNL     1     -43.632  61.568 -50.519  1.00  0.00     0.280 HD
HETATM    7  C   UNL     1     -43.809  59.561 -51.098  1.00  0.00     0.246 C 
HETATM    8  C   UNL     1     -46.596  60.457 -51.677  1.00  0.00     0.033 C 
HETATM    9  C   UNL     1     -45.679  61.162 -50.665  1.00  0.00     0.236 C 
ENDROOT
BRANCH   4  10
HETATM   10  C   UNL     1     -42.670  61.819 -53.009  1.00  0.00     0.155 C 
BRANCH  10  11
HETATM   11  N   UNL     1     -42.305  60.988 -54.156  1.00  0.00    -0.365 N 
HETATM   12  H   UNL     1     -42.021  61.470 -55.004  1.00  0.00     0.161 HD
BRANCH  11  13
HETATM   13  C   UNL     1     -41.800  59.717 -54.096  1.00  0.00     0.172 C 
HETATM   14  S   UNL     1     -40.680  59.180 -52.980  1.00  0.00    -0.041 SA
BRANCH  13  15
HETATM   15  N   UNL     1     -42.229  58.829 -55.042  1.00  0.00    -0.333 N 
HETATM   16  H   UNL     1     -42.746  58.051 -54.636  1.00  0.00     0.168 HD
BRANCH  15  17
HETATM   17  C   UNL     1     -42.216  58.867 -56.453  1.00  0.00     0.035 A 
HETATM   18  C   UNL     1     -42.467  57.762 -57.268  1.00  0.00     0.047 A 
HETATM   19  C   UNL     1     -42.415  57.867 -58.668  1.00  0.00     0.041 A 
HETATM   20  C   UNL     1     -42.079  59.088 -59.257  1.00  0.00     0.018 A 
HETATM   21  C   UNL     1     -41.793  60.188 -58.450  1.00  0.00     0.003 A 
HETATM   22  C   UNL     1     -41.858  60.076 -57.058  1.00  0.00     0.029 A 
BRANCH  19  23
HETATM   23  C   UNL     1     -42.731  56.647 -59.460  1.00  0.00     0.293 C 
HETATM   24  O   UNL     1     -42.472  56.545 -60.651  1.00  0.00    -0.259 OA
BRANCH  23  25
HETATM   25  O   UNL     1     -43.322  55.709 -58.685  1.00  0.00    -0.323 OA
HETATM   26  C   UNL     1     -44.143  54.784 -59.401  1.00  0.00     0.213 C 
ENDBRANCH  23  25
ENDBRANCH  19  23
ENDBRANCH  15  17
ENDBRANCH  13  15
ENDBRANCH  11  13
ENDBRANCH  10  11
ENDBRANCH   4  10
BRANCH   1  27
HETATM   27  C   UNL     1     -44.249  57.459 -52.433  1.00  0.00     0.038 C 
HETATM   28  N   UNL     1     -44.384  56.868 -53.670  1.00  0.00    -0.277 N 
HETATM   29  C   UNL     1     -45.279  57.138 -54.770  1.00  0.00     0.179 C 
HETATM   30  N   UNL     1     -43.513  55.867 -53.871  1.00  0.00    -0.172 NA
HETATM   31  C   UNL     1     -42.921  55.655 -52.693  1.00  0.00     0.089 C 
HETATM   32  C   UNL     1     -43.356  56.627 -51.766  1.00  0.00     0.061 C 
BRANCH  31  33
HETATM   33  C   UNL     1     -41.946  54.584 -52.498  1.00  0.00    -0.003 A 
HETATM   34  C   UNL     1     -41.549  54.220 -51.203  1.00  0.00     0.053 A 
HETATM   35  C   UNL     1     -40.634  53.181 -50.996  1.00  0.00     0.102 A 
HETATM   36  C   UNL     1     -40.091  52.503 -52.105  1.00  0.00     0.101 A 
HETATM   37  C   UNL     1     -40.479  52.870 -53.397  1.00  0.00     0.040 A 
HETATM   38  C   UNL     1     -41.402  53.903 -53.592  1.00  0.00     0.017 A 
BRANCH  35  39
HETATM   39  O   UNL     1     -40.211  52.754 -49.762  1.00  0.00    -0.353 OA
HETATM   40  C   UNL     1     -40.555  53.548 -48.634  1.00  0.00     0.210 C 
ENDBRANCH  35  39
BRANCH  36  41
HETATM   41  O   UNL     1     -39.204  51.495 -51.821  1.00  0.00    -0.353 OA
HETATM   42  C   UNL     1     -39.637  50.157 -52.019  1.00  0.00     0.210 C 
ENDBRANCH  36  41
ENDBRANCH  31  33
ENDBRANCH   1  27
TORSDOF 11
ENDMDL
MODEL 9
REMARK VINA RESULT:      -6.9      3.012      5.743
REMARK  11 active torsions:
REMARK  status: ('A' for Active; 'I' for Inactive)
REMARK    1  A    between atoms: C_4  and  C_5 
REMARK    2  A    between atoms: C_7  and  O_8 
REMARK    3  A    between atoms: C_10  and  O_11 
REMARK    4  A    between atoms: C_16  and  C_17 
REMARK    5  A    between atoms: C_20  and  C_21 
REMARK    6  A    between atoms: C_21  and  N_22 
REMARK    7  A    between atoms: N_22  and  C_23 
REMARK    8  A    between atoms: C_23  and  N_24 
REMARK    9  A    between atoms: N_24  and  C_25 
REMARK   10  A    between atoms: C_27  and  C_28 
REMARK   11  A    between atoms: C_28  and  O_29 
ROOT
HETATM    1  C   UNL     1     -42.949  61.553 -58.772  1.00  0.00     0.067 C 
HETATM    2  C   UNL     1     -44.074  61.029 -59.684  1.00  0.00     0.001 C 
HETATM    3  C   UNL     1     -43.908  59.529 -60.007  1.00  0.00     0.040 C 
HETATM    4  C   UNL     1     -42.604  59.240 -60.766  1.00  0.00     0.206 C 
HETATM    5  N   UNL     1     -41.783  60.528 -60.734  1.00  0.00    -0.065 N 
HETATM    6  H   UNL     1     -40.855  60.350 -61.142  1.00  0.00     0.280 HD
HETATM    7  C   UNL     1     -41.589  61.054 -59.309  1.00  0.00     0.246 C 
HETATM    8  C   UNL     1     -43.912  61.765 -61.041  1.00  0.00     0.033 C 
HETATM    9  C   UNL     1     -42.484  61.587 -61.581  1.00  0.00     0.236 C 
ENDROOT
BRANCH   4  10
HETATM   10  C   UNL     1     -41.820  58.025 -60.218  1.00  0.00     0.155 C 
BRANCH  10  11
HETATM   11  N   UNL     1     -42.561  56.771 -60.347  1.00  0.00    -0.365 N 
HETATM   12  H   UNL     1     -42.358  56.196 -61.160  1.00  0.00     0.161 HD
BRANCH  11  13
HETATM   13  C   UNL     1     -43.076  56.035 -59.314  1.00  0.00     0.172 C 
HETATM   14  S   UNL     1     -44.164  54.779 -59.479  1.00  0.00    -0.041 SA
BRANCH  13  15
HETATM   15  N   UNL     1     -42.687  56.376 -58.050  1.00  0.00    -0.333 N 
HETATM   16  H   UNL     1     -41.673  56.404 -57.951  1.00  0.00     0.168 HD
BRANCH  15  17
HETATM   17  C   UNL     1     -43.409  56.828 -56.925  1.00  0.00     0.035 A 
HETATM   18  C   UNL     1     -43.222  56.346 -55.629  1.00  0.00     0.047 A 
HETATM   19  C   UNL     1     -43.993  56.827 -54.558  1.00  0.00     0.041 A 
HETATM   20  C   UNL     1     -44.984  57.782 -54.794  1.00  0.00     0.018 A 
HETATM   21  C   UNL     1     -45.202  58.245 -56.091  1.00  0.00     0.003 A 
HETATM   22  C   UNL     1     -44.421  57.767 -57.148  1.00  0.00     0.029 A 
BRANCH  19  23
HETATM   23  C   UNL     1     -43.702  56.282 -53.203  1.00  0.00     0.293 C 
HETATM   24  O   UNL     1     -44.071  56.832 -52.175  1.00  0.00    -0.259 OA
BRANCH  23  25
HETATM   25  O   UNL     1     -42.998  55.131 -53.288  1.00  0.00    -0.323 OA
HETATM   26  C   UNL     1     -43.172  54.250 -52.176  1.00  0.00     0.213 C 
ENDBRANCH  23  25
ENDBRANCH  19  23
ENDBRANCH  15  17
ENDBRANCH  13  15
ENDBRANCH  11  13
ENDBRANCH  10  11
ENDBRANCH   4  10
BRANCH   1  27
HETATM   27  C   UNL     1     -43.038  61.442 -57.273  1.00  0.00     0.038 C 
HETATM   28  N   UNL     1     -43.921  61.984 -56.365  1.00  0.00    -0.277 N 
HETATM   29  C   UNL     1     -44.957  62.978 -56.510  1.00  0.00     0.179 C 
HETATM   30  N   UNL     1     -43.778  61.479 -55.129  1.00  0.00    -0.172 NA
HETATM   31  C   UNL     1     -42.669  60.738 -55.163  1.00  0.00     0.089 C 
HETATM   32  C   UNL     1     -42.172  60.692 -56.484  1.00  0.00     0.061 C 
BRANCH  31  33
HETATM   33  C   UNL     1     -42.146  60.073 -53.971  1.00  0.00    -0.003 A 
HETATM   34  C   UNL     1     -42.559  60.486 -52.696  1.00  0.00     0.053 A 
HETATM   35  C   UNL     1     -42.086  59.845 -51.544  1.00  0.00     0.102 A 
HETATM   36  C   UNL     1     -41.169  58.783 -51.667  1.00  0.00     0.101 A 
HETATM   37  C   UNL     1     -40.750  58.376 -52.937  1.00  0.00     0.040 A 
HETATM   38  C   UNL     1     -41.237  59.016 -54.082  1.00  0.00     0.017 A 
BRANCH  35  39
HETATM   39  O   UNL     1     -42.457  60.177 -50.264  1.00  0.00    -0.353 OA
HETATM   40  C   UNL     1     -43.369  61.254 -50.099  1.00  0.00     0.210 C 
ENDBRANCH  35  39
BRANCH  36  41
HETATM   41  O   UNL     1     -40.755  58.205 -50.493  1.00  0.00    -0.353 OA
HETATM   42  C   UNL     1     -41.051  56.830 -50.292  1.00  0.00     0.210 C 
ENDBRANCH  36  41
ENDBRANCH  31  33
ENDBRANCH   1  27
TORSDOF 11
ENDMDL
MODEL 10
REMARK VINA RESULT:      -6.8      3.229      5.652
REMARK  11 active torsions:
REMARK  status: ('A' for Active; 'I' for Inactive)
REMARK    1  A    between atoms: C_4  and  C_5 
REMARK    2  A    between atoms: C_7  and  O_8 
REMARK    3  A    between atoms: C_10  and  O_11 
REMARK    4  A    between atoms: C_16  and  C_17 
REMARK    5  A    between atoms: C_20  and  C_21 
REMARK    6  A    between atoms: C_21  and  N_22 
REMARK    7  A    between atoms: N_22  and  C_23 
REMARK    8  A    between atoms: C_23  and  N_24 
REMARK    9  A    between atoms: N_24  and  C_25 
REMARK   10  A    between atoms: C_27  and  C_28 
REMARK   11  A    between atoms: C_28  and  O_29 
ROOT
HETATM    1  C   UNL     1     -43.267  59.178 -53.828  1.00  0.00     0.067 C 
HETATM    2  C   UNL     1     -44.463  59.472 -54.753  1.00  0.00     0.001 C 
HETATM    3  C   UNL     1     -44.128  59.212 -56.236  1.00  0.00     0.040 C 
HETATM    4  C   UNL     1     -42.995  60.118 -56.742  1.00  0.00     0.206 C 
HETATM    5  N   UNL     1     -42.410  60.816 -55.515  1.00  0.00    -0.065 N 
HETATM    6  H   UNL     1     -41.579  61.355 -55.795  1.00  0.00     0.280 HD
HETATM    7  C   UNL     1     -41.996  59.821 -54.428  1.00  0.00     0.246 C 
HETATM    8  C   UNL     1     -44.729  60.998 -54.649  1.00  0.00     0.033 C 
HETATM    9  C   UNL     1     -43.446  61.787 -54.955  1.00  0.00     0.236 C 
ENDROOT
BRANCH   4  10
HETATM   10  C   UNL     1     -41.920  59.371 -57.565  1.00  0.00     0.155 C 
BRANCH  10  11
HETATM   11  N   UNL     1     -42.101  59.533 -59.007  1.00  0.00    -0.365 N 
HETATM   12  H   UNL     1     -42.281  58.691 -59.547  1.00  0.00     0.161 HD
BRANCH  11  13
HETATM   13  C   UNL     1     -42.570  60.655 -59.635  1.00  0.00     0.172 C 
HETATM   14  S   UNL     1     -41.722  62.083 -59.811  1.00  0.00    -0.041 SA
BRANCH  13  15
HETATM   15  N   UNL     1     -43.843  60.607 -60.130  1.00  0.00    -0.333 N 
HETATM   16  H   UNL     1     -43.932  61.102 -61.015  1.00  0.00     0.168 HD
BRANCH  15  17
HETATM   17  C   UNL     1     -44.991  59.894 -59.725  1.00  0.00     0.035 A 
HETATM   18  C   UNL     1     -45.270  58.580 -60.102  1.00  0.00     0.047 A 
HETATM   19  C   UNL     1     -46.446  57.937 -59.679  1.00  0.00     0.041 A 
HETATM   20  C   UNL     1     -47.367  58.631 -58.892  1.00  0.00     0.018 A 
HETATM   21  C   UNL     1     -47.114  59.956 -58.539  1.00  0.00     0.003 A 
HETATM   22  C   UNL     1     -45.935  60.582 -58.957  1.00  0.00     0.029 A 
BRANCH  19  23
HETATM   23  C   UNL     1     -46.645  56.524 -60.100  1.00  0.00     0.293 C 
HETATM   24  O   UNL     1     -47.660  56.137 -60.663  1.00  0.00    -0.259 OA
BRANCH  23  25
HETATM   25  O   UNL     1     -45.570  55.768 -59.778  1.00  0.00    -0.323 OA
HETATM   26  C   UNL     1     -44.976  55.086 -60.884  1.00  0.00     0.213 C 
ENDBRANCH  23  25
ENDBRANCH  19  23
ENDBRANCH  15  17
ENDBRANCH  13  15
ENDBRANCH  11  13
ENDBRANCH  10  11
ENDBRANCH   4  10
BRANCH   1  27
HETATM   27  C   UNL     1     -43.002  57.793 -53.302  1.00  0.00     0.038 C 
HETATM   28  N   UNL     1     -43.628  57.048 -52.327  1.00  0.00    -0.277 N 
HETATM   29  C   UNL     1     -44.638  57.395 -51.355  1.00  0.00     0.179 C 
HETATM   30  N   UNL     1     -43.214  55.772 -52.294  1.00  0.00    -0.172 NA
HETATM   31  C   UNL     1     -42.168  55.706 -53.120  1.00  0.00     0.089 C 
HETATM   32  C   UNL     1     -41.999  56.949 -53.767  1.00  0.00     0.061 C 
BRANCH  31  33
HETATM   33  C   UNL     1     -41.400  54.475 -53.299  1.00  0.00    -0.003 A 
HETATM   34  C   UNL     1     -40.824  53.837 -52.190  1.00  0.00     0.053 A 
HETATM   35  C   UNL     1     -40.104  52.645 -52.340  1.00  0.00     0.102 A 
HETATM   36  C   UNL     1     -39.941  52.089 -53.624  1.00  0.00     0.101 A 
HETATM   37  C   UNL     1     -40.506  52.729 -54.731  1.00  0.00     0.040 A 
HETATM   38  C   UNL     1     -41.233  53.913 -54.569  1.00  0.00     0.017 A 
BRANCH  35  39
HETATM   39  O   UNL     1     -39.528  51.952 -51.305  1.00  0.00    -0.353 OA
HETATM   40  C   UNL     1     -40.391  51.393 -50.323  1.00  0.00     0.210 C 
ENDBRANCH  35  39
BRANCH  36  41
HETATM   41  O   UNL     1     -39.226  50.919 -53.688  1.00  0.00    -0.353 OA
HETATM   42  C   UNL     1     -39.786  49.841 -54.424  1.00  0.00     0.210 C 
ENDBRANCH  36  41
ENDBRANCH  31  33
ENDBRANCH   1  27
TORSDOF 11
ENDMDL
