MODEL 1
REMARK VINA RESULT:      -9.1      0.000      0.000
REMARK  5 active torsions:
REMARK  status: ('A' for Active; 'I' for Inactive)
REMARK    1  A    between atoms: C_11  and  N_12 
REMARK    2  A    between atoms: N_12  and  N_13 
REMARK       I    between atoms: N_13  and  C_14 
REMARK    3  A    between atoms: C_14  and  C_15 
REMARK    4  A    between atoms: C_15  and  C_16 
REMARK    5  A    between atoms: N_23  and  C_24 
ROOT
HETATM    1  C   UNL     1     -43.646  61.013 -60.602  1.00  0.00     0.046 C 
HETATM    2  C   UNL     1     -43.168  59.643 -60.101  1.00  0.00     0.058 C 
HETATM    3  C   UNL     1     -41.744  59.405 -60.630  1.00  0.00     0.046 C 
HETATM    4  O   UNL     1     -44.096  58.678 -60.646  1.00  0.00    -0.376 OA
HETATM    5  C   UNL     1     -43.830  57.298 -60.326  1.00  0.00     0.215 C 
HETATM    6  C   UNL     1     -43.518  57.172 -58.872  1.00  0.00     0.016 A 
HETATM    7  C   UNL     1     -43.217  58.223 -58.028  1.00  0.00    -0.021 A 
HETATM    8  C   UNL     1     -42.961  57.767 -56.697  1.00  0.00     0.077 A 
HETATM    9  C   UNL     1     -43.043  56.401 -56.593  1.00  0.00     0.133 A 
HETATM   10  N   UNL     1     -42.874  55.663 -55.474  1.00  0.00    -0.054 NA
HETATM   11  C   UNL     1     -42.597  56.331 -54.376  1.00  0.00     0.730 A 
HETATM   12  N   UNL     1     -42.417  57.736 -54.357  1.00  0.00    -0.107 N 
HETATM   13  C   UNL     1     -42.632  58.526 -55.506  1.00  0.00     0.280 A 
HETATM   14  O   UNL     1     -42.529  59.749 -55.559  1.00  0.00    -0.266 OA
HETATM   15  S   UNL     1     -43.444  55.667 -58.083  1.00  0.00    -0.071 SA
HETATM   16  C   UNL     1     -43.223  59.628 -58.548  1.00  0.00     0.078 C 
ENDROOT
BRANCH  11  17
HETATM   17  N   UNL     1     -42.556  55.607 -53.195  1.00  0.00    -0.127 N 
HETATM   18  H   UNL     1     -43.067  55.915 -52.368  1.00  0.00     0.206 HD
BRANCH  17  19
HETATM   19  N   UNL     1     -41.355  54.939 -52.903  1.00  0.00    -0.255 N 
HETATM   20  C   UNL     1     -41.412  53.993 -51.898  1.00  0.00     0.240 C 
HETATM   21  O   UNL     1     -42.475  53.661 -51.372  1.00  0.00    -0.272 OA
HETATM   22  H   UNL     1     -40.509  55.466 -53.121  1.00  0.00     0.190 HD
BRANCH  20  23
HETATM   23  C   UNL     1     -40.071  53.382 -51.534  1.00  0.00     0.143 C 
BRANCH  23  24
HETATM   24  C   UNL     1     -39.850  51.995 -52.089  1.00  0.00    -0.049 A 
HETATM   25  C   UNL     1     -39.711  50.889 -51.238  1.00  0.00     0.007 A 
HETATM   26  C   UNL     1     -39.553  49.603 -51.760  1.00  0.00     0.001 A 
HETATM   27  C   UNL     1     -39.546  49.405 -53.138  1.00  0.00     0.000 A 
HETATM   28  C   UNL     1     -39.695  50.494 -53.995  1.00  0.00     0.001 A 
HETATM   29  C   UNL     1     -39.847  51.781 -53.475  1.00  0.00     0.007 A 
ENDBRANCH  23  24
ENDBRANCH  20  23
ENDBRANCH  17  19
ENDBRANCH  11  17
BRANCH  12  30
HETATM   30  C   UNL     1     -41.953  58.406 -53.176  1.00  0.00     0.060 A 
HETATM   31  C   UNL     1     -40.582  58.518 -52.905  1.00  0.00     0.030 A 
HETATM   32  C   UNL     1     -40.134  59.176 -51.758  1.00  0.00     0.002 A 
HETATM   33  C   UNL     1     -41.051  59.719 -50.861  1.00  0.00     0.000 A 
HETATM   34  C   UNL     1     -42.417  59.597 -51.104  1.00  0.00     0.002 A 
HETATM   35  C   UNL     1     -42.866  58.938 -52.251  1.00  0.00     0.030 A 
ENDBRANCH  12  30
TORSDOF 5
ENDMDL
MODEL 2
REMARK VINA RESULT:      -9.0      1.456      2.143
REMARK  5 active torsions:
REMARK  status: ('A' for Active; 'I' for Inactive)
REMARK    1  A    between atoms: C_11  and  N_12 
REMARK    2  A    between atoms: N_12  and  N_13 
REMARK       I    between atoms: N_13  and  C_14 
REMARK    3  A    between atoms: C_14  and  C_15 
REMARK    4  A    between atoms: C_15  and  C_16 
REMARK    5  A    between atoms: N_23  and  C_24 
ROOT
HETATM    1  C   UNL     1     -43.742  63.089 -59.608  1.00  0.00     0.046 C 
HETATM    2  C   UNL     1     -43.122  61.688 -59.709  1.00  0.00     0.058 C 
HETATM    3  C   UNL     1     -41.615  61.845 -59.970  1.00  0.00     0.046 C 
HETATM    4  O   UNL     1     -43.781  61.045 -60.824  1.00  0.00    -0.376 OA
HETATM    5  C   UNL     1     -43.338  59.709 -61.131  1.00  0.00     0.215 C 
HETATM    6  C   UNL     1     -43.234  58.913 -59.872  1.00  0.00     0.016 A 
HETATM    7  C   UNL     1     -43.246  59.439 -58.595  1.00  0.00    -0.021 A 
HETATM    8  C   UNL     1     -43.122  58.413 -57.607  1.00  0.00     0.077 A 
HETATM    9  C   UNL     1     -42.987  57.168 -58.168  1.00  0.00     0.133 A 
HETATM   10  N   UNL     1     -42.868  55.993 -57.511  1.00  0.00    -0.054 NA
HETATM   11  C   UNL     1     -42.877  56.060 -56.198  1.00  0.00     0.730 A 
HETATM   12  N   UNL     1     -42.941  57.287 -55.492  1.00  0.00    -0.107 N 
HETATM   13  C   UNL     1     -43.110  58.517 -56.161  1.00  0.00     0.280 A 
HETATM   14  O   UNL     1     -43.207  59.615 -55.617  1.00  0.00    -0.266 OA
HETATM   15  S   UNL     1     -43.027  57.225 -59.875  1.00  0.00    -0.071 SA
HETATM   16  C   UNL     1     -43.409  60.914 -58.392  1.00  0.00     0.078 C 
ENDROOT
BRANCH  11  17
HETATM   17  N   UNL     1     -42.895  54.857 -55.509  1.00  0.00    -0.127 N 
HETATM   18  H   UNL     1     -43.691  54.591 -54.931  1.00  0.00     0.206 HD
BRANCH  17  19
HETATM   19  N   UNL     1     -41.662  54.386 -55.028  1.00  0.00    -0.255 N 
HETATM   20  C   UNL     1     -41.634  53.994 -53.703  1.00  0.00     0.240 C 
HETATM   21  O   UNL     1     -42.655  53.941 -53.015  1.00  0.00    -0.272 OA
HETATM   22  H   UNL     1     -40.844  54.753 -55.514  1.00  0.00     0.190 HD
BRANCH  20  23
HETATM   23  C   UNL     1     -40.260  53.605 -53.192  1.00  0.00     0.143 C 
BRANCH  23  24
HETATM   24  C   UNL     1     -40.059  52.117 -53.020  1.00  0.00    -0.049 A 
HETATM   25  C   UNL     1     -40.117  51.248 -54.120  1.00  0.00     0.007 A 
HETATM   26  C   UNL     1     -39.884  49.881 -53.960  1.00  0.00     0.001 A 
HETATM   27  C   UNL     1     -39.575  49.367 -52.703  1.00  0.00     0.000 A 
HETATM   28  C   UNL     1     -39.502  50.221 -51.605  1.00  0.00     0.001 A 
HETATM   29  C   UNL     1     -39.741  51.589 -51.761  1.00  0.00     0.007 A 
ENDBRANCH  23  24
ENDBRANCH  20  23
ENDBRANCH  17  19
ENDBRANCH  11  17
BRANCH  12  30
HETATM   30  C   UNL     1     -42.782  57.329 -54.067  1.00  0.00     0.060 A 
HETATM   31  C   UNL     1     -43.887  57.181 -53.216  1.00  0.00     0.030 A 
HETATM   32  C   UNL     1     -43.727  57.216 -51.829  1.00  0.00     0.002 A 
HETATM   33  C   UNL     1     -42.465  57.414 -51.276  1.00  0.00     0.000 A 
HETATM   34  C   UNL     1     -41.361  57.586 -52.107  1.00  0.00     0.002 A 
HETATM   35  C   UNL     1     -41.519  57.551 -53.494  1.00  0.00     0.030 A 
ENDBRANCH  12  30
TORSDOF 5
ENDMDL
MODEL 3
REMARK VINA RESULT:      -8.9      2.307      3.285
REMARK  5 active torsions:
REMARK  status: ('A' for Active; 'I' for Inactive)
REMARK    1  A    between atoms: C_11  and  N_12 
REMARK    2  A    between atoms: N_12  and  N_13 
REMARK       I    between atoms: N_13  and  C_14 
REMARK    3  A    between atoms: C_14  and  C_15 
REMARK    4  A    between atoms: C_15  and  C_16 
REMARK    5  A    between atoms: N_23  and  C_24 
ROOT
HETATM    1  C   UNL     1     -41.511  64.701 -58.975  1.00  0.00     0.046 C 
HETATM    2  C   UNL     1     -41.187  63.238 -59.306  1.00  0.00     0.058 C 
HETATM    3  C   UNL     1     -39.661  63.099 -59.439  1.00  0.00     0.046 C 
HETATM    4  O   UNL     1     -41.848  62.962 -60.562  1.00  0.00    -0.376 OA
HETATM    5  C   UNL     1     -41.662  61.636 -61.093  1.00  0.00     0.215 C 
HETATM    6  C   UNL     1     -41.854  60.630 -60.006  1.00  0.00     0.016 A 
HETATM    7  C   UNL     1     -41.886  60.914 -58.656  1.00  0.00    -0.021 A 
HETATM    8  C   UNL     1     -42.078  59.729 -57.878  1.00  0.00     0.077 A 
HETATM    9  C   UNL     1     -42.148  58.602 -58.659  1.00  0.00     0.133 A 
HETATM   10  N   UNL     1     -42.343  57.334 -58.234  1.00  0.00    -0.054 NA
HETATM   11  C   UNL     1     -42.471  57.171 -56.936  1.00  0.00     0.730 A 
HETATM   12  N   UNL     1     -42.351  58.239 -56.012  1.00  0.00    -0.107 N 
HETATM   13  C   UNL     1     -42.192  59.574 -56.440  1.00  0.00     0.280 A 
HETATM   14  O   UNL     1     -42.115  60.554 -55.703  1.00  0.00    -0.266 OA
HETATM   15  S   UNL     1     -42.002  58.965 -60.322  1.00  0.00    -0.071 SA
HETATM   16  C   UNL     1     -41.760  62.329 -58.183  1.00  0.00     0.078 C 
ENDROOT
BRANCH  11  17
HETATM   17  N   UNL     1     -42.807  55.901 -56.494  1.00  0.00    -0.127 N 
HETATM   18  H   UNL     1     -43.630  55.745 -55.913  1.00  0.00     0.206 HD
BRANCH  17  19
HETATM   19  N   UNL     1     -41.745  55.025 -56.221  1.00  0.00    -0.255 N 
HETATM   20  C   UNL     1     -41.866  54.257 -55.077  1.00  0.00     0.240 C 
HETATM   21  O   UNL     1     -42.897  54.247 -54.403  1.00  0.00    -0.272 OA
HETATM   22  H   UNL     1     -40.843  55.313 -56.601  1.00  0.00     0.190 HD
BRANCH  20  23
HETATM   23  C   UNL     1     -40.646  53.414 -54.756  1.00  0.00     0.143 C 
BRANCH  23  24
HETATM   24  C   UNL     1     -40.473  53.108 -53.286  1.00  0.00    -0.049 A 
HETATM   25  C   UNL     1     -39.929  51.887 -52.862  1.00  0.00     0.007 A 
HETATM   26  C   UNL     1     -39.729  51.631 -51.504  1.00  0.00     0.001 A 
HETATM   27  C   UNL     1     -40.056  52.596 -50.555  1.00  0.00     0.000 A 
HETATM   28  C   UNL     1     -40.586  53.818 -50.964  1.00  0.00     0.001 A 
HETATM   29  C   UNL     1     -40.793  54.074 -52.322  1.00  0.00     0.007 A 
ENDBRANCH  23  24
ENDBRANCH  20  23
ENDBRANCH  17  19
ENDBRANCH  11  17
BRANCH  12  30
HETATM   30  C   UNL     1     -42.332  57.995 -54.599  1.00  0.00     0.060 A 
HETATM   31  C   UNL     1     -43.526  57.917 -53.868  1.00  0.00     0.030 A 
HETATM   32  C   UNL     1     -43.504  57.673 -52.493  1.00  0.00     0.002 A 
HETATM   33  C   UNL     1     -42.290  57.519 -51.829  1.00  0.00     0.000 A 
HETATM   34  C   UNL     1     -41.095  57.617 -52.537  1.00  0.00     0.002 A 
HETATM   35  C   UNL     1     -41.114  57.861 -53.912  1.00  0.00     0.030 A 
ENDBRANCH  12  30
TORSDOF 5
ENDMDL
MODEL 4
REMARK VINA RESULT:      -8.9      1.733      2.547
REMARK  5 active torsions:
REMARK  status: ('A' for Active; 'I' for Inactive)
REMARK    1  A    between atoms: C_11  and  N_12 
REMARK    2  A    between atoms: N_12  and  N_13 
REMARK       I    between atoms: N_13  and  C_14 
REMARK    3  A    between atoms: C_14  and  C_15 
REMARK    4  A    between atoms: C_15  and  C_16 
REMARK    5  A    between atoms: N_23  and  C_24 
ROOT
HETATM    1  C   UNL     1     -44.351  58.895 -59.748  1.00  0.00     0.046 C 
HETATM    2  C   UNL     1     -43.545  58.004 -58.794  1.00  0.00     0.058 C 
HETATM    3  C   UNL     1     -42.049  58.270 -59.033  1.00  0.00     0.046 C 
HETATM    4  O   UNL     1     -43.894  56.643 -59.134  1.00  0.00    -0.376 OA
HETATM    5  C   UNL     1     -43.229  55.614 -58.376  1.00  0.00     0.215 C 
HETATM    6  C   UNL     1     -43.258  55.963 -56.925  1.00  0.00     0.016 A 
HETATM    7  C   UNL     1     -43.576  57.205 -56.411  1.00  0.00    -0.021 A 
HETATM    8  C   UNL     1     -43.504  57.213 -54.983  1.00  0.00     0.077 A 
HETATM    9  C   UNL     1     -43.104  56.001 -54.478  1.00  0.00     0.133 A 
HETATM   10  N   UNL     1     -42.956  55.676 -53.174  1.00  0.00    -0.054 NA
HETATM   11  C   UNL     1     -43.218  56.629 -52.307  1.00  0.00     0.730 A 
HETATM   12  N   UNL     1     -43.573  57.945 -52.695  1.00  0.00    -0.107 N 
HETATM   13  C   UNL     1     -43.775  58.288 -54.048  1.00  0.00     0.280 A 
HETATM   14  O   UNL     1     -44.115  59.396 -54.459  1.00  0.00    -0.266 OA
HETATM   15  S   UNL     1     -42.834  54.849 -55.711  1.00  0.00    -0.071 SA
HETATM   16  C   UNL     1     -43.967  58.320 -57.332  1.00  0.00     0.078 C 
ENDROOT
BRANCH  11  17
HETATM   17  N   UNL     1     -43.205  56.277 -50.967  1.00  0.00    -0.127 N 
HETATM   18  H   UNL     1     -43.090  56.980 -50.237  1.00  0.00     0.206 HD
BRANCH  17  19
HETATM   19  N   UNL     1     -42.645  55.030 -50.645  1.00  0.00    -0.255 N 
HETATM   20  C   UNL     1     -41.296  55.026 -50.342  1.00  0.00     0.240 C 
HETATM   21  O   UNL     1     -40.648  56.068 -50.235  1.00  0.00    -0.272 OA
HETATM   22  H   UNL     1     -43.122  54.227 -51.057  1.00  0.00     0.190 HD
BRANCH  20  23
HETATM   23  C   UNL     1     -40.706  53.647 -50.117  1.00  0.00     0.143 C 
BRANCH  23  24
HETATM   24  C   UNL     1     -40.393  52.891 -51.387  1.00  0.00    -0.049 A 
HETATM   25  C   UNL     1     -40.569  53.487 -52.645  1.00  0.00     0.007 A 
HETATM   26  C   UNL     1     -40.233  52.798 -53.812  1.00  0.00     0.001 A 
HETATM   27  C   UNL     1     -39.703  51.513 -53.737  1.00  0.00     0.000 A 
HETATM   28  C   UNL     1     -39.512  50.914 -52.494  1.00  0.00     0.001 A 
HETATM   29  C   UNL     1     -39.853  51.599 -51.325  1.00  0.00     0.007 A 
ENDBRANCH  23  24
ENDBRANCH  20  23
ENDBRANCH  17  19
ENDBRANCH  11  17
BRANCH  12  30
HETATM   30  C   UNL     1     -43.688  58.996 -51.726  1.00  0.00     0.060 A 
HETATM   31  C   UNL     1     -44.928  59.310 -51.152  1.00  0.00     0.030 A 
HETATM   32  C   UNL     1     -45.036  60.330 -50.204  1.00  0.00     0.002 A 
HETATM   33  C   UNL     1     -43.909  61.057 -49.828  1.00  0.00     0.000 A 
HETATM   34  C   UNL     1     -42.675  60.773 -50.406  1.00  0.00     0.002 A 
HETATM   35  C   UNL     1     -42.565  59.754 -51.355  1.00  0.00     0.030 A 
ENDBRANCH  12  30
TORSDOF 5
ENDMDL
MODEL 5
REMARK VINA RESULT:      -8.7      2.398      5.666
REMARK  5 active torsions:
REMARK  status: ('A' for Active; 'I' for Inactive)
REMARK    1  A    between atoms: C_11  and  N_12 
REMARK    2  A    between atoms: N_12  and  N_13 
REMARK       I    between atoms: N_13  and  C_14 
REMARK    3  A    between atoms: C_14  and  C_15 
REMARK    4  A    between atoms: C_15  and  C_16 
REMARK    5  A    between atoms: N_23  and  C_24 
ROOT
HETATM    1  C   UNL     1     -43.190  64.086 -52.469  1.00  0.00     0.046 C 
HETATM    2  C   UNL     1     -43.687  62.645 -52.288  1.00  0.00     0.058 C 
HETATM    3  C   UNL     1     -45.215  62.678 -52.120  1.00  0.00     0.046 C 
HETATM    4  O   UNL     1     -43.040  62.152 -51.092  1.00  0.00    -0.376 OA
HETATM    5  C   UNL     1     -43.379  60.807 -50.702  1.00  0.00     0.215 C 
HETATM    6  C   UNL     1     -43.336  59.913 -51.897  1.00  0.00     0.016 A 
HETATM    7  C   UNL     1     -43.295  60.340 -53.209  1.00  0.00    -0.021 A 
HETATM    8  C   UNL     1     -43.268  59.235 -54.117  1.00  0.00     0.077 A 
HETATM    9  C   UNL     1     -43.323  58.028 -53.466  1.00  0.00     0.133 A 
HETATM   10  N   UNL     1     -43.296  56.801 -54.031  1.00  0.00    -0.054 NA
HETATM   11  C   UNL     1     -43.215  56.770 -55.343  1.00  0.00     0.730 A 
HETATM   12  N   UNL     1     -43.220  57.940 -56.141  1.00  0.00    -0.107 N 
HETATM   13  C   UNL     1     -43.203  59.228 -55.566  1.00  0.00     0.280 A 
HETATM   14  O   UNL     1     -43.173  60.286 -56.190  1.00  0.00    -0.266 OA
HETATM   15  S   UNL     1     -43.389  58.217 -51.769  1.00  0.00    -0.071 SA
HETATM   16  C   UNL     1     -43.254  61.804 -53.522  1.00  0.00     0.078 C 
ENDROOT
BRANCH  11  17
HETATM   17  N   UNL     1     -43.048  55.525 -55.931  1.00  0.00    -0.127 N 
HETATM   18  H   UNL     1     -43.801  54.838 -55.937  1.00  0.00     0.206 HD
BRANCH  17  19
HETATM   19  N   UNL     1     -41.765  54.959 -55.860  1.00  0.00    -0.255 N 
HETATM   20  C   UNL     1     -41.596  53.944 -54.937  1.00  0.00     0.240 C 
HETATM   21  O   UNL     1     -42.541  53.475 -54.302  1.00  0.00    -0.272 OA
HETATM   22  H   UNL     1     -41.007  55.579 -56.146  1.00  0.00     0.190 HD
BRANCH  20  23
HETATM   23  C   UNL     1     -40.170  53.442 -54.809  1.00  0.00     0.143 C 
BRANCH  23  24
HETATM   24  C   UNL     1     -40.020  52.208 -53.952  1.00  0.00    -0.049 A 
HETATM   25  C   UNL     1     -40.074  50.925 -54.517  1.00  0.00     0.007 A 
HETATM   26  C   UNL     1     -39.888  49.790 -53.725  1.00  0.00     0.001 A 
HETATM   27  C   UNL     1     -39.632  49.923 -52.363  1.00  0.00     0.000 A 
HETATM   28  C   UNL     1     -39.564  51.192 -51.791  1.00  0.00     0.001 A 
HETATM   29  C   UNL     1     -39.756  52.328 -52.580  1.00  0.00     0.007 A 
ENDBRANCH  23  24
ENDBRANCH  20  23
ENDBRANCH  17  19
ENDBRANCH  11  17
BRANCH  12  30
HETATM   30  C   UNL     1     -43.297  57.860 -57.571  1.00  0.00     0.060 A 
HETATM   31  C   UNL     1     -42.141  57.948 -58.359  1.00  0.00     0.030 A 
HETATM   32  C   UNL     1     -42.219  57.863 -59.751  1.00  0.00     0.002 A 
HETATM   33  C   UNL     1     -43.454  57.703 -60.373  1.00  0.00     0.000 A 
HETATM   34  C   UNL     1     -44.615  57.637 -59.606  1.00  0.00     0.002 A 
HETATM   35  C   UNL     1     -44.539  57.723 -58.214  1.00  0.00     0.030 A 
ENDBRANCH  12  30
TORSDOF 5
ENDMDL
MODEL 6
REMARK VINA RESULT:      -8.6      3.149      8.529
REMARK  5 active torsions:
REMARK  status: ('A' for Active; 'I' for Inactive)
REMARK    1  A    between atoms: C_11  and  N_12 
REMARK    2  A    between atoms: N_12  and  N_13 
REMARK       I    between atoms: N_13  and  C_14 
REMARK    3  A    between atoms: C_14  and  C_15 
REMARK    4  A    between atoms: C_15  and  C_16 
REMARK    5  A    between atoms: N_23  and  C_24 
ROOT
HETATM    1  C   UNL     1     -40.229  59.800 -50.588  1.00  0.00     0.046 C 
HETATM    2  C   UNL     1     -41.151  58.707 -51.145  1.00  0.00     0.058 C 
HETATM    3  C   UNL     1     -42.570  58.952 -50.606  1.00  0.00     0.046 C 
HETATM    4  O   UNL     1     -40.616  57.455 -50.658  1.00  0.00    -0.376 OA
HETATM    5  C   UNL     1     -41.344  56.270 -51.036  1.00  0.00     0.215 C 
HETATM    6  C   UNL     1     -41.677  56.330 -52.490  1.00  0.00     0.016 A 
HETATM    7  C   UNL     1     -41.593  57.459 -53.280  1.00  0.00    -0.021 A 
HETATM    8  C   UNL     1     -41.988  57.184 -54.627  1.00  0.00     0.077 A 
HETATM    9  C   UNL     1     -42.386  55.881 -54.794  1.00  0.00     0.133 A 
HETATM   10  N   UNL     1     -42.797  55.301 -55.944  1.00  0.00    -0.054 NA
HETATM   11  C   UNL     1     -42.823  56.076 -57.005  1.00  0.00     0.730 A 
HETATM   12  N   UNL     1     -42.505  57.456 -56.958  1.00  0.00    -0.107 N 
HETATM   13  C   UNL     1     -42.031  58.065 -55.777  1.00  0.00     0.280 A 
HETATM   14  O   UNL     1     -41.705  59.245 -55.667  1.00  0.00    -0.266 OA
HETATM   15  S   UNL     1     -42.267  54.983 -53.345  1.00  0.00    -0.071 SA
HETATM   16  C   UNL     1     -41.102  58.748 -52.697  1.00  0.00     0.078 C 
ENDROOT
BRANCH  11  17
HETATM   17  N   UNL     1     -43.110  55.468 -58.218  1.00  0.00    -0.127 N 
HETATM   18  H   UNL     1     -42.441  55.481 -58.987  1.00  0.00     0.206 HD
BRANCH  17  19
HETATM   19  N   UNL     1     -44.452  55.487 -58.633  1.00  0.00    -0.255 N 
HETATM   20  C   UNL     1     -44.685  55.924 -59.923  1.00  0.00     0.240 C 
HETATM   21  O   UNL     1     -43.767  56.166 -60.707  1.00  0.00    -0.272 OA
HETATM   22  H   UNL     1     -45.132  55.595 -57.880  1.00  0.00     0.190 HD
BRANCH  20  23
HETATM   23  C   UNL     1     -46.153  56.042 -60.290  1.00  0.00     0.143 C 
BRANCH  23  24
HETATM   24  C   UNL     1     -46.795  57.344 -59.872  1.00  0.00    -0.049 A 
HETATM   25  C   UNL     1     -46.988  57.652 -58.518  1.00  0.00     0.007 A 
HETATM   26  C   UNL     1     -47.540  58.877 -58.138  1.00  0.00     0.001 A 
HETATM   27  C   UNL     1     -47.893  59.814 -59.105  1.00  0.00     0.000 A 
HETATM   28  C   UNL     1     -47.695  59.526 -60.454  1.00  0.00     0.001 A 
HETATM   29  C   UNL     1     -47.149  58.298 -60.836  1.00  0.00     0.007 A 
ENDBRANCH  23  24
ENDBRANCH  20  23
ENDBRANCH  17  19
ENDBRANCH  11  17
BRANCH  12  30
HETATM   30  C   UNL     1     -42.705  58.301 -58.100  1.00  0.00     0.060 A 
HETATM   31  C   UNL     1     -41.735  58.385 -59.109  1.00  0.00     0.030 A 
HETATM   32  C   UNL     1     -41.935  59.204 -60.222  1.00  0.00     0.002 A 
HETATM   33  C   UNL     1     -43.100  59.958 -60.335  1.00  0.00     0.000 A 
HETATM   34  C   UNL     1     -44.063  59.903 -59.330  1.00  0.00     0.002 A 
HETATM   35  C   UNL     1     -43.864  59.085 -58.216  1.00  0.00     0.030 A 
ENDBRANCH  12  30
TORSDOF 5
ENDMDL
MODEL 7
REMARK VINA RESULT:      -8.6      3.605      5.081
REMARK  5 active torsions:
REMARK  status: ('A' for Active; 'I' for Inactive)
REMARK    1  A    between atoms: C_11  and  N_12 
REMARK    2  A    between atoms: N_12  and  N_13 
REMARK       I    between atoms: N_13  and  C_14 
REMARK    3  A    between atoms: C_14  and  C_15 
REMARK    4  A    between atoms: C_15  and  C_16 
REMARK    5  A    between atoms: N_23  and  C_24 
ROOT
HETATM    1  C   UNL     1     -44.986  64.294 -50.798  1.00  0.00     0.046 C 
HETATM    2  C   UNL     1     -44.481  63.528 -52.028  1.00  0.00     0.058 C 
HETATM    3  C   UNL     1     -43.091  64.072 -52.398  1.00  0.00     0.046 C 
HETATM    4  O   UNL     1     -45.441  63.790 -53.078  1.00  0.00    -0.376 OA
HETATM    5  C   UNL     1     -45.157  63.188 -54.355  1.00  0.00     0.215 C 
HETATM    6  C   UNL     1     -44.761  61.762 -54.159  1.00  0.00     0.016 A 
HETATM    7  C   UNL     1     -44.409  61.192 -52.952  1.00  0.00    -0.021 A 
HETATM    8  C   UNL     1     -44.075  59.810 -53.104  1.00  0.00     0.077 A 
HETATM    9  C   UNL     1     -44.152  59.400 -54.411  1.00  0.00     0.133 A 
HETATM   10  N   UNL     1     -43.918  58.156 -54.884  1.00  0.00    -0.054 NA
HETATM   11  C   UNL     1     -43.576  57.252 -53.993  1.00  0.00     0.730 A 
HETATM   12  N   UNL     1     -43.393  57.557 -52.622  1.00  0.00    -0.107 N 
HETATM   13  C   UNL     1     -43.676  58.838 -52.104  1.00  0.00     0.280 A 
HETATM   14  O   UNL     1     -43.574  59.168 -50.925  1.00  0.00    -0.266 OA
HETATM   15  S   UNL     1     -44.641  60.663 -55.453  1.00  0.00    -0.071 SA
HETATM   16  C   UNL     1     -44.444  62.010 -51.697  1.00  0.00     0.078 C 
ENDROOT
BRANCH  11  17
HETATM   17  N   UNL     1     -43.467  55.944 -54.437  1.00  0.00    -0.127 N 
HETATM   18  H   UNL     1     -44.144  55.233 -54.162  1.00  0.00     0.206 HD
BRANCH  17  19
HETATM   19  N   UNL     1     -42.166  55.445 -54.622  1.00  0.00    -0.255 N 
HETATM   20  C   UNL     1     -41.910  54.197 -54.086  1.00  0.00     0.240 C 
HETATM   21  O   UNL     1     -42.798  53.505 -53.585  1.00  0.00    -0.272 OA
HETATM   22  H   UNL     1     -41.446  56.159 -54.733  1.00  0.00     0.190 HD
BRANCH  20  23
HETATM   23  C   UNL     1     -40.465  53.748 -54.204  1.00  0.00     0.143 C 
BRANCH  23  24
HETATM   24  C   UNL     1     -40.181  52.401 -53.583  1.00  0.00    -0.049 A 
HETATM   25  C   UNL     1     -40.133  51.239 -54.368  1.00  0.00     0.007 A 
HETATM   26  C   UNL     1     -39.823  50.005 -53.794  1.00  0.00     0.001 A 
HETATM   27  C   UNL     1     -39.544  49.917 -52.433  1.00  0.00     0.000 A 
HETATM   28  C   UNL     1     -39.577  51.065 -51.644  1.00  0.00     0.001 A 
HETATM   29  C   UNL     1     -39.892  52.300 -52.215  1.00  0.00     0.007 A 
ENDBRANCH  23  24
ENDBRANCH  20  23
ENDBRANCH  17  19
ENDBRANCH  11  17
BRANCH  12  30
HETATM   30  C   UNL     1     -42.860  56.583 -51.712  1.00  0.00     0.060 A 
HETATM   31  C   UNL     1     -43.700  55.652 -51.085  1.00  0.00     0.030 A 
HETATM   32  C   UNL     1     -43.177  54.702 -50.205  1.00  0.00     0.002 A 
HETATM   33  C   UNL     1     -41.812  54.679 -49.931  1.00  0.00     0.000 A 
HETATM   34  C   UNL     1     -40.968  55.612 -50.528  1.00  0.00     0.002 A 
HETATM   35  C   UNL     1     -41.489  56.564 -51.408  1.00  0.00     0.030 A 
ENDBRANCH  12  30
TORSDOF 5
ENDMDL
MODEL 8
REMARK VINA RESULT:      -8.4      2.451      5.920
REMARK  5 active torsions:
REMARK  status: ('A' for Active; 'I' for Inactive)
REMARK    1  A    between atoms: C_11  and  N_12 
REMARK    2  A    between atoms: N_12  and  N_13 
REMARK       I    between atoms: N_13  and  C_14 
REMARK    3  A    between atoms: C_14  and  C_15 
REMARK    4  A    between atoms: C_15  and  C_16 
REMARK    5  A    between atoms: N_23  and  C_24 
ROOT
HETATM    1  C   UNL     1     -43.718  64.024 -52.283  1.00  0.00     0.046 C 
HETATM    2  C   UNL     1     -43.736  62.501 -52.090  1.00  0.00     0.058 C 
HETATM    3  C   UNL     1     -45.160  62.083 -51.687  1.00  0.00     0.046 C 
HETATM    4  O   UNL     1     -42.791  62.226 -51.031  1.00  0.00    -0.376 OA
HETATM    5  C   UNL     1     -42.655  60.842 -50.652  1.00  0.00     0.215 C 
HETATM    6  C   UNL     1     -42.545  59.996 -51.878  1.00  0.00     0.016 A 
HETATM    7  C   UNL     1     -42.842  60.410 -53.160  1.00  0.00    -0.021 A 
HETATM    8  C   UNL     1     -42.639  59.360 -54.109  1.00  0.00     0.077 A 
HETATM    9  C   UNL     1     -42.235  58.193 -53.510  1.00  0.00     0.133 A 
HETATM   10  N   UNL     1     -41.942  57.026 -54.125  1.00  0.00    -0.054 NA
HETATM   11  C   UNL     1     -42.067  57.014 -55.434  1.00  0.00     0.730 A 
HETATM   12  N   UNL     1     -42.542  58.128 -56.170  1.00  0.00    -0.107 N 
HETATM   13  C   UNL     1     -42.809  59.366 -55.549  1.00  0.00     0.280 A 
HETATM   14  O   UNL     1     -43.190  60.384 -56.124  1.00  0.00    -0.266 OA
HETATM   15  S   UNL     1     -42.080  58.361 -51.816  1.00  0.00    -0.071 SA
HETATM   16  C   UNL     1     -43.281  61.821 -53.411  1.00  0.00     0.078 C 
ENDROOT
BRANCH  11  17
HETATM   17  N   UNL     1     -41.641  55.873 -56.094  1.00  0.00    -0.127 N 
HETATM   18  H   UNL     1     -42.146  55.510 -56.902  1.00  0.00     0.206 HD
BRANCH  17  19
HETATM   19  N   UNL     1     -41.036  54.877 -55.310  1.00  0.00    -0.255 N 
HETATM   20  C   UNL     1     -41.838  53.811 -54.951  1.00  0.00     0.240 C 
HETATM   21  O   UNL     1     -42.980  53.674 -55.393  1.00  0.00    -0.272 OA
HETATM   22  H   UNL     1     -40.254  55.198 -54.739  1.00  0.00     0.190 HD
BRANCH  20  23
HETATM   23  C   UNL     1     -41.182  52.820 -54.008  1.00  0.00     0.143 C 
BRANCH  23  24
HETATM   24  C   UNL     1     -41.177  53.250 -52.560  1.00  0.00    -0.049 A 
HETATM   25  C   UNL     1     -40.062  53.020 -51.741  1.00  0.00     0.007 A 
HETATM   26  C   UNL     1     -40.047  53.463 -50.417  1.00  0.00     0.001 A 
HETATM   27  C   UNL     1     -41.140  54.153 -49.899  1.00  0.00     0.000 A 
HETATM   28  C   UNL     1     -42.249  54.398 -50.705  1.00  0.00     0.001 A 
HETATM   29  C   UNL     1     -42.269  53.951 -52.028  1.00  0.00     0.007 A 
ENDBRANCH  23  24
ENDBRANCH  20  23
ENDBRANCH  17  19
ENDBRANCH  11  17
BRANCH  12  30
HETATM   30  C   UNL     1     -42.821  58.023 -57.573  1.00  0.00     0.060 A 
HETATM   31  C   UNL     1     -41.879  58.439 -58.526  1.00  0.00     0.030 A 
HETATM   32  C   UNL     1     -42.152  58.329 -59.891  1.00  0.00     0.002 A 
HETATM   33  C   UNL     1     -43.372  57.816 -60.321  1.00  0.00     0.000 A 
HETATM   34  C   UNL     1     -44.327  57.419 -59.388  1.00  0.00     0.002 A 
HETATM   35  C   UNL     1     -44.056  57.529 -58.022  1.00  0.00     0.030 A 
ENDBRANCH  12  30
TORSDOF 5
ENDMDL
MODEL 9
REMARK VINA RESULT:      -8.2      2.847      8.053
REMARK  5 active torsions:
REMARK  status: ('A' for Active; 'I' for Inactive)
REMARK    1  A    between atoms: C_11  and  N_12 
REMARK    2  A    between atoms: N_12  and  N_13 
REMARK       I    between atoms: N_13  and  C_14 
REMARK    3  A    between atoms: C_14  and  C_15 
REMARK    4  A    between atoms: C_15  and  C_16 
REMARK    5  A    between atoms: N_23  and  C_24 
ROOT
HETATM    1  C   UNL     1     -44.739  60.810 -49.859  1.00  0.00     0.046 C 
HETATM    2  C   UNL     1     -44.214  60.918 -51.297  1.00  0.00     0.058 C 
HETATM    3  C   UNL     1     -42.909  61.731 -51.275  1.00  0.00     0.046 C 
HETATM    4  O   UNL     1     -45.245  61.605 -52.043  1.00  0.00    -0.376 OA
HETATM    5  C   UNL     1     -44.959  61.847 -53.434  1.00  0.00     0.215 C 
HETATM    6  C   UNL     1     -44.405  60.608 -54.055  1.00  0.00     0.016 A 
HETATM    7  C   UNL     1     -43.938  59.510 -53.360  1.00  0.00    -0.021 A 
HETATM    8  C   UNL     1     -43.467  58.492 -54.247  1.00  0.00     0.077 A 
HETATM    9  C   UNL     1     -43.562  58.869 -55.564  1.00  0.00     0.133 A 
HETATM   10  N   UNL     1     -43.220  58.131 -56.643  1.00  0.00    -0.054 NA
HETATM   11  C   UNL     1     -42.742  56.932 -56.397  1.00  0.00     0.730 A 
HETATM   12  N   UNL     1     -42.528  56.445 -55.084  1.00  0.00    -0.107 N 
HETATM   13  C   UNL     1     -42.920  57.183 -53.948  1.00  0.00     0.280 A 
HETATM   14  O   UNL     1     -42.798  56.814 -52.782  1.00  0.00    -0.266 OA
HETATM   15  S   UNL     1     -44.231  60.431 -55.738  1.00  0.00    -0.071 SA
HETATM   16  C   UNL     1     -44.000  59.487 -51.864  1.00  0.00     0.078 C 
ENDROOT
BRANCH  11  17
HETATM   17  N   UNL     1     -42.515  56.111 -57.491  1.00  0.00    -0.127 N 
HETATM   18  H   UNL     1     -41.730  56.274 -58.121  1.00  0.00     0.206 HD
BRANCH  17  19
HETATM   19  N   UNL     1     -43.648  55.573 -58.124  1.00  0.00    -0.255 N 
HETATM   20  C   UNL     1     -43.699  55.706 -59.499  1.00  0.00     0.240 C 
HETATM   21  O   UNL     1     -42.753  56.156 -60.148  1.00  0.00    -0.272 OA
HETATM   22  H   UNL     1     -44.484  55.528 -57.541  1.00  0.00     0.190 HD
BRANCH  20  23
HETATM   23  C   UNL     1     -44.990  55.220 -60.129  1.00  0.00     0.143 C 
BRANCH  23  24
HETATM   24  C   UNL     1     -45.996  56.313 -60.407  1.00  0.00    -0.049 A 
HETATM   25  C   UNL     1     -45.896  57.563 -59.780  1.00  0.00     0.007 A 
HETATM   26  C   UNL     1     -46.803  58.583 -60.077  1.00  0.00     0.001 A 
HETATM   27  C   UNL     1     -47.810  58.371 -61.014  1.00  0.00     0.000 A 
HETATM   28  C   UNL     1     -47.913  57.137 -61.654  1.00  0.00     0.001 A 
HETATM   29  C   UNL     1     -47.011  56.114 -61.353  1.00  0.00     0.007 A 
ENDBRANCH  23  24
ENDBRANCH  20  23
ENDBRANCH  17  19
ENDBRANCH  11  17
BRANCH  12  30
HETATM   30  C   UNL     1     -41.852  55.199 -54.858  1.00  0.00     0.060 A 
HETATM   31  C   UNL     1     -40.452  55.130 -54.871  1.00  0.00     0.030 A 
HETATM   32  C   UNL     1     -39.797  53.917 -54.644  1.00  0.00     0.002 A 
HETATM   33  C   UNL     1     -40.534  52.757 -54.416  1.00  0.00     0.000 A 
HETATM   34  C   UNL     1     -41.925  52.806 -54.422  1.00  0.00     0.002 A 
HETATM   35  C   UNL     1     -42.582  54.017 -54.649  1.00  0.00     0.030 A 
ENDBRANCH  12  30
TORSDOF 5
ENDMDL
MODEL 10
REMARK VINA RESULT:      -8.0      2.848      7.776
REMARK  5 active torsions:
REMARK  status: ('A' for Active; 'I' for Inactive)
REMARK    1  A    between atoms: C_11  and  N_12 
REMARK    2  A    between atoms: N_12  and  N_13 
REMARK       I    between atoms: N_13  and  C_14 
REMARK    3  A    between atoms: C_14  and  C_15 
REMARK    4  A    between atoms: C_15  and  C_16 
REMARK    5  A    between atoms: N_23  and  C_24 
ROOT
HETATM    1  C   UNL     1     -39.355  54.474 -49.867  1.00  0.00     0.046 C 
HETATM    2  C   UNL     1     -40.592  54.287 -50.757  1.00  0.00     0.058 C 
HETATM    3  C   UNL     1     -41.621  53.447 -49.982  1.00  0.00     0.046 C 
HETATM    4  O   UNL     1     -40.129  53.589 -51.935  1.00  0.00    -0.376 OA
HETATM    5  C   UNL     1     -41.135  53.275 -52.917  1.00  0.00     0.215 C 
HETATM    6  C   UNL     1     -41.997  54.471 -53.151  1.00  0.00     0.016 A 
HETATM    7  C   UNL     1     -42.042  55.590 -52.343  1.00  0.00    -0.021 A 
HETATM    8  C   UNL     1     -42.975  56.554 -52.837  1.00  0.00     0.077 A 
HETATM    9  C   UNL     1     -43.620  56.118 -53.968  1.00  0.00     0.133 A 
HETATM   10  N   UNL     1     -44.541  56.797 -54.687  1.00  0.00    -0.054 NA
HETATM   11  C   UNL     1     -44.852  57.995 -54.246  1.00  0.00     0.730 A 
HETATM   12  N   UNL     1     -44.313  58.539 -53.053  1.00  0.00    -0.107 N 
HETATM   13  C   UNL     1     -43.317  57.863 -52.316  1.00  0.00     0.280 A 
HETATM   14  O   UNL     1     -42.779  58.284 -51.294  1.00  0.00    -0.266 OA
HETATM   15  S   UNL     1     -43.095  54.564 -54.447  1.00  0.00    -0.071 SA
HETATM   16  C   UNL     1     -41.151  55.685 -51.143  1.00  0.00     0.078 C 
ENDROOT
BRANCH  11  17
HETATM   17  N   UNL     1     -45.690  58.759 -55.043  1.00  0.00    -0.127 N 
HETATM   18  H   UNL     1     -46.369  59.400 -54.634  1.00  0.00     0.206 HD
BRANCH  17  19
HETATM   19  N   UNL     1     -46.112  58.182 -56.252  1.00  0.00    -0.255 N 
HETATM   20  C   UNL     1     -45.778  58.867 -57.405  1.00  0.00     0.240 C 
HETATM   21  O   UNL     1     -45.047  59.859 -57.387  1.00  0.00    -0.272 OA
HETATM   22  H   UNL     1     -46.942  57.592 -56.179  1.00  0.00     0.190 HD
BRANCH  20  23
HETATM   23  C   UNL     1     -46.354  58.274 -58.677  1.00  0.00     0.143 C 
BRANCH  23  24
HETATM   24  C   UNL     1     -45.573  57.103 -59.225  1.00  0.00    -0.049 A 
HETATM   25  C   UNL     1     -44.240  56.882 -58.847  1.00  0.00     0.007 A 
HETATM   26  C   UNL     1     -43.540  55.771 -59.322  1.00  0.00     0.001 A 
HETATM   27  C   UNL     1     -44.167  54.860 -60.168  1.00  0.00     0.000 A 
HETATM   28  C   UNL     1     -45.493  55.061 -60.542  1.00  0.00     0.001 A 
HETATM   29  C   UNL     1     -46.194  56.175 -60.073  1.00  0.00     0.007 A 
ENDBRANCH  23  24
ENDBRANCH  20  23
ENDBRANCH  17  19
ENDBRANCH  11  17
BRANCH  12  30
HETATM   30  C   UNL     1     -44.799  59.778 -52.519  1.00  0.00     0.060 A 
HETATM   31  C   UNL     1     -45.906  59.803 -51.658  1.00  0.00     0.030 A 
HETATM   32  C   UNL     1     -46.373  61.011 -51.135  1.00  0.00     0.002 A 
HETATM   33  C   UNL     1     -45.750  62.208 -51.476  1.00  0.00     0.000 A 
HETATM   34  C   UNL     1     -44.664  62.202 -52.348  1.00  0.00     0.002 A 
HETATM   35  C   UNL     1     -44.196  60.996 -52.873  1.00  0.00     0.030 A 
ENDBRANCH  12  30
TORSDOF 5
ENDMDL
