MODEL 1
REMARK VINA RESULT:     -10.3      0.000      0.000
REMARK  7 active torsions:
REMARK  status: ('A' for Active; 'I' for Inactive)
REMARK    1  A    between atoms: C_9  and  O_10 
REMARK    2  A    between atoms: O_10  and  C_11 
REMARK    3  A    between atoms: C_11  and  C_12 
REMARK    4  A    between atoms: C_15  and  C_16 
REMARK       I    between atoms: C_16  and  N_17 
REMARK    5  A    between atoms: N_17  and  N_18 
REMARK    6  A    between atoms: C_19  and  N_20 
REMARK    7  A    between atoms: C_21  and  C_22 
ROOT
HETATM    1  C   UNL     1     -42.934  56.924 -56.588  1.00  0.00     0.270 C 
HETATM    2  N   UNL     1     -43.622  55.970 -57.318  1.00  0.00    -0.262 N 
HETATM    3  O   UNL     1     -42.474  57.967 -57.047  1.00  0.00    -0.266 OA
HETATM    4  H   UNL     1     -43.926  55.077 -56.941  1.00  0.00     0.190 HD
ENDROOT
BRANCH   2   5
HETATM    5  N   UNL     1     -43.949  56.186 -58.665  1.00  0.00    -0.270 N 
HETATM    6  C   UNL     1     -45.098  56.900 -59.003  1.00  0.00     0.113 C 
HETATM    7  C   UNL     1     -45.586  56.551 -60.211  1.00  0.00     0.097 C 
HETATM    8  C   UNL     1     -44.723  55.441 -60.683  1.00  0.00     0.186 C 
HETATM    9  O   UNL     1     -44.884  54.870 -61.756  1.00  0.00    -0.290 OA
HETATM   10  C   UNL     1     -43.671  55.123 -59.641  1.00  0.00     0.234 C 
BRANCH   6  11
HETATM   11  N   UNL     1     -45.628  57.848 -58.155  1.00  0.00    -0.286 NA
HETATM   12  H   UNL     1     -46.496  58.207 -58.543  1.00  0.00     0.125 HD
HETATM   13  H   UNL     1     -45.789  57.445 -57.223  1.00  0.00     0.125 HD
ENDBRANCH   6  11
BRANCH   7  14
HETATM   14  C   UNL     1     -46.691  57.108 -60.877  1.00  0.00     0.146 A 
HETATM   15  N   UNL     1     -47.753  56.537 -61.417  1.00  0.00    -0.228 NA
HETATM   16  C   UNL     1     -48.525  57.565 -61.906  1.00  0.00     0.086 A 
HETATM   17  C   UNL     1     -47.928  58.795 -61.655  1.00  0.00     0.062 A 
HETATM   18  C   UNL     1     -49.757  57.528 -62.575  1.00  0.00     0.034 A 
HETATM   19  N   UNL     1     -46.765  58.477 -61.005  1.00  0.00    -0.338 N 
HETATM   20  C   UNL     1     -48.492  60.016 -62.029  1.00  0.00     0.032 A 
HETATM   21  H   UNL     1     -46.071  59.132 -60.660  1.00  0.00     0.167 HD
HETATM   22  C   UNL     1     -49.723  59.959 -62.694  1.00  0.00     0.002 A 
HETATM   23  C   UNL     1     -50.347  58.738 -62.964  1.00  0.00     0.002 A 
ENDBRANCH   7  14
ENDBRANCH   2   5
BRANCH   1  24
HETATM   24  C   UNL     1     -42.704  56.591 -55.159  1.00  0.00     0.033 A 
HETATM   25  C   UNL     1     -43.445  55.546 -54.595  1.00  0.00     0.017 A 
HETATM   26  C   UNL     1     -43.263  55.202 -53.254  1.00  0.00     0.010 A 
HETATM   27  C   UNL     1     -42.331  55.888 -52.463  1.00  0.00    -0.034 A 
HETATM   28  C   UNL     1     -41.568  56.913 -53.044  1.00  0.00     0.010 A 
HETATM   29  C   UNL     1     -41.753  57.266 -54.384  1.00  0.00     0.017 A 
BRANCH  27  30
HETATM   30  C   UNL     1     -42.139  55.499 -51.016  1.00  0.00     0.214 C 
BRANCH  30  31
HETATM   31  O   UNL     1     -40.786  55.087 -50.839  1.00  0.00    -0.347 OA
BRANCH  31  32
HETATM   32  C   UNL     1     -40.516  53.755 -50.986  1.00  0.00     0.070 A 
HETATM   33  C   UNL     1     -40.441  52.814 -49.962  1.00  0.00     0.037 A 
HETATM   34  C   UNL     1     -40.165  51.474 -50.256  1.00  0.00     0.015 A 
HETATM   35  C   UNL     1     -39.954  51.055 -51.579  1.00  0.00    -0.026 A 
HETATM   36  C   UNL     1     -39.676  49.714 -51.888  1.00  0.00     0.012 A 
HETATM   37  C   UNL     1     -40.021  52.006 -52.619  1.00  0.00    -0.023 A 
HETATM   38  C   UNL     1     -39.467  49.315 -53.210  1.00  0.00     0.001 A 
HETATM   39  C   UNL     1     -39.531  50.253 -54.236  1.00  0.00     0.001 A 
HETATM   40  C   UNL     1     -39.808  51.590 -53.944  1.00  0.00     0.012 A 
HETATM   41  C   UNL     1     -40.302  53.347 -52.306  1.00  0.00     0.049 A 
ENDBRANCH  31  32
ENDBRANCH  30  31
ENDBRANCH  27  30
ENDBRANCH   1  24
TORSDOF 7
ENDMDL
MODEL 2
REMARK VINA RESULT:      -9.9      8.606     12.609
REMARK  7 active torsions:
REMARK  status: ('A' for Active; 'I' for Inactive)
REMARK    1  A    between atoms: C_9  and  O_10 
REMARK    2  A    between atoms: O_10  and  C_11 
REMARK    3  A    between atoms: C_11  and  C_12 
REMARK    4  A    between atoms: C_15  and  C_16 
REMARK       I    between atoms: C_16  and  N_17 
REMARK    5  A    between atoms: N_17  and  N_18 
REMARK    6  A    between atoms: C_19  and  N_20 
REMARK    7  A    between atoms: C_21  and  C_22 
ROOT
HETATM    1  C   UNL     1     -44.966  61.047 -50.510  1.00  0.00     0.270 C 
HETATM    2  N   UNL     1     -43.826  60.280 -50.341  1.00  0.00    -0.262 N 
HETATM    3  O   UNL     1     -45.465  61.338 -51.594  1.00  0.00    -0.266 OA
HETATM    4  H   UNL     1     -43.381  60.115 -49.442  1.00  0.00     0.190 HD
ENDROOT
BRANCH   2   5
HETATM    5  N   UNL     1     -43.197  59.666 -51.434  1.00  0.00    -0.270 N 
HETATM    6  C   UNL     1     -43.017  58.284 -51.456  1.00  0.00     0.113 C 
HETATM    7  C   UNL     1     -41.958  57.912 -52.204  1.00  0.00     0.097 C 
HETATM    8  C   UNL     1     -41.328  59.177 -52.655  1.00  0.00     0.186 C 
HETATM    9  O   UNL     1     -40.324  59.218 -53.358  1.00  0.00    -0.290 OA
HETATM   10  C   UNL     1     -42.085  60.362 -52.095  1.00  0.00     0.234 C 
BRANCH   6  11
HETATM   11  N   UNL     1     -43.863  57.440 -50.770  1.00  0.00    -0.286 NA
HETATM   12  H   UNL     1     -43.329  56.876 -50.115  1.00  0.00     0.125 HD
HETATM   13  H   UNL     1     -44.584  57.981 -50.275  1.00  0.00     0.125 HD
ENDBRANCH   6  11
BRANCH   7  14
HETATM   14  C   UNL     1     -41.529  56.604 -52.483  1.00  0.00     0.146 A 
HETATM   15  N   UNL     1     -41.389  55.552 -51.694  1.00  0.00    -0.228 NA
HETATM   16  C   UNL     1     -40.964  54.528 -52.507  1.00  0.00     0.086 A 
HETATM   17  C   UNL     1     -40.845  54.956 -53.824  1.00  0.00     0.062 A 
HETATM   18  C   UNL     1     -40.661  53.195 -52.192  1.00  0.00     0.034 A 
HETATM   19  N   UNL     1     -41.206  56.277 -53.781  1.00  0.00    -0.338 N 
HETATM   20  C   UNL     1     -40.442  54.125 -54.871  1.00  0.00     0.032 A 
HETATM   21  H   UNL     1     -41.243  56.915 -54.569  1.00  0.00     0.167 HD
HETATM   22  C   UNL     1     -40.146  52.797 -54.538  1.00  0.00     0.002 A 
HETATM   23  C   UNL     1     -40.252  52.338 -53.222  1.00  0.00     0.002 A 
ENDBRANCH   7  14
ENDBRANCH   2   5
BRANCH   1  24
HETATM   24  C   UNL     1     -45.561  61.590 -49.262  1.00  0.00     0.033 A 
HETATM   25  C   UNL     1     -46.523  62.600 -49.371  1.00  0.00     0.017 A 
HETATM   26  C   UNL     1     -47.105  63.141 -48.223  1.00  0.00     0.010 A 
HETATM   27  C   UNL     1     -46.741  62.672 -46.952  1.00  0.00    -0.034 A 
HETATM   28  C   UNL     1     -45.800  61.636 -46.851  1.00  0.00     0.010 A 
HETATM   29  C   UNL     1     -45.209  61.098 -47.998  1.00  0.00     0.017 A 
BRANCH  27  30
HETATM   30  C   UNL     1     -47.385  63.262 -45.719  1.00  0.00     0.214 C 
BRANCH  30  31
HETATM   31  O   UNL     1     -46.656  64.430 -45.350  1.00  0.00    -0.347 OA
BRANCH  31  32
HETATM   32  C   UNL     1     -45.790  64.317 -44.297  1.00  0.00     0.070 A 
HETATM   33  C   UNL     1     -44.399  64.292 -44.377  1.00  0.00     0.037 A 
HETATM   34  C   UNL     1     -43.630  64.181 -43.214  1.00  0.00     0.015 A 
HETATM   35  C   UNL     1     -44.238  64.087 -41.953  1.00  0.00    -0.026 A 
HETATM   36  C   UNL     1     -43.479  63.976 -40.777  1.00  0.00     0.012 A 
HETATM   37  C   UNL     1     -45.648  64.105 -41.867  1.00  0.00    -0.023 A 
HETATM   38  C   UNL     1     -44.102  63.882 -39.532  1.00  0.00     0.001 A 
HETATM   39  C   UNL     1     -45.490  63.897 -39.446  1.00  0.00     0.001 A 
HETATM   40  C   UNL     1     -46.259  64.009 -40.606  1.00  0.00     0.012 A 
HETATM   41  C   UNL     1     -46.404  64.219 -43.045  1.00  0.00     0.049 A 
ENDBRANCH  31  32
ENDBRANCH  30  31
ENDBRANCH  27  30
ENDBRANCH   1  24
TORSDOF 7
ENDMDL
MODEL 3
REMARK VINA RESULT:      -9.6      6.843     11.721
REMARK  7 active torsions:
REMARK  status: ('A' for Active; 'I' for Inactive)
REMARK    1  A    between atoms: C_9  and  O_10 
REMARK    2  A    between atoms: O_10  and  C_11 
REMARK    3  A    between atoms: C_11  and  C_12 
REMARK    4  A    between atoms: C_15  and  C_16 
REMARK       I    between atoms: C_16  and  N_17 
REMARK    5  A    between atoms: N_17  and  N_18 
REMARK    6  A    between atoms: C_19  and  N_20 
REMARK    7  A    between atoms: C_21  and  C_22 
ROOT
HETATM    1  C   UNL     1     -44.541  58.613 -52.695  1.00  0.00     0.270 C 
HETATM    2  N   UNL     1     -43.374  58.005 -52.267  1.00  0.00    -0.262 N 
HETATM    3  O   UNL     1     -45.101  58.389 -53.765  1.00  0.00    -0.266 OA
HETATM    4  H   UNL     1     -42.881  58.259 -51.415  1.00  0.00     0.190 HD
ENDROOT
BRANCH   2   5
HETATM    5  N   UNL     1     -42.784  56.968 -53.005  1.00  0.00    -0.270 N 
HETATM    6  C   UNL     1     -42.500  55.746 -52.398  1.00  0.00     0.113 C 
HETATM    7  C   UNL     1     -41.475  55.099 -52.991  1.00  0.00     0.097 C 
HETATM    8  C   UNL     1     -40.981  56.021 -54.043  1.00  0.00     0.186 C 
HETATM    9  O   UNL     1     -40.040  55.758 -54.783  1.00  0.00    -0.290 OA
HETATM   10  C   UNL     1     -41.782  57.306 -54.026  1.00  0.00     0.234 C 
BRANCH   6  11
HETATM   11  N   UNL     1     -43.225  55.299 -51.315  1.00  0.00    -0.286 NA
HETATM   12  H   UNL     1     -44.099  55.814 -51.250  1.00  0.00     0.125 HD
HETATM   13  H   UNL     1     -43.406  54.290 -51.397  1.00  0.00     0.125 HD
ENDBRANCH   6  11
BRANCH   7  14
HETATM   14  C   UNL     1     -40.969  53.829 -52.670  1.00  0.00     0.146 A 
HETATM   15  N   UNL     1     -40.714  53.270 -51.500  1.00  0.00    -0.228 NA
HETATM   16  C   UNL     1     -40.259  52.003 -51.781  1.00  0.00     0.086 A 
HETATM   17  C   UNL     1     -40.241  51.775 -53.152  1.00  0.00     0.062 A 
HETATM   18  C   UNL     1     -39.846  50.982 -50.913  1.00  0.00     0.034 A 
HETATM   19  N   UNL     1     -40.692  52.950 -53.693  1.00  0.00    -0.338 N 
HETATM   20  C   UNL     1     -39.834  50.570 -53.727  1.00  0.00     0.032 A 
HETATM   21  H   UNL     1     -40.816  53.148 -54.680  1.00  0.00     0.167 HD
HETATM   22  C   UNL     1     -39.427  49.561 -52.845  1.00  0.00     0.002 A 
HETATM   23  C   UNL     1     -39.431  49.761 -51.462  1.00  0.00     0.002 A 
ENDBRANCH   7  14
ENDBRANCH   2   5
BRANCH   1  24
HETATM   24  C   UNL     1     -45.087  59.656 -51.788  1.00  0.00     0.033 A 
HETATM   25  C   UNL     1     -46.070  60.518 -52.286  1.00  0.00     0.017 A 
HETATM   26  C   UNL     1     -46.608  61.514 -51.468  1.00  0.00     0.010 A 
HETATM   27  C   UNL     1     -46.178  61.655 -50.141  1.00  0.00    -0.034 A 
HETATM   28  C   UNL     1     -45.216  60.766 -49.638  1.00  0.00     0.010 A 
HETATM   29  C   UNL     1     -44.669  59.773 -50.457  1.00  0.00     0.017 A 
BRANCH  27  30
HETATM   30  C   UNL     1     -46.775  62.733 -49.266  1.00  0.00     0.214 C 
BRANCH  30  31
HETATM   31  O   UNL     1     -46.985  62.187 -47.966  1.00  0.00    -0.347 OA
BRANCH  31  32
HETATM   32  C   UNL     1     -46.432  62.860 -46.911  1.00  0.00     0.070 A 
HETATM   33  C   UNL     1     -46.635  64.201 -46.595  1.00  0.00     0.037 A 
HETATM   34  C   UNL     1     -46.010  64.762 -45.475  1.00  0.00     0.015 A 
HETATM   35  C   UNL     1     -45.168  63.992 -44.657  1.00  0.00    -0.026 A 
HETATM   36  C   UNL     1     -44.536  64.541 -43.531  1.00  0.00     0.012 A 
HETATM   37  C   UNL     1     -44.954  62.634 -44.978  1.00  0.00    -0.023 A 
HETATM   38  C   UNL     1     -43.701  63.761 -42.730  1.00  0.00     0.001 A 
HETATM   39  C   UNL     1     -43.487  62.423 -43.047  1.00  0.00     0.001 A 
HETATM   40  C   UNL     1     -44.110  61.862 -44.163  1.00  0.00     0.012 A 
HETATM   41  C   UNL     1     -45.591  62.087 -46.105  1.00  0.00     0.049 A 
ENDBRANCH  31  32
ENDBRANCH  30  31
ENDBRANCH  27  30
ENDBRANCH   1  24
TORSDOF 7
ENDMDL
MODEL 4
REMARK VINA RESULT:      -9.5      6.546      9.857
REMARK  7 active torsions:
REMARK  status: ('A' for Active; 'I' for Inactive)
REMARK    1  A    between atoms: C_9  and  O_10 
REMARK    2  A    between atoms: O_10  and  C_11 
REMARK    3  A    between atoms: C_11  and  C_12 
REMARK    4  A    between atoms: C_15  and  C_16 
REMARK       I    between atoms: C_16  and  N_17 
REMARK    5  A    between atoms: N_17  and  N_18 
REMARK    6  A    between atoms: C_19  and  N_20 
REMARK    7  A    between atoms: C_21  and  C_22 
ROOT
HETATM    1  C   UNL     1     -43.945  59.910 -53.418  1.00  0.00     0.270 C 
HETATM    2  N   UNL     1     -44.944  59.932 -52.461  1.00  0.00    -0.262 N 
HETATM    3  O   UNL     1     -43.368  60.902 -53.857  1.00  0.00    -0.266 OA
HETATM    4  H   UNL     1     -45.466  59.111 -52.166  1.00  0.00     0.190 HD
ENDROOT
BRANCH   2   5
HETATM    5  N   UNL     1     -45.308  61.125 -51.820  1.00  0.00    -0.270 N 
HETATM    6  C   UNL     1     -45.053  61.299 -50.461  1.00  0.00     0.113 C 
HETATM    7  C   UNL     1     -45.915  62.159 -49.879  1.00  0.00     0.097 C 
HETATM    8  C   UNL     1     -46.884  62.528 -50.939  1.00  0.00     0.186 C 
HETATM    9  O   UNL     1     -47.822  63.296 -50.759  1.00  0.00    -0.290 OA
HETATM   10  C   UNL     1     -46.553  61.795 -52.222  1.00  0.00     0.234 C 
BRANCH   6  11
HETATM   11  N   UNL     1     -44.017  60.640 -49.836  1.00  0.00    -0.286 NA
HETATM   12  H   UNL     1     -43.346  61.316 -49.479  1.00  0.00     0.125 HD
HETATM   13  H   UNL     1     -44.376  60.051 -49.073  1.00  0.00     0.125 HD
ENDBRANCH   6  11
BRANCH   7  14
HETATM   14  C   UNL     1     -45.908  62.600 -48.545  1.00  0.00     0.146 A 
HETATM   15  N   UNL     1     -44.907  62.811 -47.708  1.00  0.00    -0.228 NA
HETATM   16  C   UNL     1     -45.480  63.264 -46.544  1.00  0.00     0.086 A 
HETATM   17  C   UNL     1     -46.862  63.341 -46.668  1.00  0.00     0.062 A 
HETATM   18  C   UNL     1     -44.882  63.638 -45.332  1.00  0.00     0.034 A 
HETATM   19  N   UNL     1     -47.109  62.910 -47.945  1.00  0.00    -0.338 N 
HETATM   20  C   UNL     1     -47.705  63.780 -45.645  1.00  0.00     0.032 A 
HETATM   21  H   UNL     1     -48.017  62.838 -48.391  1.00  0.00     0.167 HD
HETATM   22  C   UNL     1     -47.090  64.151 -44.443  1.00  0.00     0.002 A 
HETATM   23  C   UNL     1     -45.703  64.082 -44.286  1.00  0.00     0.002 A 
ENDBRANCH   7  14
ENDBRANCH   2   5
BRANCH   1  24
HETATM   24  C   UNL     1     -43.622  58.570 -53.973  1.00  0.00     0.033 A 
HETATM   25  C   UNL     1     -42.571  58.469 -54.891  1.00  0.00     0.017 A 
HETATM   26  C   UNL     1     -42.236  57.230 -55.439  1.00  0.00     0.010 A 
HETATM   27  C   UNL     1     -42.940  56.075 -55.071  1.00  0.00    -0.034 A 
HETATM   28  C   UNL     1     -43.972  56.178 -54.126  1.00  0.00     0.010 A 
HETATM   29  C   UNL     1     -44.315  57.419 -53.580  1.00  0.00     0.017 A 
BRANCH  27  30
HETATM   30  C   UNL     1     -42.562  54.739 -55.668  1.00  0.00     0.214 C 
BRANCH  30  31
HETATM   31  O   UNL     1     -41.172  54.522 -55.434  1.00  0.00    -0.347 OA
BRANCH  31  32
HETATM   32  C   UNL     1     -40.832  53.822 -54.310  1.00  0.00     0.070 A 
HETATM   33  C   UNL     1     -40.772  54.328 -53.013  1.00  0.00     0.037 A 
HETATM   34  C   UNL     1     -40.416  53.493 -51.948  1.00  0.00     0.015 A 
HETATM   35  C   UNL     1     -40.109  52.140 -52.163  1.00  0.00    -0.026 A 
HETATM   36  C   UNL     1     -39.750  51.291 -51.104  1.00  0.00     0.012 A 
HETATM   37  C   UNL     1     -40.160  51.625 -53.476  1.00  0.00    -0.023 A 
HETATM   38  C   UNL     1     -39.446  49.949 -51.337  1.00  0.00     0.001 A 
HETATM   39  C   UNL     1     -39.494  49.441 -52.631  1.00  0.00     0.001 A 
HETATM   40  C   UNL     1     -39.850  50.272 -53.695  1.00  0.00     0.012 A 
HETATM   41  C   UNL     1     -40.522  52.477 -54.534  1.00  0.00     0.049 A 
ENDBRANCH  31  32
ENDBRANCH  30  31
ENDBRANCH  27  30
ENDBRANCH   1  24
TORSDOF 7
ENDMDL
MODEL 5
REMARK VINA RESULT:      -9.5      7.425     10.784
REMARK  7 active torsions:
REMARK  status: ('A' for Active; 'I' for Inactive)
REMARK    1  A    between atoms: C_9  and  O_10 
REMARK    2  A    between atoms: O_10  and  C_11 
REMARK    3  A    between atoms: C_11  and  C_12 
REMARK    4  A    between atoms: C_15  and  C_16 
REMARK       I    between atoms: C_16  and  N_17 
REMARK    5  A    between atoms: N_17  and  N_18 
REMARK    6  A    between atoms: C_19  and  N_20 
REMARK    7  A    between atoms: C_21  and  C_22 
ROOT
HETATM    1  C   UNL     1     -45.237  59.594 -50.888  1.00  0.00     0.270 C 
HETATM    2  N   UNL     1     -44.928  60.885 -51.281  1.00  0.00    -0.262 N 
HETATM    3  O   UNL     1     -45.928  59.300 -49.915  1.00  0.00    -0.266 OA
HETATM    4  H   UNL     1     -44.291  61.109 -52.040  1.00  0.00     0.190 HD
ENDROOT
BRANCH   2   5
HETATM    5  N   UNL     1     -45.492  61.994 -50.635  1.00  0.00    -0.270 N 
HETATM    6  C   UNL     1     -45.232  62.230 -49.285  1.00  0.00     0.113 C 
HETATM    7  C   UNL     1     -46.223  62.916 -48.680  1.00  0.00     0.097 C 
HETATM    8  C   UNL     1     -47.279  63.079 -49.708  1.00  0.00     0.186 C 
HETATM    9  O   UNL     1     -48.340  63.656 -49.501  1.00  0.00    -0.290 OA
HETATM   10  C   UNL     1     -46.855  62.409 -50.998  1.00  0.00     0.234 C 
BRANCH   6  11
HETATM   11  N   UNL     1     -44.069  61.788 -48.693  1.00  0.00    -0.286 NA
HETATM   12  H   UNL     1     -43.592  61.140 -49.314  1.00  0.00     0.125 HD
HETATM   13  H   UNL     1     -43.459  62.584 -48.465  1.00  0.00     0.125 HD
ENDBRANCH   6  11
BRANCH   7  14
HETATM   14  C   UNL     1     -46.259  63.365 -47.349  1.00  0.00     0.146 A 
HETATM   15  N   UNL     1     -47.279  63.587 -46.538  1.00  0.00    -0.228 NA
HETATM   16  C   UNL     1     -46.727  63.990 -45.344  1.00  0.00     0.086 A 
HETATM   17  C   UNL     1     -45.340  64.009 -45.420  1.00  0.00     0.062 A 
HETATM   18  C   UNL     1     -47.351  64.353 -44.141  1.00  0.00     0.034 A 
HETATM   19  N   UNL     1     -45.068  63.613 -46.703  1.00  0.00    -0.338 N 
HETATM   20  C   UNL     1     -44.515  64.368 -44.353  1.00  0.00     0.032 A 
HETATM   21  H   UNL     1     -44.148  63.504 -47.116  1.00  0.00     0.167 HD
HETATM   22  C   UNL     1     -45.154  64.725 -43.159  1.00  0.00     0.002 A 
HETATM   23  C   UNL     1     -46.548  64.719 -43.053  1.00  0.00     0.002 A 
ENDBRANCH   7  14
ENDBRANCH   2   5
BRANCH   1  24
HETATM   24  C   UNL     1     -44.614  58.514 -51.695  1.00  0.00     0.033 A 
HETATM   25  C   UNL     1     -44.205  58.815 -52.999  1.00  0.00     0.017 A 
HETATM   26  C   UNL     1     -43.617  57.829 -53.794  1.00  0.00     0.010 A 
HETATM   27  C   UNL     1     -43.422  56.533 -53.294  1.00  0.00    -0.034 A 
HETATM   28  C   UNL     1     -43.805  56.248 -51.974  1.00  0.00     0.010 A 
HETATM   29  C   UNL     1     -44.401  57.231 -51.178  1.00  0.00     0.017 A 
BRANCH  27  30
HETATM   30  C   UNL     1     -42.779  55.479 -54.163  1.00  0.00     0.214 C 
BRANCH  30  31
HETATM   31  O   UNL     1     -41.388  55.431 -53.853  1.00  0.00    -0.347 OA
BRANCH  31  32
HETATM   32  C   UNL     1     -40.928  54.307 -53.225  1.00  0.00     0.070 A 
HETATM   33  C   UNL     1     -40.655  54.180 -51.865  1.00  0.00     0.037 A 
HETATM   34  C   UNL     1     -40.195  52.963 -51.350  1.00  0.00     0.015 A 
HETATM   35  C   UNL     1     -39.996  51.855 -52.188  1.00  0.00    -0.026 A 
HETATM   36  C   UNL     1     -39.535  50.627 -51.685  1.00  0.00     0.012 A 
HETATM   37  C   UNL     1     -40.264  51.981 -53.568  1.00  0.00    -0.023 A 
HETATM   38  C   UNL     1     -39.341  49.536 -52.534  1.00  0.00     0.001 A 
HETATM   39  C   UNL     1     -39.603  49.660 -53.895  1.00  0.00     0.001 A 
HETATM   40  C   UNL     1     -40.063  50.874 -54.410  1.00  0.00     0.012 A 
HETATM   41  C   UNL     1     -40.727  53.210 -54.067  1.00  0.00     0.049 A 
ENDBRANCH  31  32
ENDBRANCH  30  31
ENDBRANCH  27  30
ENDBRANCH   1  24
TORSDOF 7
ENDMDL
MODEL 6
REMARK VINA RESULT:      -9.5      2.341      3.306
REMARK  7 active torsions:
REMARK  status: ('A' for Active; 'I' for Inactive)
REMARK    1  A    between atoms: C_9  and  O_10 
REMARK    2  A    between atoms: O_10  and  C_11 
REMARK    3  A    between atoms: C_11  and  C_12 
REMARK    4  A    between atoms: C_15  and  C_16 
REMARK       I    between atoms: C_16  and  N_17 
REMARK    5  A    between atoms: N_17  and  N_18 
REMARK    6  A    between atoms: C_19  and  N_20 
REMARK    7  A    between atoms: C_21  and  C_22 
ROOT
HETATM    1  C   UNL     1     -44.104  58.763 -53.184  1.00  0.00     0.270 C 
HETATM    2  N   UNL     1     -43.756  58.605 -54.514  1.00  0.00    -0.262 N 
HETATM    3  O   UNL     1     -44.896  59.599 -52.757  1.00  0.00    -0.266 OA
HETATM    4  H   UNL     1     -43.040  57.962 -54.841  1.00  0.00     0.190 HD
ENDROOT
BRANCH   2   5
HETATM    5  N   UNL     1     -44.390  59.347 -55.522  1.00  0.00    -0.270 N 
HETATM    6  C   UNL     1     -45.268  58.724 -56.407  1.00  0.00     0.113 C 
HETATM    7  C   UNL     1     -45.338  59.356 -57.597  1.00  0.00     0.097 C 
HETATM    8  C   UNL     1     -44.349  60.458 -57.520  1.00  0.00     0.186 C 
HETATM    9  O   UNL     1     -44.139  61.243 -58.438  1.00  0.00    -0.290 OA
HETATM   10  C   UNL     1     -43.646  60.431 -56.179  1.00  0.00     0.234 C 
BRANCH   6  11
HETATM   11  N   UNL     1     -45.963  57.590 -56.047  1.00  0.00    -0.286 NA
HETATM   12  H   UNL     1     -45.494  57.133 -55.270  1.00  0.00     0.125 HD
HETATM   13  H   UNL     1     -46.931  57.828 -55.794  1.00  0.00     0.125 HD
ENDBRANCH   6  11
BRANCH   7  14
HETATM   14  C   UNL     1     -46.161  59.030 -58.688  1.00  0.00     0.146 A 
HETATM   15  N   UNL     1     -46.943  59.786 -59.438  1.00  0.00    -0.228 NA
HETATM   16  C   UNL     1     -47.490  58.944 -60.378  1.00  0.00     0.086 A 
HETATM   17  C   UNL     1     -47.030  57.644 -60.206  1.00  0.00     0.062 A 
HETATM   18  C   UNL     1     -48.389  59.219 -61.419  1.00  0.00     0.034 A 
HETATM   19  N   UNL     1     -46.192  57.724 -59.125  1.00  0.00    -0.338 N 
HETATM   20  C   UNL     1     -47.410  56.578 -61.024  1.00  0.00     0.032 A 
HETATM   21  H   UNL     1     -45.667  56.961 -58.714  1.00  0.00     0.167 HD
HETATM   22  C   UNL     1     -48.305  56.871 -62.059  1.00  0.00     0.002 A 
HETATM   23  C   UNL     1     -48.789  58.168 -62.255  1.00  0.00     0.002 A 
ENDBRANCH   7  14
ENDBRANCH   2   5
BRANCH   1  24
HETATM   24  C   UNL     1     -43.394  57.873 -52.229  1.00  0.00     0.033 A 
HETATM   25  C   UNL     1     -44.005  56.666 -51.869  1.00  0.00     0.017 A 
HETATM   26  C   UNL     1     -43.374  55.802 -50.973  1.00  0.00     0.010 A 
HETATM   27  C   UNL     1     -42.122  56.127 -50.432  1.00  0.00    -0.034 A 
HETATM   28  C   UNL     1     -41.501  57.323 -50.822  1.00  0.00     0.010 A 
HETATM   29  C   UNL     1     -42.133  58.195 -51.713  1.00  0.00     0.017 A 
BRANCH  27  30
HETATM   30  C   UNL     1     -41.448  55.178 -49.468  1.00  0.00     0.214 C 
BRANCH  30  31
HETATM   31  O   UNL     1     -40.192  54.794 -50.022  1.00  0.00    -0.347 OA
BRANCH  31  32
HETATM   32  C   UNL     1     -40.219  53.990 -51.129  1.00  0.00     0.070 A 
HETATM   33  C   UNL     1     -40.526  54.391 -52.427  1.00  0.00     0.037 A 
HETATM   34  C   UNL     1     -40.507  53.461 -53.473  1.00  0.00     0.015 A 
HETATM   35  C   UNL     1     -40.186  52.115 -53.235  1.00  0.00    -0.026 A 
HETATM   36  C   UNL     1     -40.163  51.171 -54.275  1.00  0.00     0.012 A 
HETATM   37  C   UNL     1     -39.882  51.703 -51.920  1.00  0.00    -0.023 A 
HETATM   38  C   UNL     1     -39.844  49.837 -54.020  1.00  0.00     0.001 A 
HETATM   39  C   UNL     1     -39.546  49.429 -52.723  1.00  0.00     0.001 A 
HETATM   40  C   UNL     1     -39.564  50.357 -51.679  1.00  0.00     0.012 A 
HETATM   41  C   UNL     1     -39.904  52.651 -50.882  1.00  0.00     0.049 A 
ENDBRANCH  31  32
ENDBRANCH  30  31
ENDBRANCH  27  30
ENDBRANCH   1  24
TORSDOF 7
ENDMDL
MODEL 7
REMARK VINA RESULT:      -9.4      6.120     12.366
REMARK  7 active torsions:
REMARK  status: ('A' for Active; 'I' for Inactive)
REMARK    1  A    between atoms: C_9  and  O_10 
REMARK    2  A    between atoms: O_10  and  C_11 
REMARK    3  A    between atoms: C_11  and  C_12 
REMARK    4  A    between atoms: C_15  and  C_16 
REMARK       I    between atoms: C_16  and  N_17 
REMARK    5  A    between atoms: N_17  and  N_18 
REMARK    6  A    between atoms: C_19  and  N_20 
REMARK    7  A    between atoms: C_21  and  C_22 
ROOT
HETATM    1  C   UNL     1     -43.948  58.024 -51.686  1.00  0.00     0.270 C 
HETATM    2  N   UNL     1     -42.617  58.211 -52.017  1.00  0.00    -0.262 N 
HETATM    3  O   UNL     1     -44.412  57.005 -51.180  1.00  0.00    -0.266 OA
HETATM    4  H   UNL     1     -42.263  59.027 -52.507  1.00  0.00     0.190 HD
ENDROOT
BRANCH   2   5
HETATM    5  N   UNL     1     -41.647  57.254 -51.685  1.00  0.00    -0.270 N 
HETATM    6  C   UNL     1     -41.504  56.101 -52.456  1.00  0.00     0.113 C 
HETATM    7  C   UNL     1     -41.000  55.067 -51.751  1.00  0.00     0.097 C 
HETATM    8  C   UNL     1     -40.873  55.560 -50.358  1.00  0.00     0.186 C 
HETATM    9  O   UNL     1     -40.450  54.874 -49.435  1.00  0.00    -0.290 OA
HETATM   10  C   UNL     1     -41.369  56.988 -50.266  1.00  0.00     0.234 C 
BRANCH   6  11
HETATM   11  N   UNL     1     -41.853  56.082 -53.788  1.00  0.00    -0.286 NA
HETATM   12  H   UNL     1     -41.036  55.869 -54.354  1.00  0.00     0.125 HD
HETATM   13  H   UNL     1     -42.596  55.391 -53.954  1.00  0.00     0.125 HD
ENDBRANCH   6  11
BRANCH   7  14
HETATM   14  C   UNL     1     -40.680  53.785 -52.229  1.00  0.00     0.146 A 
HETATM   15  N   UNL     1     -40.671  53.298 -53.458  1.00  0.00    -0.228 NA
HETATM   16  C   UNL     1     -40.249  51.994 -53.341  1.00  0.00     0.086 A 
HETATM   17  C   UNL     1     -39.988  51.674 -52.014  1.00  0.00     0.062 A 
HETATM   18  C   UNL     1     -40.060  51.017 -54.329  1.00  0.00     0.034 A 
HETATM   19  N   UNL     1     -40.272  52.826 -51.329  1.00  0.00    -0.338 N 
HETATM   20  C   UNL     1     -39.535  50.421 -51.598  1.00  0.00     0.032 A 
HETATM   21  H   UNL     1     -40.190  52.966 -50.328  1.00  0.00     0.167 HD
HETATM   22  C   UNL     1     -39.349  49.459 -52.599  1.00  0.00     0.002 A 
HETATM   23  C   UNL     1     -39.607  49.749 -53.941  1.00  0.00     0.002 A 
ENDBRANCH   7  14
ENDBRANCH   2   5
BRANCH   1  24
HETATM   24  C   UNL     1     -44.858  59.142 -52.045  1.00  0.00     0.033 A 
HETATM   25  C   UNL     1     -44.836  59.616 -53.362  1.00  0.00     0.017 A 
HETATM   26  C   UNL     1     -45.672  60.668 -53.741  1.00  0.00     0.010 A 
HETATM   27  C   UNL     1     -46.548  61.252 -52.814  1.00  0.00    -0.034 A 
HETATM   28  C   UNL     1     -46.587  60.750 -51.505  1.00  0.00     0.010 A 
HETATM   29  C   UNL     1     -45.745  59.702 -51.119  1.00  0.00     0.017 A 
BRANCH  27  30
HETATM   30  C   UNL     1     -47.452  62.384 -53.242  1.00  0.00     0.214 C 
BRANCH  30  31
HETATM   31  O   UNL     1     -48.392  62.625 -52.197  1.00  0.00    -0.347 OA
BRANCH  31  32
HETATM   32  C   UNL     1     -49.713  62.677 -52.547  1.00  0.00     0.070 A 
HETATM   33  C   UNL     1     -50.734  63.273 -51.811  1.00  0.00     0.037 A 
HETATM   34  C   UNL     1     -52.048  63.260 -52.294  1.00  0.00     0.015 A 
HETATM   35  C   UNL     1     -52.361  62.647 -53.517  1.00  0.00    -0.026 A 
HETATM   36  C   UNL     1     -53.674  62.628 -54.014  1.00  0.00     0.012 A 
HETATM   37  C   UNL     1     -51.330  62.036 -54.263  1.00  0.00    -0.023 A 
HETATM   38  C   UNL     1     -53.968  62.012 -55.231  1.00  0.00     0.001 A 
HETATM   39  C   UNL     1     -52.953  61.407 -55.966  1.00  0.00     0.001 A 
HETATM   40  C   UNL     1     -51.641  61.419 -55.486  1.00  0.00     0.012 A 
HETATM   41  C   UNL     1     -50.017  62.059 -53.764  1.00  0.00     0.049 A 
ENDBRANCH  31  32
ENDBRANCH  30  31
ENDBRANCH  27  30
ENDBRANCH   1  24
TORSDOF 7
ENDMDL
MODEL 8
REMARK VINA RESULT:      -9.3      3.129     10.711
REMARK  7 active torsions:
REMARK  status: ('A' for Active; 'I' for Inactive)
REMARK    1  A    between atoms: C_9  and  O_10 
REMARK    2  A    between atoms: O_10  and  C_11 
REMARK    3  A    between atoms: C_11  and  C_12 
REMARK    4  A    between atoms: C_15  and  C_16 
REMARK       I    between atoms: C_16  and  N_17 
REMARK    5  A    between atoms: N_17  and  N_18 
REMARK    6  A    between atoms: C_19  and  N_20 
REMARK    7  A    between atoms: C_21  and  C_22 
ROOT
HETATM    1  C   UNL     1     -41.860  59.267 -54.946  1.00  0.00     0.270 C 
HETATM    2  N   UNL     1     -42.136  57.919 -54.792  1.00  0.00    -0.262 N 
HETATM    3  O   UNL     1     -41.124  59.924 -54.215  1.00  0.00    -0.266 OA
HETATM    4  H   UNL     1     -42.809  57.409 -55.358  1.00  0.00     0.190 HD
ENDROOT
BRANCH   2   5
HETATM    5  N   UNL     1     -41.482  57.153 -53.816  1.00  0.00    -0.270 N 
HETATM    6  C   UNL     1     -41.138  55.827 -54.077  1.00  0.00     0.113 C 
HETATM    7  C   UNL     1     -41.068  55.081 -52.955  1.00  0.00     0.097 C 
HETATM    8  C   UNL     1     -41.486  55.981 -51.853  1.00  0.00     0.186 C 
HETATM    9  O   UNL     1     -41.548  55.629 -50.681  1.00  0.00    -0.290 OA
HETATM   10  C   UNL     1     -41.843  57.346 -52.405  1.00  0.00     0.234 C 
BRANCH   6  11
HETATM   11  N   UNL     1     -40.903  55.388 -55.361  1.00  0.00    -0.286 NA
HETATM   12  H   UNL     1     -40.820  56.185 -55.987  1.00  0.00     0.125 HD
HETATM   13  H   UNL     1     -40.051  54.814 -55.393  1.00  0.00     0.125 HD
ENDBRANCH   6  11
BRANCH   7  14
HETATM   14  C   UNL     1     -40.697  53.730 -52.853  1.00  0.00     0.146 A 
HETATM   15  N   UNL     1     -40.449  52.828 -53.787  1.00  0.00    -0.228 NA
HETATM   16  C   UNL     1     -40.103  51.679 -53.115  1.00  0.00     0.086 A 
HETATM   17  C   UNL     1     -40.131  51.880 -51.740  1.00  0.00     0.062 A 
HETATM   18  C   UNL     1     -39.744  50.418 -53.613  1.00  0.00     0.034 A 
HETATM   19  N   UNL     1     -40.515  53.188 -51.600  1.00  0.00    -0.338 N 
HETATM   20  C   UNL     1     -39.814  50.889 -50.809  1.00  0.00     0.032 A 
HETATM   21  H   UNL     1     -40.636  53.688 -50.726  1.00  0.00     0.167 HD
HETATM   22  C   UNL     1     -39.456  49.637 -51.325  1.00  0.00     0.002 A 
HETATM   23  C   UNL     1     -39.421  49.403 -52.702  1.00  0.00     0.002 A 
ENDBRANCH   7  14
ENDBRANCH   2   5
BRANCH   1  24
HETATM   24  C   UNL     1     -42.581  59.943 -56.055  1.00  0.00     0.033 A 
HETATM   25  C   UNL     1     -41.829  60.464 -57.114  1.00  0.00     0.017 A 
HETATM   26  C   UNL     1     -42.466  61.110 -58.175  1.00  0.00     0.010 A 
HETATM   27  C   UNL     1     -43.863  61.235 -58.197  1.00  0.00    -0.034 A 
HETATM   28  C   UNL     1     -44.613  60.681 -57.149  1.00  0.00     0.010 A 
HETATM   29  C   UNL     1     -43.978  60.041 -56.080  1.00  0.00     0.017 A 
BRANCH  27  30
HETATM   30  C   UNL     1     -44.539  61.930 -59.356  1.00  0.00     0.214 C 
BRANCH  30  31
HETATM   31  O   UNL     1     -44.407  61.105 -60.511  1.00  0.00    -0.347 OA
BRANCH  31  32
HETATM   32  C   UNL     1     -44.957  59.854 -60.449  1.00  0.00     0.070 A 
HETATM   33  C   UNL     1     -46.315  59.550 -60.503  1.00  0.00     0.037 A 
HETATM   34  C   UNL     1     -46.741  58.218 -60.437  1.00  0.00     0.015 A 
HETATM   35  C   UNL     1     -45.815  57.171 -60.311  1.00  0.00    -0.026 A 
HETATM   36  C   UNL     1     -46.228  55.831 -60.244  1.00  0.00     0.012 A 
HETATM   37  C   UNL     1     -44.438  57.475 -60.248  1.00  0.00    -0.023 A 
HETATM   38  C   UNL     1     -45.294  54.802 -60.117  1.00  0.00     0.001 A 
HETATM   39  C   UNL     1     -43.936  55.100 -60.053  1.00  0.00     0.001 A 
HETATM   40  C   UNL     1     -43.510  56.428 -60.119  1.00  0.00     0.012 A 
HETATM   41  C   UNL     1     -44.028  58.817 -60.318  1.00  0.00     0.049 A 
ENDBRANCH  31  32
ENDBRANCH  30  31
ENDBRANCH  27  30
ENDBRANCH   1  24
TORSDOF 7
ENDMDL
MODEL 9
REMARK VINA RESULT:      -9.1      2.897      4.172
REMARK  7 active torsions:
REMARK  status: ('A' for Active; 'I' for Inactive)
REMARK    1  A    between atoms: C_9  and  O_10 
REMARK    2  A    between atoms: O_10  and  C_11 
REMARK    3  A    between atoms: C_11  and  C_12 
REMARK    4  A    between atoms: C_15  and  C_16 
REMARK       I    between atoms: C_16  and  N_17 
REMARK    5  A    between atoms: N_17  and  N_18 
REMARK    6  A    between atoms: C_19  and  N_20 
REMARK    7  A    between atoms: C_21  and  C_22 
ROOT
HETATM    1  C   UNL     1     -44.271  57.435 -51.710  1.00  0.00     0.270 C 
HETATM    2  N   UNL     1     -43.914  57.997 -52.924  1.00  0.00    -0.262 N 
HETATM    3  O   UNL     1     -45.334  57.634 -51.127  1.00  0.00    -0.266 OA
HETATM    4  H   UNL     1     -43.000  57.885 -53.354  1.00  0.00     0.190 HD
ENDROOT
BRANCH   2   5
HETATM    5  N   UNL     1     -44.820  58.779 -53.654  1.00  0.00    -0.270 N 
HETATM    6  C   UNL     1     -45.263  58.357 -54.907  1.00  0.00     0.113 C 
HETATM    7  C   UNL     1     -45.624  59.385 -55.702  1.00  0.00     0.097 C 
HETATM    8  C   UNL     1     -45.313  60.612 -54.929  1.00  0.00     0.186 C 
HETATM    9  O   UNL     1     -45.508  61.745 -55.353  1.00  0.00    -0.290 OA
HETATM   10  C   UNL     1     -44.704  60.243 -53.592  1.00  0.00     0.234 C 
BRANCH   6  11
HETATM   11  N   UNL     1     -45.309  57.020 -55.237  1.00  0.00    -0.286 NA
HETATM   12  H   UNL     1     -44.861  56.874 -56.138  1.00  0.00     0.125 HD
HETATM   13  H   UNL     1     -44.849  56.456 -54.510  1.00  0.00     0.125 HD
ENDBRANCH   6  11
BRANCH   7  14
HETATM   14  C   UNL     1     -46.164  59.312 -56.997  1.00  0.00     0.146 A 
HETATM   15  N   UNL     1     -45.889  58.501 -58.004  1.00  0.00    -0.228 NA
HETATM   16  C   UNL     1     -46.741  58.865 -59.021  1.00  0.00     0.086 A 
HETATM   17  C   UNL     1     -47.561  59.916 -58.629  1.00  0.00     0.062 A 
HETATM   18  C   UNL     1     -46.877  58.337 -60.313  1.00  0.00     0.034 A 
HETATM   19  N   UNL     1     -47.172  60.184 -57.343  1.00  0.00    -0.338 N 
HETATM   20  C   UNL     1     -48.532  60.485 -59.455  1.00  0.00     0.032 A 
HETATM   21  H   UNL     1     -47.562  60.894 -56.733  1.00  0.00     0.167 HD
HETATM   22  C   UNL     1     -48.655  59.943 -60.741  1.00  0.00     0.002 A 
HETATM   23  C   UNL     1     -47.843  58.888 -61.165  1.00  0.00     0.002 A 
ENDBRANCH   7  14
ENDBRANCH   2   5
BRANCH   1  24
HETATM   24  C   UNL     1     -43.235  56.583 -51.072  1.00  0.00     0.033 A 
HETATM   25  C   UNL     1     -41.930  57.081 -50.984  1.00  0.00     0.017 A 
HETATM   26  C   UNL     1     -40.925  56.312 -50.395  1.00  0.00     0.010 A 
HETATM   27  C   UNL     1     -41.211  55.040 -49.878  1.00  0.00    -0.034 A 
HETATM   28  C   UNL     1     -42.528  54.560 -49.941  1.00  0.00     0.010 A 
HETATM   29  C   UNL     1     -43.536  55.324 -50.538  1.00  0.00     0.017 A 
BRANCH  27  30
HETATM   30  C   UNL     1     -40.114  54.223 -49.237  1.00  0.00     0.214 C 
BRANCH  30  31
HETATM   31  O   UNL     1     -40.610  52.905 -49.016  1.00  0.00    -0.347 OA
BRANCH  31  32
HETATM   32  C   UNL     1     -40.347  51.970 -49.979  1.00  0.00     0.070 A 
HETATM   33  C   UNL     1     -40.194  50.601 -49.775  1.00  0.00     0.037 A 
HETATM   34  C   UNL     1     -39.935  49.753 -50.858  1.00  0.00     0.015 A 
HETATM   35  C   UNL     1     -39.820  50.262 -52.161  1.00  0.00    -0.026 A 
HETATM   36  C   UNL     1     -39.561  49.423 -53.257  1.00  0.00     0.012 A 
HETATM   37  C   UNL     1     -39.967  51.650 -52.372  1.00  0.00    -0.023 A 
HETATM   38  C   UNL     1     -39.448  49.947 -54.546  1.00  0.00     0.001 A 
HETATM   39  C   UNL     1     -39.591  51.315 -54.754  1.00  0.00     0.001 A 
HETATM   40  C   UNL     1     -39.850  52.162 -53.675  1.00  0.00     0.012 A 
HETATM   41  C   UNL     1     -40.229  52.486 -51.273  1.00  0.00     0.049 A 
ENDBRANCH  31  32
ENDBRANCH  30  31
ENDBRANCH  27  30
ENDBRANCH   1  24
TORSDOF 7
ENDMDL
MODEL 10
REMARK VINA RESULT:      -8.9      4.795      5.614
REMARK  7 active torsions:
REMARK  status: ('A' for Active; 'I' for Inactive)
REMARK    1  A    between atoms: C_9  and  O_10 
REMARK    2  A    between atoms: O_10  and  C_11 
REMARK    3  A    between atoms: C_11  and  C_12 
REMARK    4  A    between atoms: C_15  and  C_16 
REMARK       I    between atoms: C_16  and  N_17 
REMARK    5  A    between atoms: N_17  and  N_18 
REMARK    6  A    between atoms: C_19  and  N_20 
REMARK    7  A    between atoms: C_21  and  C_22 
ROOT
HETATM    1  C   UNL     1     -43.593  57.883 -52.608  1.00  0.00     0.270 C 
HETATM    2  N   UNL     1     -42.708  58.794 -53.158  1.00  0.00    -0.262 N 
HETATM    3  O   UNL     1     -44.800  57.846 -52.835  1.00  0.00    -0.266 OA
HETATM    4  H   UNL     1     -41.728  58.861 -52.898  1.00  0.00     0.190 HD
ENDROOT
BRANCH   2   5
HETATM    5  N   UNL     1     -43.125  59.707 -54.137  1.00  0.00    -0.270 N 
HETATM    6  C   UNL     1     -42.597  59.646 -55.426  1.00  0.00     0.113 C 
HETATM    7  C   UNL     1     -42.617  60.841 -56.051  1.00  0.00     0.097 C 
HETATM    8  C   UNL     1     -43.134  61.804 -55.048  1.00  0.00     0.186 C 
HETATM    9  O   UNL     1     -43.280  63.000 -55.273  1.00  0.00    -0.290 OA
HETATM   10  C   UNL     1     -43.408  61.093 -53.739  1.00  0.00     0.234 C 
BRANCH   6  11
HETATM   11  N   UNL     1     -42.125  58.463 -55.951  1.00  0.00    -0.286 NA
HETATM   12  H   UNL     1     -42.812  57.727 -55.812  1.00  0.00     0.125 HD
HETATM   13  H   UNL     1     -41.913  58.574 -56.951  1.00  0.00     0.125 HD
ENDBRANCH   6  11
BRANCH   7  14
HETATM   14  C   UNL     1     -42.215  61.121 -57.368  1.00  0.00     0.146 A 
HETATM   15  N   UNL     1     -42.448  60.477 -58.498  1.00  0.00    -0.228 NA
HETATM   16  C   UNL     1     -41.837  61.217 -59.483  1.00  0.00     0.086 A 
HETATM   17  C   UNL     1     -41.222  62.343 -58.949  1.00  0.00     0.062 A 
HETATM   18  C   UNL     1     -41.767  60.992 -60.866  1.00  0.00     0.034 A 
HETATM   19  N   UNL     1     -41.474  62.257 -57.605  1.00  0.00    -0.338 N 
HETATM   20  C   UNL     1     -40.533  63.283 -59.718  1.00  0.00     0.032 A 
HETATM   21  H   UNL     1     -41.179  62.918 -56.895  1.00  0.00     0.167 HD
HETATM   22  C   UNL     1     -40.477  63.043 -61.097  1.00  0.00     0.002 A 
HETATM   23  C   UNL     1     -41.081  61.918 -61.663  1.00  0.00     0.002 A 
ENDBRANCH   7  14
ENDBRANCH   2   5
BRANCH   1  24
HETATM   24  C   UNL     1     -43.005  56.937 -51.624  1.00  0.00     0.033 A 
HETATM   25  C   UNL     1     -43.647  55.710 -51.420  1.00  0.00     0.017 A 
HETATM   26  C   UNL     1     -43.130  54.793 -50.503  1.00  0.00     0.010 A 
HETATM   27  C   UNL     1     -41.961  55.085 -49.786  1.00  0.00    -0.034 A 
HETATM   28  C   UNL     1     -41.305  56.303 -50.019  1.00  0.00     0.010 A 
HETATM   29  C   UNL     1     -41.824  57.227 -50.931  1.00  0.00     0.017 A 
BRANCH  27  30
HETATM   30  C   UNL     1     -41.409  54.079 -48.802  1.00  0.00     0.214 C 
BRANCH  30  31
HETATM   31  O   UNL     1     -40.114  53.683 -49.246  1.00  0.00    -0.347 OA
BRANCH  31  32
HETATM   32  C   UNL     1     -40.043  52.591 -50.066  1.00  0.00     0.070 A 
HETATM   33  C   UNL     1     -40.088  51.258 -49.665  1.00  0.00     0.037 A 
HETATM   34  C   UNL     1     -40.014  50.234 -50.616  1.00  0.00     0.015 A 
HETATM   35  C   UNL     1     -39.889  50.527 -51.982  1.00  0.00    -0.026 A 
HETATM   36  C   UNL     1     -39.814  49.510 -52.947  1.00  0.00     0.012 A 
HETATM   37  C   UNL     1     -39.835  51.877 -52.394  1.00  0.00    -0.023 A 
HETATM   38  C   UNL     1     -39.687  49.820 -54.302  1.00  0.00     0.001 A 
HETATM   39  C   UNL     1     -39.633  51.150 -54.708  1.00  0.00     0.001 A 
HETATM   40  C   UNL     1     -39.707  52.173 -53.761  1.00  0.00     0.012 A 
HETATM   41  C   UNL     1     -39.913  52.892 -51.425  1.00  0.00     0.049 A 
ENDBRANCH  31  32
ENDBRANCH  30  31
ENDBRANCH  27  30
ENDBRANCH   1  24
TORSDOF 7
ENDMDL
