MODEL 1
REMARK VINA RESULT:      -8.9      0.000      0.000
REMARK  2 active torsions:
REMARK  status: ('A' for Active; 'I' for Inactive)
REMARK    1  A    between atoms: C_5  and  C_7 
REMARK    2  A    between atoms: C_5  and  O_6 
ROOT
HETATM    1  C   UNL     1     -42.741  59.995 -50.614  1.00  0.00     0.050 C 
HETATM    2  C   UNL     1     -42.142  58.934 -51.484  1.00  0.00    -0.035 A 
HETATM    3  C   UNL     1     -42.531  57.605 -51.460  1.00  0.00     0.051 A 
HETATM    4  C   UNL     1     -41.952  56.636 -52.292  1.00  0.00     0.018 A 
HETATM    5  C   UNL     1     -42.637  55.301 -52.072  1.00  0.00     0.199 A 
HETATM    6  C   UNL     1     -43.631  55.650 -50.912  1.00  0.00     0.266 A 
HETATM    7  O   UNL     1     -44.430  54.921 -50.344  1.00  0.00    -0.269 OA
HETATM    8  N   UNL     1     -43.507  57.018 -50.663  1.00  0.00    -0.323 N 
HETATM    9  C   UNL     1     -40.957  56.982 -53.192  1.00  0.00     0.013 A 
HETATM   10  C   UNL     1     -40.539  58.312 -53.233  1.00  0.00     0.001 A 
HETATM   11  C   UNL     1     -41.124  59.275 -52.390  1.00  0.00     0.009 A 
HETATM   12  H   UNL     1     -44.066  57.483 -49.965  1.00  0.00     0.169 HD
ENDROOT
BRANCH   5  13
HETATM   13  C   UNL     1     -41.577  54.295 -51.685  1.00  0.00     0.025 A 
HETATM   14  C   UNL     1     -40.998  53.258 -52.514  1.00  0.00     0.003 A 
HETATM   15  C   UNL     1     -40.048  52.582 -51.749  1.00  0.00     0.043 A 
HETATM   16  C   UNL     1     -41.187  52.827 -53.847  1.00  0.00     0.014 A 
HETATM   17  C   UNL     1     -39.284  51.515 -52.238  1.00  0.00     0.030 A 
HETATM   18  N   UNL     1     -40.037  53.167 -50.509  1.00  0.00    -0.359 N 
HETATM   19  C   UNL     1     -39.493  51.117 -53.559  1.00  0.00     0.002 A 
HETATM   20  C   UNL     1     -40.432  51.762 -54.355  1.00  0.00     0.001 A 
HETATM   21  H   UNL     1     -39.429  52.882 -49.753  1.00  0.00     0.166 HD
HETATM   22  C   UNL     1     -40.947  54.188 -50.444  1.00  0.00     0.016 A 
HETATM   23  C   UNL     1     -41.106  54.980 -49.193  1.00  0.00     0.069 C 
ENDBRANCH   5  13
BRANCH   5  24
HETATM   24  O   UNL     1     -43.353  54.959 -53.258  1.00  0.00    -0.371 OA
HETATM   25  H   UNL     1     -43.170  54.022 -53.430  1.00  0.00     0.212 HD
ENDBRANCH   5  24
TORSDOF 2
ENDMDL
MODEL 2
REMARK VINA RESULT:      -8.6      1.492      2.407
REMARK  2 active torsions:
REMARK  status: ('A' for Active; 'I' for Inactive)
REMARK    1  A    between atoms: C_5  and  C_7 
REMARK    2  A    between atoms: C_5  and  O_6 
ROOT
HETATM    1  C   UNL     1     -40.986  59.154 -49.812  1.00  0.00     0.050 C 
HETATM    2  C   UNL     1     -41.170  58.550 -51.169  1.00  0.00    -0.035 A 
HETATM    3  C   UNL     1     -41.911  57.405 -51.411  1.00  0.00     0.051 A 
HETATM    4  C   UNL     1     -42.068  56.867 -52.696  1.00  0.00     0.018 A 
HETATM    5  C   UNL     1     -42.981  55.659 -52.635  1.00  0.00     0.199 A 
HETATM    6  C   UNL     1     -43.240  55.543 -51.094  1.00  0.00     0.266 A 
HETATM    7  O   UNL     1     -43.916  54.724 -50.490  1.00  0.00    -0.269 OA
HETATM    8  N   UNL     1     -42.599  56.626 -50.488  1.00  0.00    -0.323 N 
HETATM    9  C   UNL     1     -41.481  57.479 -53.793  1.00  0.00     0.013 A 
HETATM   10  C   UNL     1     -40.722  58.629 -53.579  1.00  0.00     0.001 A 
HETATM   11  C   UNL     1     -40.569  59.157 -52.284  1.00  0.00     0.009 A 
HETATM   12  H   UNL     1     -42.640  56.778 -49.492  1.00  0.00     0.169 HD
ENDROOT
BRANCH   5  13
HETATM   13  C   UNL     1     -42.233  54.482 -53.218  1.00  0.00     0.025 A 
HETATM   14  C   UNL     1     -41.249  53.647 -52.561  1.00  0.00     0.003 A 
HETATM   15  C   UNL     1     -40.840  52.674 -53.472  1.00  0.00     0.043 A 
HETATM   16  C   UNL     1     -40.664  53.621 -51.274  1.00  0.00     0.014 A 
HETATM   17  C   UNL     1     -39.893  51.686 -53.170  1.00  0.00     0.030 A 
HETATM   18  N   UNL     1     -41.532  52.891 -54.635  1.00  0.00    -0.359 N 
HETATM   19  C   UNL     1     -39.338  51.688 -51.890  1.00  0.00     0.002 A 
HETATM   20  C   UNL     1     -39.716  52.642 -50.953  1.00  0.00     0.001 A 
HETATM   21  H   UNL     1     -41.440  52.321 -55.464  1.00  0.00     0.166 HD
HETATM   22  C   UNL     1     -42.367  53.971 -54.510  1.00  0.00     0.016 A 
HETATM   23  C   UNL     1     -43.230  54.393 -55.647  1.00  0.00     0.069 C 
ENDBRANCH   5  13
BRANCH   5  24
HETATM   24  O   UNL     1     -44.192  55.973 -53.321  1.00  0.00    -0.371 OA
HETATM   25  H   UNL     1     -44.889  55.435 -52.912  1.00  0.00     0.212 HD
ENDBRANCH   5  24
TORSDOF 2
ENDMDL
MODEL 3
REMARK VINA RESULT:      -7.9      1.659      2.749
REMARK  2 active torsions:
REMARK  status: ('A' for Active; 'I' for Inactive)
REMARK    1  A    between atoms: C_5  and  C_7 
REMARK    2  A    between atoms: C_5  and  O_6 
ROOT
HETATM    1  C   UNL     1     -42.565  60.876 -50.945  1.00  0.00     0.050 C 
HETATM    2  C   UNL     1     -42.443  59.859 -52.037  1.00  0.00    -0.035 A 
HETATM    3  C   UNL     1     -42.990  58.588 -51.973  1.00  0.00     0.051 A 
HETATM    4  C   UNL     1     -42.862  57.660 -53.016  1.00  0.00     0.018 A 
HETATM    5  C   UNL     1     -43.622  56.395 -52.670  1.00  0.00     0.199 A 
HETATM    6  C   UNL     1     -44.122  56.721 -51.221  1.00  0.00     0.266 A 
HETATM    7  O   UNL     1     -44.788  56.028 -50.467  1.00  0.00    -0.269 OA
HETATM    8  N   UNL     1     -43.727  58.029 -50.935  1.00  0.00    -0.323 N 
HETATM    9  C   UNL     1     -42.176  57.991 -54.175  1.00  0.00     0.013 A 
HETATM   10  C   UNL     1     -41.606  59.261 -54.263  1.00  0.00     0.001 A 
HETATM   11  C   UNL     1     -41.739  60.182 -53.208  1.00  0.00     0.009 A 
HETATM   12  H   UNL     1     -43.954  58.473 -50.059  1.00  0.00     0.169 HD
ENDROOT
BRANCH   5  13
HETATM   13  C   UNL     1     -42.651  55.238 -52.735  1.00  0.00     0.025 A 
HETATM   14  C   UNL     1     -41.671  54.851 -51.741  1.00  0.00     0.003 A 
HETATM   15  C   UNL     1     -41.012  53.716 -52.213  1.00  0.00     0.043 A 
HETATM   16  C   UNL     1     -41.279  55.354 -50.480  1.00  0.00     0.014 A 
HETATM   17  C   UNL     1     -39.998  53.063 -51.501  1.00  0.00     0.030 A 
HETATM   18  N   UNL     1     -41.553  53.414 -53.436  1.00  0.00    -0.359 N 
HETATM   19  C   UNL     1     -39.637  53.584 -50.258  1.00  0.00     0.002 A 
HETATM   20  C   UNL     1     -40.267  54.715 -49.752  1.00  0.00     0.001 A 
HETATM   21  H   UNL     1     -41.269  52.625 -54.002  1.00  0.00     0.166 HD
HETATM   22  C   UNL     1     -42.530  54.313 -53.772  1.00  0.00     0.016 A 
HETATM   23  C   UNL     1     -43.269  54.180 -55.058  1.00  0.00     0.069 C 
ENDBRANCH   5  13
BRANCH   5  24
HETATM   24  O   UNL     1     -44.728  56.273 -53.564  1.00  0.00    -0.371 OA
HETATM   25  H   UNL     1     -45.331  57.005 -53.358  1.00  0.00     0.212 HD
ENDBRANCH   5  24
TORSDOF 2
ENDMDL
MODEL 4
REMARK VINA RESULT:      -7.8      1.820      5.775
REMARK  2 active torsions:
REMARK  status: ('A' for Active; 'I' for Inactive)
REMARK    1  A    between atoms: C_5  and  C_7 
REMARK    2  A    between atoms: C_5  and  O_6 
ROOT
HETATM    1  C   UNL     1     -39.891  51.595 -52.944  1.00  0.00     0.050 C 
HETATM    2  C   UNL     1     -40.282  53.028 -53.126  1.00  0.00    -0.035 A 
HETATM    3  C   UNL     1     -40.671  53.860 -52.089  1.00  0.00     0.051 A 
HETATM    4  C   UNL     1     -41.026  55.201 -52.293  1.00  0.00     0.018 A 
HETATM    5  C   UNL     1     -41.337  55.854 -50.961  1.00  0.00     0.199 A 
HETATM    6  C   UNL     1     -41.193  54.641 -49.980  1.00  0.00     0.266 A 
HETATM    7  O   UNL     1     -41.343  54.615 -48.768  1.00  0.00    -0.269 OA
HETATM    8  N   UNL     1     -40.771  53.548 -50.739  1.00  0.00    -0.323 N 
HETATM    9  C   UNL     1     -40.993  55.754 -53.564  1.00  0.00     0.013 A 
HETATM   10  C   UNL     1     -40.614  54.937 -54.629  1.00  0.00     0.001 A 
HETATM   11  C   UNL     1     -40.262  53.593 -54.412  1.00  0.00     0.009 A 
HETATM   12  H   UNL     1     -40.588  52.650 -50.319  1.00  0.00     0.169 HD
ENDROOT
BRANCH   5  13
HETATM   13  C   UNL     1     -42.739  56.415 -51.036  1.00  0.00     0.025 A 
HETATM   14  C   UNL     1     -43.130  57.787 -51.289  1.00  0.00     0.003 A 
HETATM   15  C   UNL     1     -44.524  57.839 -51.286  1.00  0.00     0.043 A 
HETATM   16  C   UNL     1     -42.433  58.994 -51.523  1.00  0.00     0.014 A 
HETATM   17  C   UNL     1     -45.249  59.017 -51.505  1.00  0.00     0.030 A 
HETATM   18  N   UNL     1     -44.976  56.569 -51.043  1.00  0.00    -0.359 N 
HETATM   19  C   UNL     1     -44.531  60.190 -51.737  1.00  0.00     0.002 A 
HETATM   20  C   UNL     1     -43.141  60.182 -51.746  1.00  0.00     0.001 A 
HETATM   21  H   UNL     1     -45.953  56.313 -50.999  1.00  0.00     0.166 HD
HETATM   22  C   UNL     1     -43.929  55.700 -50.883  1.00  0.00     0.016 A 
HETATM   23  C   UNL     1     -44.177  54.256 -50.619  1.00  0.00     0.069 C 
ENDBRANCH   5  13
BRANCH   5  24
HETATM   24  O   UNL     1     -40.336  56.835 -50.694  1.00  0.00    -0.371 OA
HETATM   25  H   UNL     1     -40.210  57.333 -51.517  1.00  0.00     0.212 HD
ENDBRANCH   5  24
TORSDOF 2
ENDMDL
MODEL 5
REMARK VINA RESULT:      -7.8      1.776      6.037
REMARK  2 active torsions:
REMARK  status: ('A' for Active; 'I' for Inactive)
REMARK    1  A    between atoms: C_5  and  C_7 
REMARK    2  A    between atoms: C_5  and  O_6 
ROOT
HETATM    1  C   UNL     1     -39.478  51.069 -53.876  1.00  0.00     0.050 C 
HETATM    2  C   UNL     1     -40.075  52.077 -52.945  1.00  0.00    -0.035 A 
HETATM    3  C   UNL     1     -41.115  52.925 -53.289  1.00  0.00     0.051 A 
HETATM    4  C   UNL     1     -41.656  53.856 -52.390  1.00  0.00     0.018 A 
HETATM    5  C   UNL     1     -42.815  54.581 -53.043  1.00  0.00     0.199 A 
HETATM    6  C   UNL     1     -42.784  53.977 -54.489  1.00  0.00     0.266 A 
HETATM    7  O   UNL     1     -43.513  54.224 -55.438  1.00  0.00    -0.269 OA
HETATM    8  N   UNL     1     -41.782  53.005 -54.506  1.00  0.00    -0.323 N 
HETATM    9  C   UNL     1     -41.163  53.958 -51.098  1.00  0.00     0.013 A 
HETATM   10  C   UNL     1     -40.109  53.123 -50.727  1.00  0.00     0.001 A 
HETATM   11  C   UNL     1     -39.573  52.195 -51.638  1.00  0.00     0.009 A 
HETATM   12  H   UNL     1     -41.585  52.459 -55.330  1.00  0.00     0.169 HD
ENDROOT
BRANCH   5  13
HETATM   13  C   UNL     1     -42.523  56.063 -52.995  1.00  0.00     0.025 A 
HETATM   14  C   UNL     1     -43.258  57.086 -52.280  1.00  0.00     0.003 A 
HETATM   15  C   UNL     1     -42.619  58.305 -52.506  1.00  0.00     0.043 A 
HETATM   16  C   UNL     1     -44.407  57.096 -51.457  1.00  0.00     0.014 A 
HETATM   17  C   UNL     1     -43.058  59.517 -51.958  1.00  0.00     0.030 A 
HETATM   18  N   UNL     1     -41.544  58.055 -53.319  1.00  0.00    -0.359 N 
HETATM   19  C   UNL     1     -44.194  59.491 -51.148  1.00  0.00     0.002 A 
HETATM   20  C   UNL     1     -44.861  58.298 -50.899  1.00  0.00     0.001 A 
HETATM   21  H   UNL     1     -40.894  58.762 -53.633  1.00  0.00     0.166 HD
HETATM   22  C   UNL     1     -41.469  56.723 -53.631  1.00  0.00     0.016 A 
HETATM   23  C   UNL     1     -40.373  56.210 -54.497  1.00  0.00     0.069 C 
ENDBRANCH   5  13
BRANCH   5  24
HETATM   24  O   UNL     1     -44.018  54.207 -52.373  1.00  0.00    -0.371 OA
HETATM   25  H   UNL     1     -44.457  53.551 -52.938  1.00  0.00     0.212 HD
ENDBRANCH   5  24
TORSDOF 2
ENDMDL
MODEL 6
REMARK VINA RESULT:      -7.7     15.212     16.946
REMARK  2 active torsions:
REMARK  status: ('A' for Active; 'I' for Inactive)
REMARK    1  A    between atoms: C_5  and  C_7 
REMARK    2  A    between atoms: C_5  and  O_6 
ROOT
HETATM    1  C   UNL     1     -31.971  39.787 -51.703  1.00  0.00     0.050 C 
HETATM    2  C   UNL     1     -32.312  39.980 -53.148  1.00  0.00    -0.035 A 
HETATM    3  C   UNL     1     -33.459  40.619 -53.592  1.00  0.00     0.051 A 
HETATM    4  C   UNL     1     -33.746  40.788 -54.954  1.00  0.00     0.018 A 
HETATM    5  C   UNL     1     -35.031  41.577 -55.109  1.00  0.00     0.199 A 
HETATM    6  C   UNL     1     -35.475  41.744 -53.616  1.00  0.00     0.266 A 
HETATM    7  O   UNL     1     -36.463  42.307 -53.169  1.00  0.00    -0.269 OA
HETATM    8  N   UNL     1     -34.472  41.181 -52.825  1.00  0.00    -0.323 N 
HETATM    9  C   UNL     1     -32.872  40.320 -55.923  1.00  0.00     0.013 A 
HETATM   10  C   UNL     1     -31.714  39.665 -55.505  1.00  0.00     0.001 A 
HETATM   11  C   UNL     1     -31.438  39.498 -54.136  1.00  0.00     0.009 A 
HETATM   12  H   UNL     1     -34.524  41.186 -51.818  1.00  0.00     0.169 HD
ENDROOT
BRANCH   5  13
HETATM   13  C   UNL     1     -35.986  40.750 -55.940  1.00  0.00     0.025 A 
HETATM   14  C   UNL     1     -36.552  41.084 -57.230  1.00  0.00     0.003 A 
HETATM   15  C   UNL     1     -37.362  40.021 -57.628  1.00  0.00     0.043 A 
HETATM   16  C   UNL     1     -36.455  42.191 -58.104  1.00  0.00     0.014 A 
HETATM   17  C   UNL     1     -38.067  40.002 -58.838  1.00  0.00     0.030 A 
HETATM   18  N   UNL     1     -37.303  39.075 -56.638  1.00  0.00    -0.359 N 
HETATM   19  C   UNL     1     -37.946  41.108 -59.679  1.00  0.00     0.002 A 
HETATM   20  C   UNL     1     -37.152  42.190 -59.319  1.00  0.00     0.001 A 
HETATM   21  H   UNL     1     -37.788  38.189 -56.671  1.00  0.00     0.166 HD
HETATM   22  C   UNL     1     -36.492  39.490 -55.615  1.00  0.00     0.016 A 
HETATM   23  C   UNL     1     -36.267  38.620 -54.428  1.00  0.00     0.069 C 
ENDBRANCH   5  13
BRANCH   5  24
HETATM   24  O   UNL     1     -34.717  42.845 -55.682  1.00  0.00    -0.371 OA
HETATM   25  H   UNL     1     -35.124  42.859 -56.563  1.00  0.00     0.212 HD
ENDBRANCH   5  24
TORSDOF 2
ENDMDL
MODEL 7
REMARK VINA RESULT:      -7.7      2.739      3.441
REMARK  2 active torsions:
REMARK  status: ('A' for Active; 'I' for Inactive)
REMARK    1  A    between atoms: C_5  and  C_7 
REMARK    2  A    between atoms: C_5  and  O_6 
ROOT
HETATM    1  C   UNL     1     -43.003  59.855 -56.381  1.00  0.00     0.050 C 
HETATM    2  C   UNL     1     -43.358  58.890 -55.293  1.00  0.00    -0.035 A 
HETATM    3  C   UNL     1     -42.526  58.588 -54.226  1.00  0.00     0.051 A 
HETATM    4  C   UNL     1     -42.890  57.682 -53.220  1.00  0.00     0.018 A 
HETATM    5  C   UNL     1     -41.799  57.622 -52.170  1.00  0.00     0.199 A 
HETATM    6  C   UNL     1     -40.715  58.567 -52.793  1.00  0.00     0.266 A 
HETATM    7  O   UNL     1     -39.618  58.871 -52.350  1.00  0.00    -0.269 OA
HETATM    8  N   UNL     1     -41.259  59.097 -53.965  1.00  0.00    -0.323 N 
HETATM    9  C   UNL     1     -44.123  57.049 -53.253  1.00  0.00     0.013 A 
HETATM   10  C   UNL     1     -44.977  57.326 -54.320  1.00  0.00     0.001 A 
HETATM   11  C   UNL     1     -44.600  58.235 -55.325  1.00  0.00     0.009 A 
HETATM   12  H   UNL     1     -40.751  59.755 -54.536  1.00  0.00     0.169 HD
ENDROOT
BRANCH   5  13
HETATM   13  C   UNL     1     -41.353  56.182 -52.047  1.00  0.00     0.025 A 
HETATM   14  C   UNL     1     -41.015  55.267 -53.118  1.00  0.00     0.003 A 
HETATM   15  C   UNL     1     -40.642  54.054 -52.539  1.00  0.00     0.043 A 
HETATM   16  C   UNL     1     -40.988  55.351 -54.529  1.00  0.00     0.014 A 
HETATM   17  C   UNL     1     -40.244  52.937 -53.284  1.00  0.00     0.030 A 
HETATM   18  N   UNL     1     -40.742  54.206 -51.181  1.00  0.00    -0.359 N 
HETATM   19  C   UNL     1     -40.225  53.054 -54.674  1.00  0.00     0.002 A 
HETATM   20  C   UNL     1     -40.593  54.245 -55.291  1.00  0.00     0.001 A 
HETATM   21  H   UNL     1     -40.518  53.483 -50.511  1.00  0.00     0.166 HD
HETATM   22  C   UNL     1     -41.172  55.467 -50.862  1.00  0.00     0.016 A 
HETATM   23  C   UNL     1     -41.346  55.869 -49.439  1.00  0.00     0.069 C 
ENDBRANCH   5  13
BRANCH   5  24
HETATM   24  O   UNL     1     -42.306  58.175 -50.957  1.00  0.00    -0.371 OA
HETATM   25  H   UNL     1     -42.231  57.480 -50.284  1.00  0.00     0.212 HD
ENDBRANCH   5  24
TORSDOF 2
ENDMDL
MODEL 8
REMARK VINA RESULT:      -7.6      2.453      3.821
REMARK  2 active torsions:
REMARK  status: ('A' for Active; 'I' for Inactive)
REMARK    1  A    between atoms: C_5  and  C_7 
REMARK    2  A    between atoms: C_5  and  O_6 
ROOT
HETATM    1  C   UNL     1     -44.348  61.376 -51.511  1.00  0.00     0.050 C 
HETATM    2  C   UNL     1     -44.160  59.892 -51.457  1.00  0.00    -0.035 A 
HETATM    3  C   UNL     1     -42.952  59.258 -51.699  1.00  0.00     0.051 A 
HETATM    4  C   UNL     1     -42.807  57.864 -51.635  1.00  0.00     0.018 A 
HETATM    5  C   UNL     1     -41.360  57.490 -51.884  1.00  0.00     0.199 A 
HETATM    6  C   UNL     1     -40.726  58.890 -52.193  1.00  0.00     0.266 A 
HETATM    7  O   UNL     1     -39.568  59.162 -52.469  1.00  0.00    -0.269 OA
HETATM    8  N   UNL     1     -41.733  59.842 -52.023  1.00  0.00    -0.323 N 
HETATM    9  C   UNL     1     -43.888  57.057 -51.314  1.00  0.00     0.013 A 
HETATM   10  C   UNL     1     -45.118  57.667 -51.075  1.00  0.00     0.001 A 
HETATM   11  C   UNL     1     -45.252  59.066 -51.145  1.00  0.00     0.009 A 
HETATM   12  H   UNL     1     -41.559  60.827 -52.147  1.00  0.00     0.169 HD
ENDROOT
BRANCH   5  13
HETATM   13  C   UNL     1     -41.322  56.533 -53.053  1.00  0.00     0.025 A 
HETATM   14  C   UNL     1     -40.984  55.124 -53.031  1.00  0.00     0.003 A 
HETATM   15  C   UNL     1     -41.101  54.639 -54.333  1.00  0.00     0.043 A 
HETATM   16  C   UNL     1     -40.591  54.210 -52.028  1.00  0.00     0.014 A 
HETATM   17  C   UNL     1     -40.853  53.305 -54.682  1.00  0.00     0.030 A 
HETATM   18  N   UNL     1     -41.490  55.689 -55.124  1.00  0.00    -0.359 N 
HETATM   19  C   UNL     1     -40.470  52.428 -53.667  1.00  0.00     0.002 A 
HETATM   20  C   UNL     1     -40.339  52.872 -52.356  1.00  0.00     0.001 A 
HETATM   21  H   UNL     1     -41.662  55.617 -56.117  1.00  0.00     0.166 HD
HETATM   22  C   UNL     1     -41.622  56.833 -54.383  1.00  0.00     0.016 A 
HETATM   23  C   UNL     1     -42.047  58.106 -55.028  1.00  0.00     0.069 C 
ENDBRANCH   5  13
BRANCH   5  24
HETATM   24  O   UNL     1     -40.818  56.953 -50.678  1.00  0.00    -0.371 OA
HETATM   25  H   UNL     1     -41.552  56.518 -50.216  1.00  0.00     0.212 HD
ENDBRANCH   5  24
TORSDOF 2
ENDMDL
MODEL 9
REMARK VINA RESULT:      -7.4      2.220      5.841
REMARK  2 active torsions:
REMARK  status: ('A' for Active; 'I' for Inactive)
REMARK    1  A    between atoms: C_5  and  C_7 
REMARK    2  A    between atoms: C_5  and  O_6 
ROOT
HETATM    1  C   UNL     1     -40.224  53.607 -54.879  1.00  0.00     0.050 C 
HETATM    2  C   UNL     1     -41.188  54.072 -53.832  1.00  0.00    -0.035 A 
HETATM    3  C   UNL     1     -41.887  55.267 -53.902  1.00  0.00     0.051 A 
HETATM    4  C   UNL     1     -42.787  55.671 -52.907  1.00  0.00     0.018 A 
HETATM    5  C   UNL     1     -43.434  56.982 -53.307  1.00  0.00     0.199 A 
HETATM    6  C   UNL     1     -42.683  57.303 -54.645  1.00  0.00     0.266 A 
HETATM    7  O   UNL     1     -42.820  58.263 -55.388  1.00  0.00    -0.269 OA
HETATM    8  N   UNL     1     -41.837  56.224 -54.908  1.00  0.00    -0.323 N 
HETATM    9  C   UNL     1     -43.020  54.871 -51.799  1.00  0.00     0.013 A 
HETATM   10  C   UNL     1     -42.324  53.667 -51.697  1.00  0.00     0.001 A 
HETATM   11  C   UNL     1     -41.420  53.273 -52.701  1.00  0.00     0.009 A 
HETATM   12  H   UNL     1     -41.260  56.192 -55.734  1.00  0.00     0.169 HD
ENDROOT
BRANCH   5  13
HETATM   13  C   UNL     1     -43.171  57.984 -52.205  1.00  0.00     0.025 A 
HETATM   14  C   UNL     1     -41.889  58.491 -51.759  1.00  0.00     0.003 A 
HETATM   15  C   UNL     1     -42.128  59.408 -50.735  1.00  0.00     0.043 A 
HETATM   16  C   UNL     1     -40.544  58.263 -52.129  1.00  0.00     0.014 A 
HETATM   17  C   UNL     1     -41.108  60.101 -50.071  1.00  0.00     0.030 A 
HETATM   18  N   UNL     1     -43.485  59.467 -50.553  1.00  0.00    -0.359 N 
HETATM   19  C   UNL     1     -39.791  59.855 -50.462  1.00  0.00     0.002 A 
HETATM   20  C   UNL     1     -39.511  58.947 -51.477  1.00  0.00     0.001 A 
HETATM   21  H   UNL     1     -43.940  60.065 -49.877  1.00  0.00     0.166 HD
HETATM   22  C   UNL     1     -44.130  58.620 -51.415  1.00  0.00     0.016 A 
HETATM   23  C   UNL     1     -45.615  58.522 -51.408  1.00  0.00     0.069 C 
ENDBRANCH   5  13
BRANCH   5  24
HETATM   24  O   UNL     1     -44.819  56.747 -53.556  1.00  0.00    -0.371 OA
HETATM   25  H   UNL     1     -45.084  57.371 -54.250  1.00  0.00     0.212 HD
ENDBRANCH   5  24
TORSDOF 2
ENDMDL
MODEL 10
REMARK VINA RESULT:      -7.3      2.515      3.437
REMARK  2 active torsions:
REMARK  status: ('A' for Active; 'I' for Inactive)
REMARK    1  A    between atoms: C_5  and  C_7 
REMARK    2  A    between atoms: C_5  and  O_6 
ROOT
HETATM    1  C   UNL     1     -43.688  60.821 -54.597  1.00  0.00     0.050 C 
HETATM    2  C   UNL     1     -43.774  59.742 -53.564  1.00  0.00    -0.035 A 
HETATM    3  C   UNL     1     -42.674  59.197 -52.922  1.00  0.00     0.051 A 
HETATM    4  C   UNL     1     -42.789  58.190 -51.954  1.00  0.00     0.018 A 
HETATM    5  C   UNL     1     -41.418  57.858 -51.398  1.00  0.00     0.199 A 
HETATM    6  C   UNL     1     -40.497  58.773 -52.277  1.00  0.00     0.266 A 
HETATM    7  O   UNL     1     -39.282  58.891 -52.245  1.00  0.00    -0.269 OA
HETATM    8  N   UNL     1     -41.335  59.528 -53.099  1.00  0.00    -0.323 N 
HETATM    9  C   UNL     1     -44.034  57.698 -51.591  1.00  0.00     0.013 A 
HETATM   10  C   UNL     1     -45.159  58.221 -52.227  1.00  0.00     0.001 A 
HETATM   11  C   UNL     1     -45.031  59.230 -53.200  1.00  0.00     0.009 A 
HETATM   12  H   UNL     1     -40.970  60.210 -53.745  1.00  0.00     0.169 HD
ENDROOT
BRANCH   5  13
HETATM   13  C   UNL     1     -41.181  56.379 -51.602  1.00  0.00     0.025 A 
HETATM   14  C   UNL     1     -40.995  55.678 -52.857  1.00  0.00     0.003 A 
HETATM   15  C   UNL     1     -40.789  54.330 -52.564  1.00  0.00     0.043 A 
HETATM   16  C   UNL     1     -40.978  56.060 -54.217  1.00  0.00     0.014 A 
HETATM   17  C   UNL     1     -40.567  53.356 -53.546  1.00  0.00     0.030 A 
HETATM   18  N   UNL     1     -40.845  54.198 -51.201  1.00  0.00    -0.359 N 
HETATM   19  C   UNL     1     -40.554  53.766 -54.879  1.00  0.00     0.002 A 
HETATM   20  C   UNL     1     -40.757  55.100 -55.213  1.00  0.00     0.001 A 
HETATM   21  H   UNL     1     -40.716  53.324 -50.711  1.00  0.00     0.166 HD
HETATM   22  C   UNL     1     -41.085  55.408 -50.604  1.00  0.00     0.016 A 
HETATM   23  C   UNL     1     -41.178  55.513 -49.122  1.00  0.00     0.069 C 
ENDBRANCH   5  13
BRANCH   5  24
HETATM   24  O   UNL     1     -41.372  58.268 -50.033  1.00  0.00    -0.371 OA
HETATM   25  H   UNL     1     -42.143  58.840 -49.890  1.00  0.00     0.212 HD
ENDBRANCH   5  24
TORSDOF 2
ENDMDL
