MODEL 1
REMARK VINA RESULT:      -8.6      0.000      0.000
REMARK  6 active torsions:
REMARK  status: ('A' for Active; 'I' for Inactive)
REMARK    1  A    between atoms: O_2  and  C_3 
REMARK    2  A    between atoms: C_6  and  C_7 
REMARK    3  A    between atoms: C_11  and  C_12 
REMARK       I    between atoms: C_12  and  N_13 
REMARK    4  A    between atoms: N_13  and  N_14 
REMARK       I    between atoms: N_14  and  C_15 
REMARK    5  A    between atoms: C_15  and  C_16 
REMARK    6  A    between atoms: C_17  and  C_18 
ROOT
HETATM    1  C   UNL     1     -41.526  58.610 -53.291  1.00  0.00     0.288 C 
HETATM    2  N   UNL     1     -42.406  57.702 -53.845  1.00  0.00    -0.262 N 
HETATM    3  O   UNL     1     -40.307  58.453 -53.355  1.00  0.00    -0.264 OA
HETATM    4  H   UNL     1     -43.404  57.713 -53.648  1.00  0.00     0.190 HD
ENDROOT
BRANCH   1   5
HETATM    5  C   UNL     1     -42.127  59.734 -52.630  1.00  0.00     0.121 A 
HETATM    6  N   UNL     1     -42.466  60.868 -53.312  1.00  0.00    -0.272 N 
HETATM    7  N   UNL     1     -43.005  61.830 -52.550  1.00  0.00    -0.174 NA
HETATM    8  H   UNL     1     -42.346  61.040 -54.305  1.00  0.00     0.189 HD
HETATM    9  C   UNL     1     -43.044  61.304 -51.313  1.00  0.00     0.089 A 
HETATM   10  C   UNL     1     -42.497  59.989 -51.324  1.00  0.00     0.071 A 
BRANCH   9  11
HETATM   11  C   UNL     1     -43.585  62.058 -50.175  1.00  0.00    -0.005 A 
HETATM   12  C   UNL     1     -43.310  63.421 -50.008  1.00  0.00     0.016 A 
HETATM   13  C   UNL     1     -43.842  64.126 -48.921  1.00  0.00     0.037 A 
HETATM   14  C   UNL     1     -44.657  63.488 -47.985  1.00  0.00     0.068 A 
HETATM   15  C   UNL     1     -44.930  62.131 -48.137  1.00  0.00     0.037 A 
HETATM   16  C   UNL     1     -44.397  61.425 -49.223  1.00  0.00     0.016 A 
BRANCH  14  17
HETATM   17  O   UNL     1     -45.112  64.294 -46.978  1.00  0.00    -0.356 OA
HETATM   18  C   UNL     1     -45.029  63.777 -45.656  1.00  0.00     0.210 C 
ENDBRANCH  14  17
ENDBRANCH   9  11
ENDBRANCH   1   5
BRANCH   2  19
HETATM   19  N   UNL     1     -41.893  56.497 -54.347  1.00  0.00    -0.267 N 
HETATM   20  C   UNL     1     -42.459  55.322 -53.907  1.00  0.00     0.240 C 
HETATM   21  O   UNL     1     -43.464  55.279 -53.203  1.00  0.00    -0.271 OA
HETATM   22  H   UNL     1     -40.982  56.541 -54.799  1.00  0.00     0.190 HD
BRANCH  20  23
HETATM   23  C   UNL     1     -41.736  54.091 -54.325  1.00  0.00     0.089 A 
HETATM   24  C   UNL     1     -40.431  53.718 -53.637  1.00  0.00     0.034 A 
HETATM   25  C   UNL     1     -40.433  54.200 -55.070  1.00  0.00     0.025 A 
BRANCH  24  26
HETATM   26  C   UNL     1     -40.140  52.266 -53.308  1.00  0.00    -0.031 A 
HETATM   27  C   UNL     1     -39.879  51.811 -51.999  1.00  0.00     0.040 A 
HETATM   28 CL   UNL     1     -39.885  52.907 -50.659  1.00  0.00    -0.084 Cl
HETATM   29  C   UNL     1     -39.599  50.466 -51.732  1.00  0.00     0.024 A 
HETATM   30  C   UNL     1     -39.563  49.539 -52.771  1.00  0.00     0.002 A 
HETATM   31  C   UNL     1     -39.799  49.960 -54.075  1.00  0.00     0.001 A 
HETATM   32  C   UNL     1     -40.077  51.304 -54.337  1.00  0.00     0.009 A 
ENDBRANCH  24  26
ENDBRANCH  20  23
ENDBRANCH   2  19
TORSDOF 6
ENDMDL
MODEL 2
REMARK VINA RESULT:      -8.5      6.580     10.808
REMARK  6 active torsions:
REMARK  status: ('A' for Active; 'I' for Inactive)
REMARK    1  A    between atoms: O_2  and  C_3 
REMARK    2  A    between atoms: C_6  and  C_7 
REMARK    3  A    between atoms: C_11  and  C_12 
REMARK       I    between atoms: C_12  and  N_13 
REMARK    4  A    between atoms: N_13  and  N_14 
REMARK       I    between atoms: N_14  and  C_15 
REMARK    5  A    between atoms: C_15  and  C_16 
REMARK    6  A    between atoms: C_17  and  C_18 
ROOT
HETATM    1  C   UNL     1     -42.476  57.259 -56.697  1.00  0.00     0.288 C 
HETATM    2  N   UNL     1     -42.039  57.102 -57.996  1.00  0.00    -0.262 N 
HETATM    3  O   UNL     1     -42.946  58.323 -56.295  1.00  0.00    -0.264 OA
HETATM    4  H   UNL     1     -41.484  56.304 -58.297  1.00  0.00     0.190 HD
ENDROOT
BRANCH   1   5
HETATM    5  C   UNL     1     -42.332  56.108 -55.849  1.00  0.00     0.121 A 
HETATM    6  N   UNL     1     -43.416  55.402 -55.412  1.00  0.00    -0.272 N 
HETATM    7  N   UNL     1     -43.116  54.365 -54.618  1.00  0.00    -0.174 NA
HETATM    8  H   UNL     1     -44.392  55.591 -55.623  1.00  0.00     0.189 HD
HETATM    9  C   UNL     1     -41.774  54.369 -54.543  1.00  0.00     0.089 A 
HETATM   10  C   UNL     1     -41.247  55.454 -55.301  1.00  0.00     0.071 A 
BRANCH   9  11
HETATM   11  C   UNL     1     -41.046  53.364 -53.759  1.00  0.00    -0.005 A 
HETATM   12  C   UNL     1     -40.875  53.503 -52.377  1.00  0.00     0.016 A 
HETATM   13  C   UNL     1     -40.184  52.529 -51.644  1.00  0.00     0.037 A 
HETATM   14  C   UNL     1     -39.656  51.401 -52.274  1.00  0.00     0.068 A 
HETATM   15  C   UNL     1     -39.813  51.257 -53.651  1.00  0.00     0.037 A 
HETATM   16  C   UNL     1     -40.502  52.232 -54.384  1.00  0.00     0.016 A 
BRANCH  14  17
HETATM   17  O   UNL     1     -39.012  50.528 -51.442  1.00  0.00    -0.356 OA
HETATM   18  C   UNL     1     -39.827  49.745 -50.579  1.00  0.00     0.210 C 
ENDBRANCH  14  17
ENDBRANCH   9  11
ENDBRANCH   1   5
BRANCH   2  19
HETATM   19  N   UNL     1     -41.984  58.233 -58.823  1.00  0.00    -0.267 N 
HETATM   20  C   UNL     1     -42.249  58.066 -60.163  1.00  0.00     0.240 C 
HETATM   21  O   UNL     1     -42.652  57.011 -60.645  1.00  0.00    -0.271 OA
HETATM   22  H   UNL     1     -41.509  59.051 -58.447  1.00  0.00     0.190 HD
BRANCH  20  23
HETATM   23  C   UNL     1     -41.976  59.263 -61.003  1.00  0.00     0.089 A 
HETATM   24  C   UNL     1     -42.139  60.652 -60.403  1.00  0.00     0.034 A 
HETATM   25  C   UNL     1     -43.112  60.146 -61.445  1.00  0.00     0.025 A 
BRANCH  24  26
HETATM   26  C   UNL     1     -41.139  61.742 -60.742  1.00  0.00    -0.031 A 
HETATM   27  C   UNL     1     -40.375  62.414 -59.766  1.00  0.00     0.040 A 
HETATM   28 CL   UNL     1     -40.531  62.020 -58.087  1.00  0.00    -0.084 Cl
HETATM   29  C   UNL     1     -39.471  63.426 -60.110  1.00  0.00     0.024 A 
HETATM   30  C   UNL     1     -39.314  63.799 -61.442  1.00  0.00     0.002 A 
HETATM   31  C   UNL     1     -40.066  63.167 -62.426  1.00  0.00     0.001 A 
HETATM   32  C   UNL     1     -40.968  62.158 -62.078  1.00  0.00     0.009 A 
ENDBRANCH  24  26
ENDBRANCH  20  23
ENDBRANCH   2  19
TORSDOF 6
ENDMDL
MODEL 3
REMARK VINA RESULT:      -8.4      2.128      2.589
REMARK  6 active torsions:
REMARK  status: ('A' for Active; 'I' for Inactive)
REMARK    1  A    between atoms: O_2  and  C_3 
REMARK    2  A    between atoms: C_6  and  C_7 
REMARK    3  A    between atoms: C_11  and  C_12 
REMARK       I    between atoms: C_12  and  N_13 
REMARK    4  A    between atoms: N_13  and  N_14 
REMARK       I    between atoms: N_14  and  C_15 
REMARK    5  A    between atoms: C_15  and  C_16 
REMARK    6  A    between atoms: C_17  and  C_18 
ROOT
HETATM    1  C   UNL     1     -44.596  58.626 -52.048  1.00  0.00     0.288 C 
HETATM    2  N   UNL     1     -44.776  57.402 -51.438  1.00  0.00    -0.262 N 
HETATM    3  O   UNL     1     -44.251  58.719 -53.225  1.00  0.00    -0.264 OA
HETATM    4  H   UNL     1     -44.878  57.299 -50.431  1.00  0.00     0.190 HD
ENDROOT
BRANCH   1   5
HETATM    5  C   UNL     1     -44.825  59.774 -51.217  1.00  0.00     0.121 A 
HETATM    6  N   UNL     1     -44.229  60.976 -51.476  1.00  0.00    -0.272 N 
HETATM    7  N   UNL     1     -44.533  61.944 -50.600  1.00  0.00    -0.174 NA
HETATM    8  H   UNL     1     -43.597  61.190 -52.242  1.00  0.00     0.189 HD
HETATM    9  C   UNL     1     -45.383  61.366 -49.735  1.00  0.00     0.089 A 
HETATM   10  C   UNL     1     -45.587  60.001 -50.088  1.00  0.00     0.071 A 
BRANCH   9  11
HETATM   11  C   UNL     1     -45.961  62.114 -48.611  1.00  0.00    -0.005 A 
HETATM   12  C   UNL     1     -47.099  62.913 -48.777  1.00  0.00     0.016 A 
HETATM   13  C   UNL     1     -47.641  63.612 -47.691  1.00  0.00     0.037 A 
HETATM   14  C   UNL     1     -47.062  63.526 -46.423  1.00  0.00     0.068 A 
HETATM   15  C   UNL     1     -45.925  62.741 -46.250  1.00  0.00     0.037 A 
HETATM   16  C   UNL     1     -45.381  62.042 -47.336  1.00  0.00     0.016 A 
BRANCH  14  17
HETATM   17  O   UNL     1     -47.695  64.254 -45.454  1.00  0.00    -0.356 OA
HETATM   18  C   UNL     1     -46.999  64.427 -44.226  1.00  0.00     0.210 C 
ENDBRANCH  14  17
ENDBRANCH   9  11
ENDBRANCH   1   5
BRANCH   2  19
HETATM   19  N   UNL     1     -44.398  56.246 -52.136  1.00  0.00    -0.267 N 
HETATM   20  C   UNL     1     -43.310  55.541 -51.676  1.00  0.00     0.240 C 
HETATM   21  O   UNL     1     -42.736  55.797 -50.622  1.00  0.00    -0.271 OA
HETATM   22  H   UNL     1     -44.778  56.135 -53.074  1.00  0.00     0.190 HD
BRANCH  20  23
HETATM   23  C   UNL     1     -42.851  54.450 -52.578  1.00  0.00     0.089 A 
HETATM   24  C   UNL     1     -41.374  54.335 -52.924  1.00  0.00     0.034 A 
HETATM   25  C   UNL     1     -42.375  54.774 -53.969  1.00  0.00     0.025 A 
BRANCH  24  26
HETATM   26  C   UNL     1     -40.722  52.967 -53.003  1.00  0.00    -0.031 A 
HETATM   27  C   UNL     1     -40.070  52.362 -51.909  1.00  0.00     0.040 A 
HETATM   28 CL   UNL     1     -39.979  53.161 -50.375  1.00  0.00    -0.084 Cl
HETATM   29  C   UNL     1     -39.465  51.105 -52.018  1.00  0.00     0.024 A 
HETATM   30  C   UNL     1     -39.490  50.421 -53.231  1.00  0.00     0.002 A 
HETATM   31  C   UNL     1     -40.111  50.998 -54.333  1.00  0.00     0.001 A 
HETATM   32  C   UNL     1     -40.712  52.254 -54.219  1.00  0.00     0.009 A 
ENDBRANCH  24  26
ENDBRANCH  20  23
ENDBRANCH   2  19
TORSDOF 6
ENDMDL
MODEL 4
REMARK VINA RESULT:      -8.2      6.860     10.972
REMARK  6 active torsions:
REMARK  status: ('A' for Active; 'I' for Inactive)
REMARK    1  A    between atoms: O_2  and  C_3 
REMARK    2  A    between atoms: C_6  and  C_7 
REMARK    3  A    between atoms: C_11  and  C_12 
REMARK       I    between atoms: C_12  and  N_13 
REMARK    4  A    between atoms: N_13  and  N_14 
REMARK       I    between atoms: N_14  and  C_15 
REMARK    5  A    between atoms: C_15  and  C_16 
REMARK    6  A    between atoms: C_17  and  C_18 
ROOT
HETATM    1  C   UNL     1     -43.269  56.116 -57.205  1.00  0.00     0.288 C 
HETATM    2  N   UNL     1     -44.288  56.910 -56.721  1.00  0.00    -0.262 N 
HETATM    3  O   UNL     1     -43.128  55.904 -58.409  1.00  0.00    -0.264 OA
HETATM    4  H   UNL     1     -44.534  56.949 -55.734  1.00  0.00     0.190 HD
ENDROOT
BRANCH   1   5
HETATM    5  C   UNL     1     -42.398  55.549 -56.213  1.00  0.00     0.121 A 
HETATM    6  N   UNL     1     -41.430  56.294 -55.601  1.00  0.00    -0.272 N 
HETATM    7  N   UNL     1     -40.694  55.616 -54.710  1.00  0.00    -0.174 NA
HETATM    8  H   UNL     1     -41.226  57.276 -55.760  1.00  0.00     0.189 HD
HETATM    9  C   UNL     1     -41.208  54.374 -54.715  1.00  0.00     0.089 A 
HETATM   10  C   UNL     1     -42.278  54.293 -55.652  1.00  0.00     0.071 A 
BRANCH   9  11
HETATM   11  C   UNL     1     -40.670  53.317 -53.851  1.00  0.00    -0.005 A 
HETATM   12  C   UNL     1     -40.177  52.120 -54.385  1.00  0.00     0.016 A 
HETATM   13  C   UNL     1     -39.659  51.126 -53.545  1.00  0.00     0.037 A 
HETATM   14  C   UNL     1     -39.620  51.307 -52.161  1.00  0.00     0.068 A 
HETATM   15  C   UNL     1     -40.116  52.491 -51.619  1.00  0.00     0.037 A 
HETATM   16  C   UNL     1     -40.636  53.485 -52.458  1.00  0.00     0.016 A 
BRANCH  14  17
HETATM   17  O   UNL     1     -39.086  50.262 -51.461  1.00  0.00    -0.356 OA
HETATM   18  C   UNL     1     -39.881  49.717 -50.416  1.00  0.00     0.210 C 
ENDBRANCH  14  17
ENDBRANCH   9  11
ENDBRANCH   1   5
BRANCH   2  19
HETATM   19  N   UNL     1     -45.276  57.346 -57.616  1.00  0.00    -0.267 N 
HETATM   20  C   UNL     1     -45.304  58.683 -57.944  1.00  0.00     0.240 C 
HETATM   21  O   UNL     1     -44.439  59.481 -57.597  1.00  0.00    -0.271 OA
HETATM   22  H   UNL     1     -46.061  56.718 -57.771  1.00  0.00     0.190 HD
BRANCH  20  23
HETATM   23  C   UNL     1     -46.493  59.102 -58.733  1.00  0.00     0.089 A 
HETATM   24  C   UNL     1     -46.401  59.165 -60.251  1.00  0.00     0.034 A 
HETATM   25  C   UNL     1     -46.500  60.434 -59.434  1.00  0.00     0.025 A 
BRANCH  24  26
HETATM   26  C   UNL     1     -47.570  58.697 -61.097  1.00  0.00    -0.031 A 
HETATM   27  C   UNL     1     -47.771  57.346 -61.451  1.00  0.00     0.040 A 
HETATM   28 CL   UNL     1     -46.675  56.116 -60.920  1.00  0.00    -0.084 Cl
HETATM   29  C   UNL     1     -48.852  56.949 -62.246  1.00  0.00     0.024 A 
HETATM   30  C   UNL     1     -49.758  57.895 -62.718  1.00  0.00     0.002 A 
HETATM   31  C   UNL     1     -49.577  59.237 -62.401  1.00  0.00     0.001 A 
HETATM   32  C   UNL     1     -48.496  59.629 -61.607  1.00  0.00     0.009 A 
ENDBRANCH  24  26
ENDBRANCH  20  23
ENDBRANCH   2  19
TORSDOF 6
ENDMDL
MODEL 5
REMARK VINA RESULT:      -8.0      2.924     11.051
REMARK  6 active torsions:
REMARK  status: ('A' for Active; 'I' for Inactive)
REMARK    1  A    between atoms: O_2  and  C_3 
REMARK    2  A    between atoms: C_6  and  C_7 
REMARK    3  A    between atoms: C_11  and  C_12 
REMARK       I    between atoms: C_12  and  N_13 
REMARK    4  A    between atoms: N_13  and  N_14 
REMARK       I    between atoms: N_14  and  C_15 
REMARK    5  A    between atoms: C_15  and  C_16 
REMARK    6  A    between atoms: C_17  and  C_18 
ROOT
HETATM    1  C   UNL     1     -43.770  58.201 -51.142  1.00  0.00     0.288 C 
HETATM    2  N   UNL     1     -42.935  59.290 -50.997  1.00  0.00    -0.262 N 
HETATM    3  O   UNL     1     -44.897  58.179 -50.649  1.00  0.00    -0.264 OA
HETATM    4  H   UNL     1     -41.946  59.260 -51.233  1.00  0.00     0.190 HD
ENDROOT
BRANCH   1   5
HETATM    5  C   UNL     1     -43.232  57.101 -51.891  1.00  0.00     0.121 A 
HETATM    6  N   UNL     1     -43.543  56.910 -53.207  1.00  0.00    -0.272 N 
HETATM    7  N   UNL     1     -42.971  55.832 -53.759  1.00  0.00    -0.174 NA
HETATM    8  H   UNL     1     -44.150  57.490 -53.780  1.00  0.00     0.189 HD
HETATM    9  C   UNL     1     -42.232  55.295 -52.774  1.00  0.00     0.089 A 
HETATM   10  C   UNL     1     -42.375  56.063 -51.582  1.00  0.00     0.071 A 
BRANCH   9  11
HETATM   11  C   UNL     1     -41.431  54.083 -52.987  1.00  0.00    -0.005 A 
HETATM   12  C   UNL     1     -41.352  53.475 -54.246  1.00  0.00     0.016 A 
HETATM   13  C   UNL     1     -40.576  52.324 -54.432  1.00  0.00     0.037 A 
HETATM   14  C   UNL     1     -39.865  51.760 -53.371  1.00  0.00     0.068 A 
HETATM   15  C   UNL     1     -39.944  52.352 -52.113  1.00  0.00     0.037 A 
HETATM   16  C   UNL     1     -40.722  53.502 -51.925  1.00  0.00     0.016 A 
BRANCH  14  17
HETATM   17  O   UNL     1     -39.145  50.643 -53.693  1.00  0.00    -0.356 OA
HETATM   18  C   UNL     1     -39.788  49.684 -54.522  1.00  0.00     0.210 C 
ENDBRANCH  14  17
ENDBRANCH   9  11
ENDBRANCH   1   5
BRANCH   2  19
HETATM   19  N   UNL     1     -43.328  60.321 -50.131  1.00  0.00    -0.267 N 
HETATM   20  C   UNL     1     -43.633  61.545 -50.681  1.00  0.00     0.240 C 
HETATM   21  O   UNL     1     -43.704  61.743 -51.891  1.00  0.00    -0.271 OA
HETATM   22  H   UNL     1     -43.121  60.191 -49.143  1.00  0.00     0.190 HD
BRANCH  20  23
HETATM   23  C   UNL     1     -43.844  62.635 -49.691  1.00  0.00     0.089 A 
HETATM   24  C   UNL     1     -45.105  62.641 -48.840  1.00  0.00     0.034 A 
HETATM   25  C   UNL     1     -44.908  63.672 -49.929  1.00  0.00     0.025 A 
BRANCH  24  26
HETATM   26  C   UNL     1     -45.025  63.035 -47.377  1.00  0.00    -0.031 A 
HETATM   27  C   UNL     1     -45.203  62.116 -46.322  1.00  0.00     0.040 A 
HETATM   28 CL   UNL     1     -45.520  60.444 -46.644  1.00  0.00    -0.084 Cl
HETATM   29  C   UNL     1     -45.138  62.514 -44.982  1.00  0.00     0.024 A 
HETATM   30  C   UNL     1     -44.903  63.849 -44.661  1.00  0.00     0.002 A 
HETATM   31  C   UNL     1     -44.740  64.782 -45.678  1.00  0.00     0.001 A 
HETATM   32  C   UNL     1     -44.807  64.380 -47.014  1.00  0.00     0.009 A 
ENDBRANCH  24  26
ENDBRANCH  20  23
ENDBRANCH   2  19
TORSDOF 6
ENDMDL
MODEL 6
REMARK VINA RESULT:      -7.9      6.602      9.203
REMARK  6 active torsions:
REMARK  status: ('A' for Active; 'I' for Inactive)
REMARK    1  A    between atoms: O_2  and  C_3 
REMARK    2  A    between atoms: C_6  and  C_7 
REMARK    3  A    between atoms: C_11  and  C_12 
REMARK       I    between atoms: C_12  and  N_13 
REMARK    4  A    between atoms: N_13  and  N_14 
REMARK       I    between atoms: N_14  and  C_15 
REMARK    5  A    between atoms: C_15  and  C_16 
REMARK    6  A    between atoms: C_17  and  C_18 
ROOT
HETATM    1  C   UNL     1     -43.279  56.751 -57.478  1.00  0.00     0.288 C 
HETATM    2  N   UNL     1     -43.392  55.400 -57.219  1.00  0.00    -0.262 N 
HETATM    3  O   UNL     1     -42.343  57.419 -57.041  1.00  0.00    -0.264 OA
HETATM    4  H   UNL     1     -44.240  54.872 -57.410  1.00  0.00     0.190 HD
ENDROOT
BRANCH   1   5
HETATM    5  C   UNL     1     -44.329  57.320 -58.276  1.00  0.00     0.121 A 
HETATM    6  N   UNL     1     -44.699  58.628 -58.144  1.00  0.00    -0.272 N 
HETATM    7  N   UNL     1     -45.702  59.002 -58.950  1.00  0.00    -0.174 NA
HETATM    8  H   UNL     1     -44.299  59.314 -57.510  1.00  0.00     0.189 HD
HETATM    9  C   UNL     1     -45.997  57.901 -59.662  1.00  0.00     0.089 A 
HETATM   10  C   UNL     1     -45.157  56.822 -59.262  1.00  0.00     0.071 A 
BRANCH   9  11
HETATM   11  C   UNL     1     -47.056  57.904 -60.679  1.00  0.00    -0.005 A 
HETATM   12  C   UNL     1     -47.668  59.095 -61.089  1.00  0.00     0.016 A 
HETATM   13  C   UNL     1     -48.671  59.080 -62.067  1.00  0.00     0.037 A 
HETATM   14  C   UNL     1     -49.080  57.881 -62.653  1.00  0.00     0.068 A 
HETATM   15  C   UNL     1     -48.484  56.689 -62.246  1.00  0.00     0.037 A 
HETATM   16  C   UNL     1     -47.482  56.704 -61.267  1.00  0.00     0.016 A 
BRANCH  14  17
HETATM   17  O   UNL     1     -50.061  58.010 -63.596  1.00  0.00    -0.356 OA
HETATM   18  C   UNL     1     -51.005  59.055 -63.399  1.00  0.00     0.210 C 
ENDBRANCH  14  17
ENDBRANCH   9  11
ENDBRANCH   1   5
BRANCH   2  19
HETATM   19  N   UNL     1     -42.502  54.821 -56.302  1.00  0.00    -0.267 N 
HETATM   20  C   UNL     1     -42.973  54.530 -55.042  1.00  0.00     0.240 C 
HETATM   21  O   UNL     1     -44.154  54.632 -54.722  1.00  0.00    -0.271 OA
HETATM   22  H   UNL     1     -41.511  54.883 -56.526  1.00  0.00     0.190 HD
BRANCH  20  23
HETATM   23  C   UNL     1     -41.928  54.108 -54.072  1.00  0.00     0.089 A 
HETATM   24  C   UNL     1     -41.298  55.142 -53.151  1.00  0.00     0.034 A 
HETATM   25  C   UNL     1     -40.497  54.527 -54.277  1.00  0.00     0.025 A 
BRANCH  24  26
HETATM   26  C   UNL     1     -41.002  54.785 -51.706  1.00  0.00    -0.031 A 
HETATM   27  C   UNL     1     -41.376  55.603 -50.620  1.00  0.00     0.040 A 
HETATM   28 CL   UNL     1     -42.222  57.092 -50.878  1.00  0.00    -0.084 Cl
HETATM   29  C   UNL     1     -41.075  55.253 -49.299  1.00  0.00     0.024 A 
HETATM   30  C   UNL     1     -40.382  54.075 -49.029  1.00  0.00     0.002 A 
HETATM   31  C   UNL     1     -39.985  53.256 -50.080  1.00  0.00     0.001 A 
HETATM   32  C   UNL     1     -40.286  53.611 -51.397  1.00  0.00     0.009 A 
ENDBRANCH  24  26
ENDBRANCH  20  23
ENDBRANCH   2  19
TORSDOF 6
ENDMDL
MODEL 7
REMARK VINA RESULT:      -7.9     18.386     20.967
REMARK  6 active torsions:
REMARK  status: ('A' for Active; 'I' for Inactive)
REMARK    1  A    between atoms: O_2  and  C_3 
REMARK    2  A    between atoms: C_6  and  C_7 
REMARK    3  A    between atoms: C_11  and  C_12 
REMARK       I    between atoms: C_12  and  N_13 
REMARK    4  A    between atoms: N_13  and  N_14 
REMARK       I    between atoms: N_14  and  C_15 
REMARK    5  A    between atoms: C_15  and  C_16 
REMARK    6  A    between atoms: C_17  and  C_18 
ROOT
HETATM    1  C   UNL     1     -32.948  40.516 -52.550  1.00  0.00     0.288 C 
HETATM    2  N   UNL     1     -34.116  41.250 -52.497  1.00  0.00    -0.262 N 
HETATM    3  O   UNL     1     -32.278  40.437 -53.578  1.00  0.00    -0.264 OA
HETATM    4  H   UNL     1     -34.774  41.181 -51.725  1.00  0.00     0.190 HD
ENDROOT
BRANCH   1   5
HETATM    5  C   UNL     1     -32.579  39.847 -51.334  1.00  0.00     0.121 A 
HETATM    6  N   UNL     1     -32.242  38.524 -51.319  1.00  0.00    -0.272 N 
HETATM    7  N   UNL     1     -31.936  38.045 -50.105  1.00  0.00    -0.174 NA
HETATM    8  H   UNL     1     -32.209  37.895 -52.116  1.00  0.00     0.189 HD
HETATM    9  C   UNL     1     -32.055  39.101 -49.282  1.00  0.00     0.089 A 
HETATM   10  C   UNL     1     -32.462  40.251 -50.018  1.00  0.00     0.071 A 
BRANCH   9  11
HETATM   11  C   UNL     1     -31.791  38.986 -47.842  1.00  0.00    -0.005 A 
HETATM   12  C   UNL     1     -30.790  39.744 -47.223  1.00  0.00     0.016 A 
HETATM   13  C   UNL     1     -30.558  39.627 -45.847  1.00  0.00     0.037 A 
HETATM   14  C   UNL     1     -31.320  38.757 -45.064  1.00  0.00     0.068 A 
HETATM   15  C   UNL     1     -32.312  37.992 -45.672  1.00  0.00     0.037 A 
HETATM   16  C   UNL     1     -32.543  38.107 -47.049  1.00  0.00     0.016 A 
BRANCH  14  17
HETATM   17  O   UNL     1     -30.993  38.745 -43.737  1.00  0.00    -0.356 OA
HETATM   18  C   UNL     1     -29.655  39.094 -43.403  1.00  0.00     0.210 C 
ENDBRANCH  14  17
ENDBRANCH   9  11
ENDBRANCH   1   5
BRANCH   2  19
HETATM   19  N   UNL     1     -34.625  41.778 -53.692  1.00  0.00    -0.267 N 
HETATM   20  C   UNL     1     -35.752  41.196 -54.226  1.00  0.00     0.240 C 
HETATM   21  O   UNL     1     -36.402  40.329 -53.650  1.00  0.00    -0.271 OA
HETATM   22  H   UNL     1     -34.004  42.382 -54.226  1.00  0.00     0.190 HD
BRANCH  20  23
HETATM   23  C   UNL     1     -36.113  41.678 -55.586  1.00  0.00     0.089 A 
HETATM   24  C   UNL     1     -35.327  41.181 -56.791  1.00  0.00     0.034 A 
HETATM   25  C   UNL     1     -35.191  42.613 -56.323  1.00  0.00     0.025 A 
BRANCH  24  26
HETATM   26  C   UNL     1     -36.052  40.853 -58.082  1.00  0.00    -0.031 A 
HETATM   27  C   UNL     1     -35.993  39.586 -58.698  1.00  0.00     0.040 A 
HETATM   28 CL   UNL     1     -35.074  38.298 -57.994  1.00  0.00    -0.084 Cl
HETATM   29  C   UNL     1     -36.662  39.321 -59.898  1.00  0.00     0.024 A 
HETATM   30  C   UNL     1     -37.403  40.322 -60.521  1.00  0.00     0.002 A 
HETATM   31  C   UNL     1     -37.468  41.587 -59.947  1.00  0.00     0.001 A 
HETATM   32  C   UNL     1     -36.797  41.847 -58.750  1.00  0.00     0.009 A 
ENDBRANCH  24  26
ENDBRANCH  20  23
ENDBRANCH   2  19
TORSDOF 6
ENDMDL
MODEL 8
REMARK VINA RESULT:      -7.7      6.746      8.405
REMARK  6 active torsions:
REMARK  status: ('A' for Active; 'I' for Inactive)
REMARK    1  A    between atoms: O_2  and  C_3 
REMARK    2  A    between atoms: C_6  and  C_7 
REMARK    3  A    between atoms: C_11  and  C_12 
REMARK       I    between atoms: C_12  and  N_13 
REMARK    4  A    between atoms: N_13  and  N_14 
REMARK       I    between atoms: N_14  and  C_15 
REMARK    5  A    between atoms: C_15  and  C_16 
REMARK    6  A    between atoms: C_17  and  C_18 
ROOT
HETATM    1  C   UNL     1     -43.474  56.328 -59.223  1.00  0.00     0.288 C 
HETATM    2  N   UNL     1     -43.608  56.004 -57.888  1.00  0.00    -0.262 N 
HETATM    3  O   UNL     1     -42.598  55.827 -59.926  1.00  0.00    -0.264 OA
HETATM    4  H   UNL     1     -44.196  56.535 -57.249  1.00  0.00     0.190 HD
ENDROOT
BRANCH   1   5
HETATM    5  C   UNL     1     -44.412  57.292 -59.725  1.00  0.00     0.121 A 
HETATM    6  N   UNL     1     -44.018  58.318 -60.537  1.00  0.00    -0.272 N 
HETATM    7  N   UNL     1     -45.010  59.139 -60.910  1.00  0.00    -0.174 NA
HETATM    8  H   UNL     1     -43.076  58.507 -60.866  1.00  0.00     0.189 HD
HETATM    9  C   UNL     1     -46.112  58.624 -60.338  1.00  0.00     0.089 A 
HETATM   10  C   UNL     1     -45.774  57.465 -59.582  1.00  0.00     0.071 A 
BRANCH   9  11
HETATM   11  C   UNL     1     -47.431  59.244 -60.518  1.00  0.00    -0.005 A 
HETATM   12  C   UNL     1     -48.206  58.989 -61.655  1.00  0.00     0.016 A 
HETATM   13  C   UNL     1     -49.466  59.582 -61.805  1.00  0.00     0.037 A 
HETATM   14  C   UNL     1     -49.976  60.437 -60.826  1.00  0.00     0.068 A 
HETATM   15  C   UNL     1     -49.209  60.704 -59.694  1.00  0.00     0.037 A 
HETATM   16  C   UNL     1     -47.948  60.112 -59.545  1.00  0.00     0.016 A 
BRANCH  14  17
HETATM   17  O   UNL     1     -51.217  60.942 -61.096  1.00  0.00    -0.356 OA
HETATM   18  C   UNL     1     -52.081  61.147 -59.985  1.00  0.00     0.210 C 
ENDBRANCH  14  17
ENDBRANCH   9  11
ENDBRANCH   1   5
BRANCH   2  19
HETATM   19  N   UNL     1     -42.618  55.210 -57.292  1.00  0.00    -0.267 N 
HETATM   20  C   UNL     1     -42.505  55.241 -55.920  1.00  0.00     0.240 C 
HETATM   21  O   UNL     1     -43.301  55.824 -55.190  1.00  0.00    -0.271 OA
HETATM   22  H   UNL     1     -41.884  54.860 -57.903  1.00  0.00     0.190 HD
BRANCH  20  23
HETATM   23  C   UNL     1     -41.312  54.534 -55.381  1.00  0.00     0.089 A 
HETATM   24  C   UNL     1     -41.308  54.070 -53.931  1.00  0.00     0.034 A 
HETATM   25  C   UNL     1     -40.425  55.215 -54.373  1.00  0.00     0.025 A 
BRANCH  24  26
HETATM   26  C   UNL     1     -40.708  52.723 -53.573  1.00  0.00    -0.031 A 
HETATM   27  C   UNL     1     -40.090  52.463 -52.332  1.00  0.00     0.040 A 
HETATM   28 CL   UNL     1     -39.986  53.690 -51.116  1.00  0.00    -0.084 Cl
HETATM   29  C   UNL     1     -39.532  51.214 -52.037  1.00  0.00     0.024 A 
HETATM   30  C   UNL     1     -39.570  50.191 -52.982  1.00  0.00     0.002 A 
HETATM   31  C   UNL     1     -40.157  50.422 -54.221  1.00  0.00     0.001 A 
HETATM   32  C   UNL     1     -40.712  51.671 -54.511  1.00  0.00     0.009 A 
ENDBRANCH  24  26
ENDBRANCH  20  23
ENDBRANCH   2  19
TORSDOF 6
ENDMDL
MODEL 9
REMARK VINA RESULT:      -7.6      6.752     10.636
REMARK  6 active torsions:
REMARK  status: ('A' for Active; 'I' for Inactive)
REMARK    1  A    between atoms: O_2  and  C_3 
REMARK    2  A    between atoms: C_6  and  C_7 
REMARK    3  A    between atoms: C_11  and  C_12 
REMARK       I    between atoms: C_12  and  N_13 
REMARK    4  A    between atoms: N_13  and  N_14 
REMARK       I    between atoms: N_14  and  C_15 
REMARK    5  A    between atoms: C_15  and  C_16 
REMARK    6  A    between atoms: C_17  and  C_18 
ROOT
HETATM    1  C   UNL     1     -42.747  56.419 -57.738  1.00  0.00     0.288 C 
HETATM    2  N   UNL     1     -41.948  57.543 -57.690  1.00  0.00    -0.262 N 
HETATM    3  O   UNL     1     -43.472  56.180 -58.703  1.00  0.00    -0.264 OA
HETATM    4  H   UNL     1     -41.487  57.854 -56.838  1.00  0.00     0.190 HD
ENDROOT
BRANCH   1   5
HETATM    5  C   UNL     1     -42.684  55.562 -56.587  1.00  0.00     0.121 A 
HETATM    6  N   UNL     1     -43.527  54.497 -56.440  1.00  0.00    -0.272 N 
HETATM    7  N   UNL     1     -43.351  53.805 -55.306  1.00  0.00    -0.174 NA
HETATM    8  H   UNL     1     -44.250  54.199 -57.089  1.00  0.00     0.189 HD
HETATM    9  C   UNL     1     -42.334  54.425 -54.683  1.00  0.00     0.089 A 
HETATM   10  C   UNL     1     -41.892  55.537 -55.457  1.00  0.00     0.071 A 
BRANCH   9  11
HETATM   11  C   UNL     1     -41.826  53.954 -53.389  1.00  0.00    -0.005 A 
HETATM   12  C   UNL     1     -42.493  54.250 -52.194  1.00  0.00     0.016 A 
HETATM   13  C   UNL     1     -41.998  53.784 -50.969  1.00  0.00     0.037 A 
HETATM   14  C   UNL     1     -40.833  53.015 -50.913  1.00  0.00     0.068 A 
HETATM   15  C   UNL     1     -40.157  52.723 -52.095  1.00  0.00     0.037 A 
HETATM   16  C   UNL     1     -40.651  53.190 -53.321  1.00  0.00     0.016 A 
BRANCH  14  17
HETATM   17  O   UNL     1     -40.466  52.623 -49.656  1.00  0.00    -0.356 OA
HETATM   18  C   UNL     1     -40.538  53.606 -48.631  1.00  0.00     0.210 C 
ENDBRANCH  14  17
ENDBRANCH   9  11
ENDBRANCH   1   5
BRANCH   2  19
HETATM   19  N   UNL     1     -42.095  58.509 -58.696  1.00  0.00    -0.267 N 
HETATM   20  C   UNL     1     -41.817  59.819 -58.378  1.00  0.00     0.240 C 
HETATM   21  O   UNL     1     -41.330  60.165 -57.306  1.00  0.00    -0.271 OA
HETATM   22  H   UNL     1     -42.634  58.237 -59.515  1.00  0.00     0.190 HD
BRANCH  20  23
HETATM   23  C   UNL     1     -42.187  60.804 -59.430  1.00  0.00     0.089 A 
HETATM   24  C   UNL     1     -41.171  61.849 -59.867  1.00  0.00     0.034 A 
HETATM   25  C   UNL     1     -42.391  62.251 -59.068  1.00  0.00     0.025 A 
BRANCH  24  26
HETATM   26  C   UNL     1     -41.052  62.217 -61.335  1.00  0.00    -0.031 A 
HETATM   27  C   UNL     1     -40.030  63.048 -61.839  1.00  0.00     0.040 A 
HETATM   28 CL   UNL     1     -38.820  63.705 -60.789  1.00  0.00    -0.084 Cl
HETATM   29  C   UNL     1     -39.957  63.380 -63.196  1.00  0.00     0.024 A 
HETATM   30  C   UNL     1     -40.912  62.896 -64.087  1.00  0.00     0.002 A 
HETATM   31  C   UNL     1     -41.941  62.088 -63.618  1.00  0.00     0.001 A 
HETATM   32  C   UNL     1     -42.011  61.760 -62.261  1.00  0.00     0.009 A 
ENDBRANCH  24  26
ENDBRANCH  20  23
ENDBRANCH   2  19
TORSDOF 6
ENDMDL
MODEL 10
REMARK VINA RESULT:      -7.5     18.459     20.571
REMARK  6 active torsions:
REMARK  status: ('A' for Active; 'I' for Inactive)
REMARK    1  A    between atoms: O_2  and  C_3 
REMARK    2  A    between atoms: C_6  and  C_7 
REMARK    3  A    between atoms: C_11  and  C_12 
REMARK       I    between atoms: C_12  and  N_13 
REMARK    4  A    between atoms: N_13  and  N_14 
REMARK       I    between atoms: N_14  and  C_15 
REMARK    5  A    between atoms: C_15  and  C_16 
REMARK    6  A    between atoms: C_17  and  C_18 
ROOT
HETATM    1  C   UNL     1     -37.547  41.037 -55.793  1.00  0.00     0.288 C 
HETATM    2  N   UNL     1     -36.949  40.506 -56.918  1.00  0.00    -0.262 N 
HETATM    3  O   UNL     1     -38.727  41.382 -55.788  1.00  0.00    -0.264 OA
HETATM    4  H   UNL     1     -35.942  40.388 -57.001  1.00  0.00     0.190 HD
ENDROOT
BRANCH   1   5
HETATM    5  C   UNL     1     -36.698  41.169 -54.642  1.00  0.00     0.121 A 
HETATM    6  N   UNL     1     -36.866  42.182 -53.741  1.00  0.00    -0.272 N 
HETATM    7  N   UNL     1     -35.986  42.175 -52.731  1.00  0.00    -0.174 NA
HETATM    8  H   UNL     1     -37.570  42.915 -53.773  1.00  0.00     0.189 HD
HETATM    9  C   UNL     1     -35.213  41.099 -52.959  1.00  0.00     0.089 A 
HETATM   10  C   UNL     1     -35.628  40.445 -54.155  1.00  0.00     0.071 A 
BRANCH   9  11
HETATM   11  C   UNL     1     -34.116  40.736 -52.054  1.00  0.00    -0.005 A 
HETATM   12  C   UNL     1     -34.274  40.781 -50.663  1.00  0.00     0.016 A 
HETATM   13  C   UNL     1     -33.219  40.422 -49.815  1.00  0.00     0.037 A 
HETATM   14  C   UNL     1     -31.991  40.011 -50.336  1.00  0.00     0.068 A 
HETATM   15  C   UNL     1     -31.820  39.971 -51.718  1.00  0.00     0.037 A 
HETATM   16  C   UNL     1     -32.875  40.332 -52.566  1.00  0.00     0.016 A 
BRANCH  14  17
HETATM   17  O   UNL     1     -31.051  39.685 -49.398  1.00  0.00    -0.356 OA
HETATM   18  C   UNL     1     -31.513  39.499 -48.066  1.00  0.00     0.210 C 
ENDBRANCH  14  17
ENDBRANCH   9  11
ENDBRANCH   1   5
BRANCH   2  19
HETATM   19  N   UNL     1     -37.667  40.515 -58.122  1.00  0.00    -0.267 N 
HETATM   20  C   UNL     1     -38.039  39.305 -58.661  1.00  0.00     0.240 C 
HETATM   21  O   UNL     1     -37.888  38.233 -58.082  1.00  0.00    -0.271 OA
HETATM   22  H   UNL     1     -37.651  41.381 -58.657  1.00  0.00     0.190 HD
BRANCH  20  23
HETATM   23  C   UNL     1     -38.616  39.386 -60.029  1.00  0.00     0.089 A 
HETATM   24  C   UNL     1     -38.689  38.133 -60.889  1.00  0.00     0.034 A 
HETATM   25  C   UNL     1     -37.723  39.245 -61.233  1.00  0.00     0.025 A 
BRANCH  24  26
HETATM   26  C   UNL     1     -39.913  37.877 -61.747  1.00  0.00    -0.031 A 
HETATM   27  C   UNL     1     -39.835  37.441 -63.086  1.00  0.00     0.040 A 
HETATM   28 CL   UNL     1     -38.304  37.158 -63.842  1.00  0.00    -0.084 Cl
HETATM   29  C   UNL     1     -40.984  37.228 -63.857  1.00  0.00     0.024 A 
HETATM   30  C   UNL     1     -42.245  37.456 -63.310  1.00  0.00     0.002 A 
HETATM   31  C   UNL     1     -42.354  37.902 -61.997  1.00  0.00     0.001 A 
HETATM   32  C   UNL     1     -41.204  38.114 -61.233  1.00  0.00     0.009 A 
ENDBRANCH  24  26
ENDBRANCH  20  23
ENDBRANCH   2  19
TORSDOF 6
ENDMDL
