MODEL 1
REMARK VINA RESULT:      -8.1      0.000      0.000
REMARK  5 active torsions:
REMARK  status: ('A' for Active; 'I' for Inactive)
REMARK    1  A    between atoms: C_8  and  C_9 
REMARK    2  A    between atoms: N_10  and  N_11 
REMARK       I    between atoms: N_11  and  C_12 
REMARK    3  A    between atoms: C_12  and  C_13 
REMARK    4  A    between atoms: C_13  and  N_14 
REMARK    5  A    between atoms: N_14  and  C_15 
ROOT
HETATM    1  N   UNL     1     -41.965  54.983 -56.114  1.00  0.00    -0.246 N 
HETATM    2  C   UNL     1     -42.834  56.073 -56.151  1.00  0.00     0.250 C 
HETATM    3  O   UNL     1     -43.583  56.423 -55.240  1.00  0.00    -0.270 OA
HETATM    4  H   UNL     1     -41.225  54.934 -56.809  1.00  0.00     0.192 HD
ENDROOT
BRANCH   1   5
HETATM    5  N   UNL     1     -41.744  54.171 -55.026  1.00  0.00    -0.184 NA
HETATM    6  C   UNL     1     -40.669  54.359 -54.325  1.00  0.00     0.152 C 
BRANCH   6   7
HETATM    7  C   UNL     1     -40.391  53.499 -53.190  1.00  0.00     0.011 A 
HETATM    8  C   UNL     1     -40.109  52.095 -53.227  1.00  0.00     0.004 A 
HETATM    9  C   UNL     1     -40.013  51.137 -54.259  1.00  0.00     0.014 A 
HETATM   10  C   UNL     1     -39.895  51.677 -51.912  1.00  0.00     0.043 A 
HETATM   11  C   UNL     1     -39.705  49.809 -53.942  1.00  0.00     0.001 A 
HETATM   12  C   UNL     1     -39.494  49.425 -52.621  1.00  0.00     0.002 A 
HETATM   13  C   UNL     1     -39.586  50.352 -51.579  1.00  0.00     0.030 A 
HETATM   14  N   UNL     1     -40.050  52.781 -51.106  1.00  0.00    -0.364 N 
HETATM   15  H   UNL     1     -39.958  52.773 -50.100  1.00  0.00     0.165 HD
HETATM   16  C   UNL     1     -40.347  53.882 -51.863  1.00  0.00     0.102 A 
ENDBRANCH   6   7
ENDBRANCH   1   5
BRANCH   2  17
HETATM   17  C   UNL     1     -42.821  56.792 -57.503  1.00  0.00     0.197 C 
BRANCH  17  18
HETATM   18  N   UNL     1     -44.111  57.433 -57.792  1.00  0.00    -0.283 NA
HETATM   19  H   UNL     1     -44.077  58.451 -57.836  1.00  0.00     0.128 HD
BRANCH  18  20
HETATM   20  C   UNL     1     -44.837  56.918 -58.886  1.00  0.00     0.030 A 
HETATM   21  C   UNL     1     -46.208  57.212 -59.048  1.00  0.00     0.055 A 
HETATM   22 CL   UNL     1     -47.008  58.288 -57.952  1.00  0.00    -0.082 Cl
HETATM   23  C   UNL     1     -46.948  56.677 -60.107  1.00  0.00     0.026 A 
HETATM   24  C   UNL     1     -46.336  55.820 -61.018  1.00  0.00     0.002 A 
HETATM   25  C   UNL     1     -44.991  55.494 -60.863  1.00  0.00     0.002 A 
HETATM   26  C   UNL     1     -44.253  56.033 -59.804  1.00  0.00     0.025 A 
ENDBRANCH  18  20
ENDBRANCH  17  18
ENDBRANCH   2  17
TORSDOF 5
ENDMDL
MODEL 2
REMARK VINA RESULT:      -7.9      1.984      2.474
REMARK  5 active torsions:
REMARK  status: ('A' for Active; 'I' for Inactive)
REMARK    1  A    between atoms: C_8  and  C_9 
REMARK    2  A    between atoms: N_10  and  N_11 
REMARK       I    between atoms: N_11  and  C_12 
REMARK    3  A    between atoms: C_12  and  C_13 
REMARK    4  A    between atoms: C_13  and  N_14 
REMARK    5  A    between atoms: N_14  and  C_15 
ROOT
HETATM    1  N   UNL     1     -42.908  55.976 -53.878  1.00  0.00    -0.246 N 
HETATM    2  C   UNL     1     -43.248  55.919 -55.229  1.00  0.00     0.250 C 
HETATM    3  O   UNL     1     -43.102  54.943 -55.963  1.00  0.00    -0.270 OA
HETATM    4  H   UNL     1     -43.294  56.730 -53.316  1.00  0.00     0.192 HD
ENDROOT
BRANCH   1   5
HETATM    5  N   UNL     1     -42.430  54.928 -53.126  1.00  0.00    -0.184 NA
HETATM    6  C   UNL     1     -41.158  54.678 -53.157  1.00  0.00     0.152 C 
BRANCH   6   7
HETATM    7  C   UNL     1     -40.627  53.560 -52.400  1.00  0.00     0.011 A 
HETATM    8  C   UNL     1     -40.319  52.254 -52.902  1.00  0.00     0.004 A 
HETATM    9  C   UNL     1     -40.411  51.639 -54.170  1.00  0.00     0.014 A 
HETATM   10  C   UNL     1     -39.826  51.501 -51.835  1.00  0.00     0.043 A 
HETATM   11  C   UNL     1     -40.007  50.308 -54.323  1.00  0.00     0.001 A 
HETATM   12  C   UNL     1     -39.517  49.586 -53.239  1.00  0.00     0.002 A 
HETATM   13  C   UNL     1     -39.417  50.169 -51.972  1.00  0.00     0.030 A 
HETATM   14  N   UNL     1     -39.842  52.313 -50.725  1.00  0.00    -0.364 N 
HETATM   15  H   UNL     1     -39.543  52.029 -49.803  1.00  0.00     0.165 HD
HETATM   16  C   UNL     1     -40.320  53.553 -51.052  1.00  0.00     0.102 A 
ENDBRANCH   6   7
ENDBRANCH   1   5
BRANCH   2  17
HETATM   17  C   UNL     1     -43.784  57.251 -55.759  1.00  0.00     0.197 C 
BRANCH  17  18
HETATM   18  N   UNL     1     -44.376  57.109 -57.096  1.00  0.00    -0.283 NA
HETATM   19  H   UNL     1     -45.315  57.496 -57.187  1.00  0.00     0.128 HD
BRANCH  18  20
HETATM   20  C   UNL     1     -43.573  57.506 -58.185  1.00  0.00     0.030 A 
HETATM   21  C   UNL     1     -43.272  56.605 -59.229  1.00  0.00     0.055 A 
HETATM   22 CL   UNL     1     -43.959  55.016 -59.239  1.00  0.00    -0.082 Cl
HETATM   23  C   UNL     1     -42.447  56.976 -60.295  1.00  0.00     0.026 A 
HETATM   24  C   UNL     1     -41.889  58.250 -60.331  1.00  0.00     0.002 A 
HETATM   25  C   UNL     1     -42.151  59.148 -59.298  1.00  0.00     0.002 A 
HETATM   26  C   UNL     1     -42.979  58.775 -58.234  1.00  0.00     0.025 A 
ENDBRANCH  18  20
ENDBRANCH  17  18
ENDBRANCH   2  17
TORSDOF 5
ENDMDL
MODEL 3
REMARK VINA RESULT:      -7.9      1.674      1.829
REMARK  5 active torsions:
REMARK  status: ('A' for Active; 'I' for Inactive)
REMARK    1  A    between atoms: C_8  and  C_9 
REMARK    2  A    between atoms: N_10  and  N_11 
REMARK       I    between atoms: N_11  and  C_12 
REMARK    3  A    between atoms: C_12  and  C_13 
REMARK    4  A    between atoms: C_13  and  N_14 
REMARK    5  A    between atoms: N_14  and  C_15 
ROOT
HETATM    1  N   UNL     1     -42.600  55.915 -54.741  1.00  0.00    -0.246 N 
HETATM    2  C   UNL     1     -42.148  57.222 -54.925  1.00  0.00     0.250 C 
HETATM    3  O   UNL     1     -41.362  57.818 -54.192  1.00  0.00    -0.270 OA
HETATM    4  H   UNL     1     -43.042  55.444 -55.524  1.00  0.00     0.192 HD
ENDROOT
BRANCH   1   5
HETATM    5  N   UNL     1     -42.177  55.054 -53.756  1.00  0.00    -0.184 NA
HETATM    6  C   UNL     1     -41.034  54.461 -53.905  1.00  0.00     0.152 C 
BRANCH   6   7
HETATM    7  C   UNL     1     -40.574  53.522 -52.899  1.00  0.00     0.011 A 
HETATM    8  C   UNL     1     -40.259  52.138 -53.097  1.00  0.00     0.004 A 
HETATM    9  C   UNL     1     -40.280  51.274 -54.213  1.00  0.00     0.014 A 
HETATM   10  C   UNL     1     -39.850  51.622 -51.866  1.00  0.00     0.043 A 
HETATM   11  C   UNL     1     -39.892  49.938 -54.060  1.00  0.00     0.001 A 
HETATM   12  C   UNL     1     -39.487  49.455 -52.818  1.00  0.00     0.002 A 
HETATM   13  C   UNL     1     -39.459  50.288 -51.696  1.00  0.00     0.030 A 
HETATM   14  N   UNL     1     -39.923  52.647 -50.953  1.00  0.00    -0.364 N 
HETATM   15  H   UNL     1     -39.690  52.560 -49.974  1.00  0.00     0.165 HD
HETATM   16  C   UNL     1     -40.355  53.794 -51.561  1.00  0.00     0.102 A 
ENDBRANCH   6   7
ENDBRANCH   1   5
BRANCH   2  17
HETATM   17  C   UNL     1     -42.791  57.902 -56.137  1.00  0.00     0.197 C 
BRANCH  17  18
HETATM   18  N   UNL     1     -42.084  57.579 -57.383  1.00  0.00    -0.283 NA
HETATM   19  H   UNL     1     -41.218  57.055 -57.255  1.00  0.00     0.128 HD
BRANCH  18  20
HETATM   20  C   UNL     1     -42.856  57.006 -58.415  1.00  0.00     0.030 A 
HETATM   21  C   UNL     1     -43.358  57.798 -59.469  1.00  0.00     0.055 A 
HETATM   22 CL   UNL     1     -42.958  59.480 -59.567  1.00  0.00    -0.082 Cl
HETATM   23  C   UNL     1     -44.155  57.249 -60.477  1.00  0.00     0.026 A 
HETATM   24  C   UNL     1     -44.486  55.897 -60.442  1.00  0.00     0.002 A 
HETATM   25  C   UNL     1     -44.023  55.100 -59.397  1.00  0.00     0.002 A 
HETATM   26  C   UNL     1     -43.223  55.652 -58.391  1.00  0.00     0.025 A 
ENDBRANCH  18  20
ENDBRANCH  17  18
ENDBRANCH   2  17
TORSDOF 5
ENDMDL
MODEL 4
REMARK VINA RESULT:      -7.5      1.656      2.219
REMARK  5 active torsions:
REMARK  status: ('A' for Active; 'I' for Inactive)
REMARK    1  A    between atoms: C_8  and  C_9 
REMARK    2  A    between atoms: N_10  and  N_11 
REMARK       I    between atoms: N_11  and  C_12 
REMARK    3  A    between atoms: C_12  and  C_13 
REMARK    4  A    between atoms: C_13  and  N_14 
REMARK    5  A    between atoms: N_14  and  C_15 
ROOT
HETATM    1  N   UNL     1     -43.227  55.298 -57.163  1.00  0.00    -0.246 N 
HETATM    2  C   UNL     1     -43.385  56.548 -57.761  1.00  0.00     0.250 C 
HETATM    3  O   UNL     1     -42.958  57.613 -57.318  1.00  0.00    -0.270 OA
HETATM    4  H   UNL     1     -43.398  54.470 -57.726  1.00  0.00     0.192 HD
ENDROOT
BRANCH   1   5
HETATM    5  N   UNL     1     -42.500  55.041 -56.024  1.00  0.00    -0.184 NA
HETATM    6  C   UNL     1     -43.113  54.522 -55.006  1.00  0.00     0.152 C 
BRANCH   6   7
HETATM    7  C   UNL     1     -42.381  54.268 -53.780  1.00  0.00     0.011 A 
HETATM    8  C   UNL     1     -41.396  53.250 -53.564  1.00  0.00     0.004 A 
HETATM    9  C   UNL     1     -40.839  52.233 -54.368  1.00  0.00     0.014 A 
HETATM   10  C   UNL     1     -40.947  53.375 -52.247  1.00  0.00     0.043 A 
HETATM   11  C   UNL     1     -39.861  51.387 -53.833  1.00  0.00     0.001 A 
HETATM   12  C   UNL     1     -39.433  51.540 -52.517  1.00  0.00     0.002 A 
HETATM   13  C   UNL     1     -39.969  52.536 -51.698  1.00  0.00     0.030 A 
HETATM   14  N   UNL     1     -41.639  54.420 -51.682  1.00  0.00    -0.364 N 
HETATM   15  H   UNL     1     -41.522  54.735 -50.729  1.00  0.00     0.165 HD
HETATM   16  C   UNL     1     -42.502  54.966 -52.592  1.00  0.00     0.102 A 
ENDBRANCH   6   7
ENDBRANCH   1   5
BRANCH   2  17
HETATM   17  C   UNL     1     -44.225  56.487 -59.039  1.00  0.00     0.197 C 
BRANCH  17  18
HETATM   18  N   UNL     1     -45.660  56.631 -58.757  1.00  0.00    -0.283 NA
HETATM   19  H   UNL     1     -45.874  57.138 -57.899  1.00  0.00     0.128 HD
BRANCH  18  20
HETATM   20  C   UNL     1     -46.466  57.098 -59.816  1.00  0.00     0.030 A 
HETATM   21  C   UNL     1     -46.673  58.479 -60.015  1.00  0.00     0.055 A 
HETATM   22 CL   UNL     1     -45.866  59.638 -59.013  1.00  0.00    -0.082 Cl
HETATM   23  C   UNL     1     -47.499  58.952 -61.039  1.00  0.00     0.026 A 
HETATM   24  C   UNL     1     -48.153  58.052 -61.875  1.00  0.00     0.002 A 
HETATM   25  C   UNL     1     -47.984  56.683 -61.682  1.00  0.00     0.002 A 
HETATM   26  C   UNL     1     -47.154  56.213 -60.659  1.00  0.00     0.025 A 
ENDBRANCH  18  20
ENDBRANCH  17  18
ENDBRANCH   2  17
TORSDOF 5
ENDMDL
MODEL 5
REMARK VINA RESULT:      -7.5      3.052      3.783
REMARK  5 active torsions:
REMARK  status: ('A' for Active; 'I' for Inactive)
REMARK    1  A    between atoms: C_8  and  C_9 
REMARK    2  A    between atoms: N_10  and  N_11 
REMARK       I    between atoms: N_11  and  C_12 
REMARK    3  A    between atoms: C_12  and  C_13 
REMARK    4  A    between atoms: C_13  and  N_14 
REMARK    5  A    between atoms: N_14  and  C_15 
ROOT
HETATM    1  N   UNL     1     -41.602  57.676 -53.161  1.00  0.00    -0.246 N 
HETATM    2  C   UNL     1     -40.998  58.914 -53.380  1.00  0.00     0.250 C 
HETATM    3  O   UNL     1     -39.819  59.184 -53.158  1.00  0.00    -0.270 OA
HETATM    4  H   UNL     1     -42.499  57.493 -53.604  1.00  0.00     0.192 HD
ENDROOT
BRANCH   1   5
HETATM    5  N   UNL     1     -40.961  56.534 -52.740  1.00  0.00    -0.184 NA
HETATM    6  C   UNL     1     -41.670  55.593 -52.199  1.00  0.00     0.152 C 
BRANCH   6   7
HETATM    7  C   UNL     1     -41.019  54.390 -51.716  1.00  0.00     0.011 A 
HETATM    8  C   UNL     1     -40.637  53.250 -52.495  1.00  0.00     0.004 A 
HETATM    9  C   UNL     1     -40.743  52.910 -53.861  1.00  0.00     0.014 A 
HETATM   10  C   UNL     1     -40.037  52.334 -51.629  1.00  0.00     0.043 A 
HETATM   11  C   UNL     1     -40.246  51.680 -54.308  1.00  0.00     0.001 A 
HETATM   12  C   UNL     1     -39.651  50.790 -53.418  1.00  0.00     0.002 A 
HETATM   13  C   UNL     1     -39.535  51.100 -52.060  1.00  0.00     0.030 A 
HETATM   14  N   UNL     1     -40.061  52.890 -50.371  1.00  0.00    -0.364 N 
HETATM   15  H   UNL     1     -39.698  52.445 -49.540  1.00  0.00     0.165 HD
HETATM   16  C   UNL     1     -40.648  54.126 -50.411  1.00  0.00     0.102 A 
ENDBRANCH   6   7
ENDBRANCH   1   5
BRANCH   2  17
HETATM   17  C   UNL     1     -41.986  59.970 -53.882  1.00  0.00     0.197 C 
BRANCH  17  18
HETATM   18  N   UNL     1     -42.988  59.394 -54.787  1.00  0.00    -0.283 NA
HETATM   19  H   UNL     1     -43.922  59.794 -54.696  1.00  0.00     0.128 HD
BRANCH  18  20
HETATM   20  C   UNL     1     -42.627  59.297 -56.147  1.00  0.00     0.030 A 
HETATM   21  C   UNL     1     -42.708  58.066 -56.833  1.00  0.00     0.055 A 
HETATM   22 CL   UNL     1     -43.342  56.663 -56.040  1.00  0.00    -0.082 Cl
HETATM   23  C   UNL     1     -42.317  57.949 -58.169  1.00  0.00     0.026 A 
HETATM   24  C   UNL     1     -41.817  59.059 -58.846  1.00  0.00     0.002 A 
HETATM   25  C   UNL     1     -41.702  60.278 -58.182  1.00  0.00     0.002 A 
HETATM   26  C   UNL     1     -42.097  60.392 -56.845  1.00  0.00     0.025 A 
ENDBRANCH  18  20
ENDBRANCH  17  18
ENDBRANCH   2  17
TORSDOF 5
ENDMDL
MODEL 6
REMARK VINA RESULT:      -7.5      5.684      9.141
REMARK  5 active torsions:
REMARK  status: ('A' for Active; 'I' for Inactive)
REMARK    1  A    between atoms: C_8  and  C_9 
REMARK    2  A    between atoms: N_10  and  N_11 
REMARK       I    between atoms: N_11  and  C_12 
REMARK    3  A    between atoms: C_12  and  C_13 
REMARK    4  A    between atoms: C_13  and  N_14 
REMARK    5  A    between atoms: N_14  and  C_15 
ROOT
HETATM    1  N   UNL     1     -41.180  55.121 -50.393  1.00  0.00    -0.246 N 
HETATM    2  C   UNL     1     -40.945  54.193 -49.378  1.00  0.00     0.250 C 
HETATM    3  O   UNL     1     -41.077  54.400 -48.174  1.00  0.00    -0.270 OA
HETATM    4  H   UNL     1     -41.281  54.778 -51.344  1.00  0.00     0.192 HD
ENDROOT
BRANCH   1   5
HETATM    5  N   UNL     1     -41.675  56.392 -50.217  1.00  0.00    -0.184 NA
HETATM    6  C   UNL     1     -41.399  57.290 -51.110  1.00  0.00     0.152 C 
BRANCH   6   7
HETATM    7  C   UNL     1     -41.879  58.647 -50.938  1.00  0.00     0.011 A 
HETATM    8  C   UNL     1     -43.137  59.175 -51.378  1.00  0.00     0.004 A 
HETATM    9  C   UNL     1     -44.244  58.634 -52.066  1.00  0.00     0.014 A 
HETATM   10  C   UNL     1     -43.185  60.517 -50.995  1.00  0.00     0.043 A 
HETATM   11  C   UNL     1     -45.350  59.446 -52.341  1.00  0.00     0.001 A 
HETATM   12  C   UNL     1     -45.368  60.780 -51.943  1.00  0.00     0.002 A 
HETATM   13  C   UNL     1     -44.284  61.342 -51.262  1.00  0.00     0.030 A 
HETATM   14  N   UNL     1     -42.000  60.797 -50.356  1.00  0.00    -0.364 N 
HETATM   15  H   UNL     1     -41.755  61.700 -49.975  1.00  0.00     0.165 HD
HETATM   16  C   UNL     1     -41.208  59.682 -50.314  1.00  0.00     0.102 A 
ENDBRANCH   6   7
ENDBRANCH   1   5
BRANCH   2  17
HETATM   17  C   UNL     1     -40.427  52.855 -49.913  1.00  0.00     0.197 C 
BRANCH  17  18
HETATM   18  N   UNL     1     -39.677  53.021 -51.165  1.00  0.00    -0.283 NA
HETATM   19  H   UNL     1     -38.715  53.337 -51.044  1.00  0.00     0.128 HD
BRANCH  18  20
HETATM   20  C   UNL     1     -39.729  51.946 -52.077  1.00  0.00     0.030 A 
HETATM   21  C   UNL     1     -40.094  52.156 -53.424  1.00  0.00     0.055 A 
HETATM   22 CL   UNL     1     -40.399  53.757 -54.009  1.00  0.00    -0.082 Cl
HETATM   23  C   UNL     1     -40.185  51.094 -54.328  1.00  0.00     0.026 A 
HETATM   24  C   UNL     1     -39.933  49.793 -53.899  1.00  0.00     0.002 A 
HETATM   25  C   UNL     1     -39.596  49.559 -52.568  1.00  0.00     0.002 A 
HETATM   26  C   UNL     1     -39.503  50.624 -51.666  1.00  0.00     0.025 A 
ENDBRANCH  18  20
ENDBRANCH  17  18
ENDBRANCH   2  17
TORSDOF 5
ENDMDL
MODEL 7
REMARK VINA RESULT:      -7.2      2.804      9.280
REMARK  5 active torsions:
REMARK  status: ('A' for Active; 'I' for Inactive)
REMARK    1  A    between atoms: C_8  and  C_9 
REMARK    2  A    between atoms: N_10  and  N_11 
REMARK       I    between atoms: N_11  and  C_12 
REMARK    3  A    between atoms: C_12  and  C_13 
REMARK    4  A    between atoms: C_13  and  N_14 
REMARK    5  A    between atoms: N_14  and  C_15 
ROOT
HETATM    1  N   UNL     1     -41.952  55.904 -56.271  1.00  0.00    -0.246 N 
HETATM    2  C   UNL     1     -42.007  55.200 -55.068  1.00  0.00     0.250 C 
HETATM    3  O   UNL     1     -43.031  54.794 -54.523  1.00  0.00    -0.270 OA
HETATM    4  H   UNL     1     -41.057  55.972 -56.748  1.00  0.00     0.192 HD
ENDROOT
BRANCH   1   5
HETATM    5  N   UNL     1     -43.024  56.187 -57.084  1.00  0.00    -0.184 NA
HETATM    6  C   UNL     1     -43.003  55.752 -58.305  1.00  0.00     0.152 C 
BRANCH   6   7
HETATM    7  C   UNL     1     -44.105  56.060 -59.197  1.00  0.00     0.011 A 
HETATM    8  C   UNL     1     -45.083  57.093 -59.028  1.00  0.00     0.004 A 
HETATM    9  C   UNL     1     -45.315  58.077 -58.042  1.00  0.00     0.014 A 
HETATM   10  C   UNL     1     -45.947  57.035 -60.123  1.00  0.00     0.043 A 
HETATM   11  C   UNL     1     -46.389  58.961 -58.189  1.00  0.00     0.001 A 
HETATM   12  C   UNL     1     -47.230  58.879 -59.296  1.00  0.00     0.002 A 
HETATM   13  C   UNL     1     -47.026  57.913 -60.284  1.00  0.00     0.030 A 
HETATM   14  N   UNL     1     -45.517  56.003 -60.923  1.00  0.00    -0.364 N 
HETATM   15  H   UNL     1     -45.959  55.726 -61.788  1.00  0.00     0.165 HD
HETATM   16  C   UNL     1     -44.410  55.410 -60.379  1.00  0.00     0.102 A 
ENDBRANCH   6   7
ENDBRANCH   1   5
BRANCH   2  17
HETATM   17  C   UNL     1     -40.629  55.024 -54.425  1.00  0.00     0.197 C 
BRANCH  17  18
HETATM   18  N   UNL     1     -40.718  54.359 -53.118  1.00  0.00    -0.283 NA
HETATM   19  H   UNL     1     -41.591  54.523 -52.618  1.00  0.00     0.128 HD
BRANCH  18  20
HETATM   20  C   UNL     1     -40.382  52.989 -53.085  1.00  0.00     0.030 A 
HETATM   21  C   UNL     1     -39.933  52.382 -51.893  1.00  0.00     0.055 A 
HETATM   22 CL   UNL     1     -39.870  53.288 -50.419  1.00  0.00    -0.082 Cl
HETATM   23  C   UNL     1     -39.563  51.035 -51.857  1.00  0.00     0.026 A 
HETATM   24  C   UNL     1     -39.615  50.269 -53.019  1.00  0.00     0.002 A 
HETATM   25  C   UNL     1     -40.030  50.853 -54.213  1.00  0.00     0.002 A 
HETATM   26  C   UNL     1     -40.403  52.201 -54.245  1.00  0.00     0.025 A 
ENDBRANCH  18  20
ENDBRANCH  17  18
ENDBRANCH   2  17
TORSDOF 5
ENDMDL
MODEL 8
REMARK VINA RESULT:      -7.0      7.438      9.135
REMARK  5 active torsions:
REMARK  status: ('A' for Active; 'I' for Inactive)
REMARK    1  A    between atoms: C_8  and  C_9 
REMARK    2  A    between atoms: N_10  and  N_11 
REMARK       I    between atoms: N_11  and  C_12 
REMARK    3  A    between atoms: C_12  and  C_13 
REMARK    4  A    between atoms: C_13  and  N_14 
REMARK    5  A    between atoms: N_14  and  C_15 
ROOT
HETATM    1  N   UNL     1     -43.893  58.821 -50.866  1.00  0.00    -0.246 N 
HETATM    2  C   UNL     1     -45.100  59.307 -50.364  1.00  0.00     0.250 C 
HETATM    3  O   UNL     1     -46.122  58.646 -50.193  1.00  0.00    -0.270 OA
HETATM    4  H   UNL     1     -43.056  59.382 -50.733  1.00  0.00     0.192 HD
ENDROOT
BRANCH   1   5
HETATM    5  N   UNL     1     -43.624  57.508 -51.175  1.00  0.00    -0.184 NA
HETATM    6  C   UNL     1     -42.407  57.081 -51.043  1.00  0.00     0.152 C 
BRANCH   6   7
HETATM    7  C   UNL     1     -42.085  55.710 -51.390  1.00  0.00     0.011 A 
HETATM    8  C   UNL     1     -41.470  55.253 -52.601  1.00  0.00     0.004 A 
HETATM    9  C   UNL     1     -41.007  55.892 -53.771  1.00  0.00     0.014 A 
HETATM   10  C   UNL     1     -41.340  53.866 -52.508  1.00  0.00     0.043 A 
HETATM   11  C   UNL     1     -40.433  55.129 -54.794  1.00  0.00     0.001 A 
HETATM   12  C   UNL     1     -40.316  53.748 -54.668  1.00  0.00     0.002 A 
HETATM   13  C   UNL     1     -40.768  53.089 -53.522  1.00  0.00     0.030 A 
HETATM   14  N   UNL     1     -41.864  53.492 -51.293  1.00  0.00    -0.364 N 
HETATM   15  H   UNL     1     -41.909  52.540 -50.957  1.00  0.00     0.165 HD
HETATM   16  C   UNL     1     -42.314  54.590 -50.612  1.00  0.00     0.102 A 
ENDBRANCH   6   7
ENDBRANCH   1   5
BRANCH   2  17
HETATM   17  C   UNL     1     -45.060  60.813 -50.090  1.00  0.00     0.197 C 
BRANCH  17  18
HETATM   18  N   UNL     1     -46.119  61.227 -49.160  1.00  0.00    -0.283 NA
HETATM   19  H   UNL     1     -46.736  60.473 -48.858  1.00  0.00     0.128 HD
BRANCH  18  20
HETATM   20  C   UNL     1     -45.718  62.006 -48.055  1.00  0.00     0.030 A 
HETATM   21  C   UNL     1     -45.751  61.479 -46.747  1.00  0.00     0.055 A 
HETATM   22 CL   UNL     1     -46.201  59.828 -46.479  1.00  0.00    -0.082 Cl
HETATM   23  C   UNL     1     -45.390  62.253 -45.640  1.00  0.00     0.026 A 
HETATM   24  C   UNL     1     -45.007  63.580 -45.816  1.00  0.00     0.002 A 
HETATM   25  C   UNL     1     -44.992  64.130 -47.096  1.00  0.00     0.002 A 
HETATM   26  C   UNL     1     -45.350  63.351 -48.202  1.00  0.00     0.025 A 
ENDBRANCH  18  20
ENDBRANCH  17  18
ENDBRANCH   2  17
TORSDOF 5
ENDMDL
MODEL 9
REMARK VINA RESULT:      -7.0      3.337      9.031
REMARK  5 active torsions:
REMARK  status: ('A' for Active; 'I' for Inactive)
REMARK    1  A    between atoms: C_8  and  C_9 
REMARK    2  A    between atoms: N_10  and  N_11 
REMARK       I    between atoms: N_11  and  C_12 
REMARK    3  A    between atoms: C_12  and  C_13 
REMARK    4  A    between atoms: C_13  and  N_14 
REMARK    5  A    between atoms: N_14  and  C_15 
ROOT
HETATM    1  N   UNL     1     -42.912  55.280 -55.251  1.00  0.00    -0.246 N 
HETATM    2  C   UNL     1     -43.359  55.637 -53.979  1.00  0.00     0.250 C 
HETATM    3  O   UNL     1     -44.043  56.623 -53.711  1.00  0.00    -0.270 OA
HETATM    4  H   UNL     1     -42.572  54.333 -55.393  1.00  0.00     0.192 HD
ENDROOT
BRANCH   1   5
HETATM    5  N   UNL     1     -43.231  55.926 -56.423  1.00  0.00    -0.184 NA
HETATM    6  C   UNL     1     -42.314  56.635 -57.004  1.00  0.00     0.152 C 
BRANCH   6   7
HETATM    7  C   UNL     1     -42.628  57.354 -58.224  1.00  0.00     0.011 A 
HETATM    8  C   UNL     1     -42.308  58.719 -58.523  1.00  0.00     0.004 A 
HETATM    9  C   UNL     1     -41.652  59.752 -57.820  1.00  0.00     0.014 A 
HETATM   10  C   UNL     1     -42.789  58.990 -59.805  1.00  0.00     0.043 A 
HETATM   11  C   UNL     1     -41.497  61.006 -58.422  1.00  0.00     0.001 A 
HETATM   12  C   UNL     1     -41.985  61.243 -59.704  1.00  0.00     0.002 A 
HETATM   13  C   UNL     1     -42.641  60.239 -60.421  1.00  0.00     0.030 A 
HETATM   14  N   UNL     1     -43.385  57.839 -60.266  1.00  0.00    -0.364 N 
HETATM   15  H   UNL     1     -43.826  57.745 -61.170  1.00  0.00     0.165 HD
HETATM   16  C   UNL     1     -43.294  56.849 -59.326  1.00  0.00     0.102 A 
ENDBRANCH   6   7
ENDBRANCH   1   5
BRANCH   2  17
HETATM   17  C   UNL     1     -42.850  54.691 -52.888  1.00  0.00     0.197 C 
BRANCH  17  18
HETATM   18  N   UNL     1     -41.383  54.619 -52.868  1.00  0.00    -0.283 NA
HETATM   19  H   UNL     1     -40.944  55.144 -52.112  1.00  0.00     0.128 HD
BRANCH  18  20
HETATM   20  C   UNL     1     -40.814  53.332 -52.968  1.00  0.00     0.030 A 
HETATM   21  C   UNL     1     -40.087  52.777 -51.894  1.00  0.00     0.055 A 
HETATM   22 CL   UNL     1     -39.953  53.630 -50.393  1.00  0.00    -0.082 Cl
HETATM   23  C   UNL     1     -39.488  51.518 -51.995  1.00  0.00     0.026 A 
HETATM   24  C   UNL     1     -39.586  50.794 -53.180  1.00  0.00     0.002 A 
HETATM   25  C   UNL     1     -40.277  51.334 -54.263  1.00  0.00     0.002 A 
HETATM   26  C   UNL     1     -40.879  52.593 -54.158  1.00  0.00     0.025 A 
ENDBRANCH  18  20
ENDBRANCH  17  18
ENDBRANCH   2  17
TORSDOF 5
ENDMDL
MODEL 10
REMARK VINA RESULT:      -6.9     14.924     16.891
REMARK  5 active torsions:
REMARK  status: ('A' for Active; 'I' for Inactive)
REMARK    1  A    between atoms: C_8  and  C_9 
REMARK    2  A    between atoms: N_10  and  N_11 
REMARK       I    between atoms: N_11  and  C_12 
REMARK    3  A    between atoms: C_12  and  C_13 
REMARK    4  A    between atoms: C_13  and  N_14 
REMARK    5  A    between atoms: N_14  and  C_15 
ROOT
HETATM    1  N   UNL     1     -38.728  39.519 -51.046  1.00  0.00    -0.246 N 
HETATM    2  C   UNL     1     -38.863  38.219 -50.560  1.00  0.00     0.250 C 
HETATM    3  O   UNL     1     -38.198  37.248 -50.917  1.00  0.00    -0.270 OA
HETATM    4  H   UNL     1     -39.145  40.277 -50.514  1.00  0.00     0.192 HD
ENDROOT
BRANCH   1   5
HETATM    5  N   UNL     1     -37.777  39.944 -51.944  1.00  0.00    -0.184 NA
HETATM    6  C   UNL     1     -37.899  41.129 -52.456  1.00  0.00     0.152 C 
BRANCH   6   7
HETATM    7  C   UNL     1     -36.930  41.595 -53.429  1.00  0.00     0.011 A 
HETATM    8  C   UNL     1     -37.063  41.561 -54.856  1.00  0.00     0.004 A 
HETATM    9  C   UNL     1     -38.066  41.110 -55.740  1.00  0.00     0.014 A 
HETATM   10  C   UNL     1     -35.902  42.117 -55.397  1.00  0.00     0.043 A 
HETATM   11  C   UNL     1     -37.876  41.234 -57.121  1.00  0.00     0.001 A 
HETATM   12  C   UNL     1     -36.708  41.797 -57.629  1.00  0.00     0.002 A 
HETATM   13  C   UNL     1     -35.697  42.248 -56.776  1.00  0.00     0.030 A 
HETATM   14  N   UNL     1     -35.091  42.467 -54.343  1.00  0.00    -0.364 N 
HETATM   15  H   UNL     1     -34.178  42.890 -54.438  1.00  0.00     0.165 HD
HETATM   16  C   UNL     1     -35.698  42.160 -53.156  1.00  0.00     0.102 A 
ENDBRANCH   6   7
ENDBRANCH   1   5
BRANCH   2  17
HETATM   17  C   UNL     1     -40.000  38.085 -49.543  1.00  0.00     0.197 C 
BRANCH  17  18
HETATM   18  N   UNL     1     -41.154  38.919 -49.903  1.00  0.00    -0.283 NA
HETATM   19  H   UNL     1     -40.921  39.761 -50.429  1.00  0.00     0.128 HD
BRANCH  18  20
HETATM   20  C   UNL     1     -42.249  38.257 -50.496  1.00  0.00     0.030 A 
HETATM   21  C   UNL     1     -43.268  37.688 -49.703  1.00  0.00     0.055 A 
HETATM   22 CL   UNL     1     -43.242  37.871 -47.981  1.00  0.00    -0.082 Cl
HETATM   23  C   UNL     1     -44.338  36.997 -50.278  1.00  0.00     0.026 A 
HETATM   24  C   UNL     1     -44.403  36.842 -51.660  1.00  0.00     0.002 A 
HETATM   25  C   UNL     1     -43.395  37.373 -52.462  1.00  0.00     0.002 A 
HETATM   26  C   UNL     1     -42.327  38.066 -51.884  1.00  0.00     0.025 A 
ENDBRANCH  18  20
ENDBRANCH  17  18
ENDBRANCH   2  17
TORSDOF 5
ENDMDL
