MODEL 1
REMARK VINA RESULT:      -8.2      0.000      0.000
REMARK  2 active torsions:
REMARK  status: ('A' for Active; 'I' for Inactive)
REMARK    1  A    between atoms: C_4  and  C_5 
REMARK    2  A    between atoms: C_10  and  C_11 
ROOT
HETATM    1  C   UNL     1     -42.035  54.280 -52.210  1.00  0.00     0.202 C 
HETATM    2  N   UNL     1     -41.311  54.860 -51.091  1.00  0.00    -0.331 N 
HETATM    3  C   UNL     1     -40.243  54.079 -50.498  1.00  0.00     0.155 C 
HETATM    4  C   UNL     1     -41.385  56.219 -50.826  1.00  0.00     0.256 C 
HETATM    5  O   UNL     1     -40.589  56.819 -50.108  1.00  0.00    -0.267 OA
HETATM    6  C   UNL     1     -42.506  56.952 -51.456  1.00  0.00     0.053 A 
HETATM    7  C   UNL     1     -43.465  56.216 -52.160  1.00  0.00     0.026 A 
HETATM    8  N   UNL     1     -43.389  54.818 -52.228  1.00  0.00    -0.266 NA
HETATM    9  C   UNL     1     -42.613  58.341 -51.320  1.00  0.00     0.019 A 
HETATM   10  C   UNL     1     -43.706  59.006 -51.873  1.00  0.00     0.001 A 
HETATM   11  C   UNL     1     -44.691  58.280 -52.539  1.00  0.00     0.002 A 
HETATM   12  C   UNL     1     -44.580  56.891 -52.666  1.00  0.00     0.024 A 
HETATM   13  H   UNL     1     -43.921  54.433 -53.004  1.00  0.00     0.130 HD
ENDROOT
BRANCH   1  14
HETATM   14  C   UNL     1     -41.259  54.414 -53.495  1.00  0.00     0.029 A 
HETATM   15  C   UNL     1     -40.440  53.421 -54.107  1.00  0.00     0.121 A 
HETATM   16  N   UNL     1     -39.889  53.854 -55.250  1.00  0.00    -0.172 NA
HETATM   17  N   UNL     1     -40.359  55.101 -55.386  1.00  0.00    -0.288 N 
HETATM   18  H   UNL     1     -40.078  55.637 -56.202  1.00  0.00     0.188 HD
HETATM   19  C   UNL     1     -41.178  55.485 -54.370  1.00  0.00     0.122 A 
BRANCH  15  20
HETATM   20  C   UNL     1     -40.190  52.040 -53.593  1.00  0.00     0.106 A 
HETATM   21  O   UNL     1     -39.916  51.728 -52.289  1.00  0.00    -0.313 OA
HETATM   22  C   UNL     1     -39.732  50.381 -52.217  1.00  0.00     0.050 A 
HETATM   23  C   UNL     1     -39.401  49.826 -50.889  1.00  0.00     0.076 C 
HETATM   24  C   UNL     1     -39.900  49.814 -53.460  1.00  0.00     0.035 A 
HETATM   25  C   UNL     1     -40.196  50.879 -54.344  1.00  0.00     0.042 A 
ENDBRANCH  15  20
ENDBRANCH   1  14
TORSDOF 2
ENDMDL
MODEL 2
REMARK VINA RESULT:      -8.1      3.388      6.437
REMARK  2 active torsions:
REMARK  status: ('A' for Active; 'I' for Inactive)
REMARK    1  A    between atoms: C_4  and  C_5 
REMARK    2  A    between atoms: C_10  and  C_11 
ROOT
HETATM    1  C   UNL     1     -41.449  57.105 -53.946  1.00  0.00     0.202 C 
HETATM    2  N   UNL     1     -41.236  56.993 -52.513  1.00  0.00    -0.331 N 
HETATM    3  C   UNL     1     -41.502  58.161 -51.696  1.00  0.00     0.155 C 
HETATM    4  C   UNL     1     -41.131  55.752 -51.906  1.00  0.00     0.256 C 
HETATM    5  O   UNL     1     -41.252  55.570 -50.697  1.00  0.00    -0.267 OA
HETATM    6  C   UNL     1     -40.849  54.605 -52.798  1.00  0.00     0.053 A 
HETATM    7  C   UNL     1     -40.590  54.865 -54.148  1.00  0.00     0.026 A 
HETATM    8  N   UNL     1     -40.554  56.180 -54.631  1.00  0.00    -0.266 NA
HETATM    9  C   UNL     1     -40.813  53.300 -52.290  1.00  0.00     0.019 A 
HETATM   10  C   UNL     1     -40.491  52.240 -53.135  1.00  0.00     0.001 A 
HETATM   11  C   UNL     1     -40.188  52.490 -54.472  1.00  0.00     0.002 A 
HETATM   12  C   UNL     1     -40.219  53.797 -54.971  1.00  0.00     0.024 A 
HETATM   13  H   UNL     1     -40.682  56.232 -55.638  1.00  0.00     0.130 HD
ENDROOT
BRANCH   1  14
HETATM   14  C   UNL     1     -42.910  56.984 -54.296  1.00  0.00     0.029 A 
HETATM   15  C   UNL     1     -43.534  57.387 -55.511  1.00  0.00     0.121 A 
HETATM   16  N   UNL     1     -44.852  57.138 -55.510  1.00  0.00    -0.172 NA
HETATM   17  N   UNL     1     -45.074  56.564 -54.320  1.00  0.00    -0.288 N 
HETATM   18  H   UNL     1     -46.020  56.274 -54.092  1.00  0.00     0.188 HD
HETATM   19  C   UNL     1     -43.953  56.448 -53.558  1.00  0.00     0.122 A 
BRANCH  15  20
HETATM   20  C   UNL     1     -42.859  58.012 -56.689  1.00  0.00     0.106 A 
HETATM   21  O   UNL     1     -42.699  57.413 -57.909  1.00  0.00    -0.313 OA
HETATM   22  C   UNL     1     -42.026  58.283 -58.711  1.00  0.00     0.050 A 
HETATM   23  C   UNL     1     -41.725  57.825 -60.083  1.00  0.00     0.076 C 
HETATM   24  C   UNL     1     -41.762  59.449 -58.027  1.00  0.00     0.035 A 
HETATM   25  C   UNL     1     -42.299  59.276 -56.729  1.00  0.00     0.042 A 
ENDBRANCH  15  20
ENDBRANCH   1  14
TORSDOF 2
ENDMDL
MODEL 3
REMARK VINA RESULT:      -8.0      2.430      4.756
REMARK  2 active torsions:
REMARK  status: ('A' for Active; 'I' for Inactive)
REMARK    1  A    between atoms: C_4  and  C_5 
REMARK    2  A    between atoms: C_10  and  C_11 
ROOT
HETATM    1  C   UNL     1     -43.745  56.764 -51.409  1.00  0.00     0.202 C 
HETATM    2  N   UNL     1     -44.684  57.533 -52.208  1.00  0.00    -0.331 N 
HETATM    3  C   UNL     1     -45.460  58.559 -51.541  1.00  0.00     0.155 C 
HETATM    4  C   UNL     1     -44.597  57.541 -53.592  1.00  0.00     0.256 C 
HETATM    5  O   UNL     1     -45.143  58.379 -54.306  1.00  0.00    -0.267 OA
HETATM    6  C   UNL     1     -43.797  56.459 -54.208  1.00  0.00     0.053 A 
HETATM    7  C   UNL     1     -43.297  55.451 -53.377  1.00  0.00     0.026 A 
HETATM    8  N   UNL     1     -43.586  55.444 -52.005  1.00  0.00    -0.266 NA
HETATM    9  C   UNL     1     -43.577  56.435 -55.590  1.00  0.00     0.019 A 
HETATM   10  C   UNL     1     -42.869  55.377 -56.158  1.00  0.00     0.001 A 
HETATM   11  C   UNL     1     -42.403  54.344 -55.346  1.00  0.00     0.002 A 
HETATM   12  C   UNL     1     -42.632  54.371 -53.966  1.00  0.00     0.024 A 
HETATM   13  H   UNL     1     -42.930  54.881 -51.468  1.00  0.00     0.130 HD
ENDROOT
BRANCH   1  14
HETATM   14  C   UNL     1     -42.471  57.533 -51.168  1.00  0.00     0.029 A 
HETATM   15  C   UNL     1     -41.246  57.018 -50.656  1.00  0.00     0.121 A 
HETATM   16  N   UNL     1     -40.298  57.962 -50.565  1.00  0.00    -0.172 NA
HETATM   17  N   UNL     1     -40.895  59.067 -51.030  1.00  0.00    -0.288 N 
HETATM   18  H   UNL     1     -40.357  59.928 -51.066  1.00  0.00     0.188 HD
HETATM   19  C   UNL     1     -42.188  58.868 -51.403  1.00  0.00     0.122 A 
BRANCH  15  20
HETATM   20  C   UNL     1     -40.979  55.602 -50.254  1.00  0.00     0.106 A 
HETATM   21  O   UNL     1     -40.603  54.604 -51.111  1.00  0.00    -0.313 OA
HETATM   22  C   UNL     1     -40.472  53.462 -50.381  1.00  0.00     0.050 A 
HETATM   23  C   UNL     1     -40.090  52.241 -51.120  1.00  0.00     0.076 C 
HETATM   24  C   UNL     1     -40.744  53.714 -49.055  1.00  0.00     0.035 A 
HETATM   25  C   UNL     1     -41.067  55.090 -48.973  1.00  0.00     0.042 A 
ENDBRANCH  15  20
ENDBRANCH   1  14
TORSDOF 2
ENDMDL
MODEL 4
REMARK VINA RESULT:      -7.9      2.125      3.775
REMARK  2 active torsions:
REMARK  status: ('A' for Active; 'I' for Inactive)
REMARK    1  A    between atoms: C_4  and  C_5 
REMARK    2  A    between atoms: C_10  and  C_11 
ROOT
HETATM    1  C   UNL     1     -41.095  56.777 -51.849  1.00  0.00     0.202 C 
HETATM    2  N   UNL     1     -41.152  57.194 -53.240  1.00  0.00    -0.331 N 
HETATM    3  C   UNL     1     -40.823  56.213 -54.255  1.00  0.00     0.155 C 
HETATM    4  C   UNL     1     -41.823  58.350 -53.607  1.00  0.00     0.256 C 
HETATM    5  O   UNL     1     -42.168  58.603 -54.759  1.00  0.00    -0.267 OA
HETATM    6  C   UNL     1     -42.117  59.313 -52.522  1.00  0.00     0.053 A 
HETATM    7  C   UNL     1     -41.599  59.054 -51.249  1.00  0.00     0.026 A 
HETATM    8  N   UNL     1     -40.785  57.935 -51.020  1.00  0.00    -0.266 NA
HETATM    9  C   UNL     1     -42.869  60.466 -52.779  1.00  0.00     0.019 A 
HETATM   10  C   UNL     1     -43.088  61.388 -51.757  1.00  0.00     0.001 A 
HETATM   11  C   UNL     1     -42.540  61.164 -50.495  1.00  0.00     0.002 A 
HETATM   12  C   UNL     1     -41.784  60.012 -50.248  1.00  0.00     0.024 A 
HETATM   13  H   UNL     1     -40.742  57.676 -50.038  1.00  0.00     0.130 HD
ENDROOT
BRANCH   1  14
HETATM   14  C   UNL     1     -42.325  56.000 -51.458  1.00  0.00     0.029 A 
HETATM   15  C   UNL     1     -42.468  54.583 -51.431  1.00  0.00     0.121 A 
HETATM   16  N   UNL     1     -43.691  54.205 -51.031  1.00  0.00    -0.172 NA
HETATM   17  N   UNL     1     -44.324  55.360 -50.784  1.00  0.00    -0.288 N 
HETATM   18  H   UNL     1     -45.283  55.324 -50.453  1.00  0.00     0.188 HD
HETATM   19  C   UNL     1     -43.557  56.458 -51.020  1.00  0.00     0.122 A 
BRANCH  15  20
HETATM   20  C   UNL     1     -41.418  53.579 -51.787  1.00  0.00     0.106 A 
HETATM   21  O   UNL     1     -41.293  52.979 -53.010  1.00  0.00    -0.313 OA
HETATM   22  C   UNL     1     -40.238  52.121 -52.942  1.00  0.00     0.050 A 
HETATM   23  C   UNL     1     -39.934  51.343 -54.160  1.00  0.00     0.076 C 
HETATM   24  C   UNL     1     -39.668  52.171 -51.689  1.00  0.00     0.035 A 
HETATM   25  C   UNL     1     -40.425  53.110 -50.948  1.00  0.00     0.042 A 
ENDBRANCH  15  20
ENDBRANCH   1  14
TORSDOF 2
ENDMDL
MODEL 5
REMARK VINA RESULT:      -7.8      2.747      6.964
REMARK  2 active torsions:
REMARK  status: ('A' for Active; 'I' for Inactive)
REMARK    1  A    between atoms: C_4  and  C_5 
REMARK    2  A    between atoms: C_10  and  C_11 
ROOT
HETATM    1  C   UNL     1     -43.083  56.779 -51.941  1.00  0.00     0.202 C 
HETATM    2  N   UNL     1     -43.211  55.624 -52.814  1.00  0.00    -0.331 N 
HETATM    3  C   UNL     1     -43.957  55.785 -54.046  1.00  0.00     0.155 C 
HETATM    4  C   UNL     1     -42.375  54.528 -52.666  1.00  0.00     0.256 C 
HETATM    5  O   UNL     1     -42.219  53.667 -53.528  1.00  0.00    -0.267 OA
HETATM    6  C   UNL     1     -41.651  54.420 -51.380  1.00  0.00     0.053 A 
HETATM    7  C   UNL     1     -41.949  55.346 -50.374  1.00  0.00     0.026 A 
HETATM    8  N   UNL     1     -42.939  56.320 -50.566  1.00  0.00    -0.266 NA
HETATM    9  C   UNL     1     -40.717  53.398 -51.171  1.00  0.00     0.019 A 
HETATM   10  C   UNL     1     -40.088  53.281 -49.934  1.00  0.00     0.001 A 
HETATM   11  C   UNL     1     -40.408  54.170 -48.909  1.00  0.00     0.002 A 
HETATM   12  C   UNL     1     -41.346  55.185 -49.122  1.00  0.00     0.024 A 
HETATM   13  H   UNL     1     -42.844  57.108 -49.930  1.00  0.00     0.130 HD
ENDROOT
BRANCH   1  14
HETATM   14  C   UNL     1     -42.016  57.723 -52.433  1.00  0.00     0.029 A 
HETATM   15  C   UNL     1     -41.928  59.122 -52.176  1.00  0.00     0.121 A 
HETATM   16  N   UNL     1     -40.854  59.676 -52.755  1.00  0.00    -0.172 NA
HETATM   17  N   UNL     1     -40.244  58.649 -53.361  1.00  0.00    -0.288 N 
HETATM   18  H   UNL     1     -39.383  58.829 -53.869  1.00  0.00     0.188 HD
HETATM   19  C   UNL     1     -40.893  57.464 -53.201  1.00  0.00     0.122 A 
BRANCH  15  20
HETATM   20  C   UNL     1     -42.883  59.935 -51.361  1.00  0.00     0.106 A 
HETATM   21  O   UNL     1     -44.216  60.082 -51.634  1.00  0.00    -0.313 OA
HETATM   22  C   UNL     1     -44.742  60.903 -50.684  1.00  0.00     0.050 A 
HETATM   23  C   UNL     1     -46.181  61.217 -50.801  1.00  0.00     0.076 C 
HETATM   24  C   UNL     1     -43.766  61.277 -49.788  1.00  0.00     0.035 A 
HETATM   25  C   UNL     1     -42.571  60.653 -50.221  1.00  0.00     0.042 A 
ENDBRANCH  15  20
ENDBRANCH   1  14
TORSDOF 2
ENDMDL
MODEL 6
REMARK VINA RESULT:      -7.7      2.283      6.819
REMARK  2 active torsions:
REMARK  status: ('A' for Active; 'I' for Inactive)
REMARK    1  A    between atoms: C_4  and  C_5 
REMARK    2  A    between atoms: C_10  and  C_11 
ROOT
HETATM    1  C   UNL     1     -41.482  56.953 -53.346  1.00  0.00     0.202 C 
HETATM    2  N   UNL     1     -41.284  56.590 -51.953  1.00  0.00    -0.331 N 
HETATM    3  C   UNL     1     -41.590  57.584 -50.943  1.00  0.00     0.155 C 
HETATM    4  C   UNL     1     -41.152  55.262 -51.578  1.00  0.00     0.256 C 
HETATM    5  O   UNL     1     -41.283  54.862 -50.423  1.00  0.00    -0.267 OA
HETATM    6  C   UNL     1     -40.829  54.302 -52.656  1.00  0.00     0.053 A 
HETATM    7  C   UNL     1     -40.561  54.807 -53.933  1.00  0.00     0.026 A 
HETATM    8  N   UNL     1     -40.555  56.189 -54.171  1.00  0.00    -0.266 NA
HETATM    9  C   UNL     1     -40.765  52.928 -52.392  1.00  0.00     0.019 A 
HETATM   10  C   UNL     1     -40.404  52.046 -53.408  1.00  0.00     0.001 A 
HETATM   11  C   UNL     1     -40.092  52.541 -54.673  1.00  0.00     0.002 A 
HETATM   12  C   UNL     1     -40.152  53.915 -54.929  1.00  0.00     0.024 A 
HETATM   13  H   UNL     1     -40.672  56.419 -55.154  1.00  0.00     0.130 HD
ENDROOT
BRANCH   1  14
HETATM   14  C   UNL     1     -42.935  56.861 -53.735  1.00  0.00     0.029 A 
HETATM   15  C   UNL     1     -43.872  57.934 -53.802  1.00  0.00     0.121 A 
HETATM   16  N   UNL     1     -45.087  57.521 -54.188  1.00  0.00    -0.172 NA
HETATM   17  N   UNL     1     -44.936  56.205 -54.387  1.00  0.00    -0.288 N 
HETATM   18  H   UNL     1     -45.739  55.668 -54.699  1.00  0.00     0.188 HD
HETATM   19  C   UNL     1     -43.676  55.760 -54.133  1.00  0.00     0.122 A 
BRANCH  15  20
HETATM   20  C   UNL     1     -43.595  59.371 -53.497  1.00  0.00     0.106 A 
HETATM   21  O   UNL     1     -43.939  60.005 -52.334  1.00  0.00    -0.313 OA
HETATM   22  C   UNL     1     -43.538  61.302 -52.438  1.00  0.00     0.050 A 
HETATM   23  C   UNL     1     -43.834  62.182 -51.289  1.00  0.00     0.076 C 
HETATM   24  C   UNL     1     -42.923  61.511 -53.651  1.00  0.00     0.035 A 
HETATM   25  C   UNL     1     -42.957  60.270 -54.332  1.00  0.00     0.042 A 
ENDBRANCH  15  20
ENDBRANCH   1  14
TORSDOF 2
ENDMDL
MODEL 7
REMARK VINA RESULT:      -7.7      2.413      3.832
REMARK  2 active torsions:
REMARK  status: ('A' for Active; 'I' for Inactive)
REMARK    1  A    between atoms: C_4  and  C_5 
REMARK    2  A    between atoms: C_10  and  C_11 
ROOT
HETATM    1  C   UNL     1     -41.243  56.056 -53.759  1.00  0.00     0.202 C 
HETATM    2  N   UNL     1     -41.781  56.019 -55.109  1.00  0.00    -0.331 N 
HETATM    3  C   UNL     1     -41.748  54.754 -55.817  1.00  0.00     0.155 C 
HETATM    4  C   UNL     1     -42.604  57.034 -55.573  1.00  0.00     0.256 C 
HETATM    5  O   UNL     1     -43.324  56.930 -56.563  1.00  0.00    -0.267 OA
HETATM    6  C   UNL     1     -42.581  58.301 -54.809  1.00  0.00     0.053 A 
HETATM    7  C   UNL     1     -41.657  58.428 -53.766  1.00  0.00     0.026 A 
HETATM    8  N   UNL     1     -40.747  57.398 -53.484  1.00  0.00    -0.266 NA
HETATM    9  C   UNL     1     -43.443  59.351 -55.146  1.00  0.00     0.019 A 
HETATM   10  C   UNL     1     -43.367  60.556 -54.451  1.00  0.00     0.001 A 
HETATM   11  C   UNL     1     -42.421  60.711 -53.439  1.00  0.00     0.002 A 
HETATM   12  C   UNL     1     -41.558  59.659 -53.111  1.00  0.00     0.024 A 
HETATM   13  H   UNL     1     -40.366  57.457 -52.543  1.00  0.00     0.130 HD
ENDROOT
BRANCH   1  14
HETATM   14  C   UNL     1     -42.226  55.502 -52.761  1.00  0.00     0.029 A 
HETATM   15  C   UNL     1     -42.174  54.227 -52.127  1.00  0.00     0.121 A 
HETATM   16  N   UNL     1     -43.199  54.038 -51.284  1.00  0.00    -0.172 NA
HETATM   17  N   UNL     1     -43.895  55.181 -51.356  1.00  0.00    -0.288 N 
HETATM   18  H   UNL     1     -44.729  55.277 -50.785  1.00  0.00     0.188 HD
HETATM   19  C   UNL     1     -43.360  56.086 -52.220  1.00  0.00     0.122 A 
BRANCH  15  20
HETATM   20  C   UNL     1     -41.125  53.180 -52.327  1.00  0.00     0.106 A 
HETATM   21  O   UNL     1     -41.037  52.360 -53.418  1.00  0.00    -0.313 OA
HETATM   22  C   UNL     1     -39.969  51.536 -53.229  1.00  0.00     0.050 A 
HETATM   23  C   UNL     1     -39.701  50.543 -54.290  1.00  0.00     0.076 C 
HETATM   24  C   UNL     1     -39.354  51.826 -52.032  1.00  0.00     0.035 A 
HETATM   25  C   UNL     1     -40.095  52.884 -51.453  1.00  0.00     0.042 A 
ENDBRANCH  15  20
ENDBRANCH   1  14
TORSDOF 2
ENDMDL
MODEL 8
REMARK VINA RESULT:      -7.7      2.588      7.060
REMARK  2 active torsions:
REMARK  status: ('A' for Active; 'I' for Inactive)
REMARK    1  A    between atoms: C_4  and  C_5 
REMARK    2  A    between atoms: C_10  and  C_11 
ROOT
HETATM    1  C   UNL     1     -43.051  56.487 -52.467  1.00  0.00     0.202 C 
HETATM    2  N   UNL     1     -43.617  55.980 -53.706  1.00  0.00    -0.331 N 
HETATM    3  C   UNL     1     -44.632  56.778 -54.364  1.00  0.00     0.155 C 
HETATM    4  C   UNL     1     -42.983  54.971 -54.415  1.00  0.00     0.256 C 
HETATM    5  O   UNL     1     -43.226  54.706 -55.590  1.00  0.00    -0.267 OA
HETATM    6  C   UNL     1     -41.965  54.189 -53.679  1.00  0.00     0.053 A 
HETATM    7  C   UNL     1     -41.805  54.433 -52.311  1.00  0.00     0.026 A 
HETATM    8  N   UNL     1     -42.620  55.362 -51.648  1.00  0.00    -0.266 NA
HETATM    9  C   UNL     1     -41.208  53.211 -54.335  1.00  0.00     0.019 A 
HETATM   10  C   UNL     1     -40.295  52.446 -53.613  1.00  0.00     0.001 A 
HETATM   11  C   UNL     1     -40.157  52.649 -52.241  1.00  0.00     0.002 A 
HETATM   12  C   UNL     1     -40.921  53.624 -51.590  1.00  0.00     0.024 A 
HETATM   13  H   UNL     1     -42.215  55.685 -50.773  1.00  0.00     0.130 HD
ENDROOT
BRANCH   1  14
HETATM   14  C   UNL     1     -42.010  57.543 -52.732  1.00  0.00     0.029 A 
HETATM   15  C   UNL     1     -42.118  58.938 -52.459  1.00  0.00     0.121 A 
HETATM   16  N   UNL     1     -41.012  59.609 -52.809  1.00  0.00    -0.172 NA
HETATM   17  N   UNL     1     -40.192  58.662 -53.282  1.00  0.00    -0.288 N 
HETATM   18  H   UNL     1     -39.270  58.938 -53.606  1.00  0.00     0.188 HD
HETATM   19  C   UNL     1     -40.735  57.415 -53.259  1.00  0.00     0.122 A 
BRANCH  15  20
HETATM   20  C   UNL     1     -43.294  59.633 -51.851  1.00  0.00     0.106 A 
HETATM   21  O   UNL     1     -44.534  59.718 -52.424  1.00  0.00    -0.313 OA
HETATM   22  C   UNL     1     -45.327  60.438 -51.583  1.00  0.00     0.050 A 
HETATM   23  C   UNL     1     -46.719  60.672 -52.020  1.00  0.00     0.076 C 
HETATM   24  C   UNL     1     -44.617  60.806 -50.462  1.00  0.00     0.035 A 
HETATM   25  C   UNL     1     -43.311  60.286 -50.633  1.00  0.00     0.042 A 
ENDBRANCH  15  20
ENDBRANCH   1  14
TORSDOF 2
ENDMDL
MODEL 9
REMARK VINA RESULT:      -7.6      2.379      3.601
REMARK  2 active torsions:
REMARK  status: ('A' for Active; 'I' for Inactive)
REMARK    1  A    between atoms: C_4  and  C_5 
REMARK    2  A    between atoms: C_10  and  C_11 
ROOT
HETATM    1  C   UNL     1     -42.658  57.364 -51.963  1.00  0.00     0.202 C 
HETATM    2  N   UNL     1     -41.835  58.419 -52.528  1.00  0.00    -0.331 N 
HETATM    3  C   UNL     1     -40.554  58.049 -53.098  1.00  0.00     0.155 C 
HETATM    4  C   UNL     1     -42.380  59.657 -52.834  1.00  0.00     0.256 C 
HETATM    5  O   UNL     1     -41.840  60.477 -53.574  1.00  0.00    -0.267 OA
HETATM    6  C   UNL     1     -43.683  59.975 -52.210  1.00  0.00     0.053 A 
HETATM    7  C   UNL     1     -44.206  59.075 -51.275  1.00  0.00     0.026 A 
HETATM    8  N   UNL     1     -43.490  57.926 -50.908  1.00  0.00    -0.266 NA
HETATM    9  C   UNL     1     -44.355  61.162 -52.529  1.00  0.00     0.019 A 
HETATM   10  C   UNL     1     -45.553  61.469 -51.888  1.00  0.00     0.001 A 
HETATM   11  C   UNL     1     -46.063  60.602 -50.923  1.00  0.00     0.002 A 
HETATM   12  C   UNL     1     -45.383  59.421 -50.605  1.00  0.00     0.024 A 
HETATM   13  H   UNL     1     -44.082  57.211 -50.494  1.00  0.00     0.130 HD
ENDROOT
BRANCH   1  14
HETATM   14  C   UNL     1     -43.388  56.602 -53.039  1.00  0.00     0.029 A 
HETATM   15  C   UNL     1     -43.129  55.268 -53.467  1.00  0.00     0.121 A 
HETATM   16  N   UNL     1     -43.961  54.879 -54.443  1.00  0.00    -0.172 NA
HETATM   17  N   UNL     1     -44.760  55.938 -54.631  1.00  0.00    -0.288 N 
HETATM   18  H   UNL     1     -45.491  55.873 -55.332  1.00  0.00     0.188 HD
HETATM   19  C   UNL     1     -44.463  56.990 -53.821  1.00  0.00     0.122 A 
BRANCH  15  20
HETATM   20  C   UNL     1     -42.075  54.354 -52.929  1.00  0.00     0.106 A 
HETATM   21  O   UNL     1     -41.875  54.085 -51.602  1.00  0.00    -0.313 OA
HETATM   22  C   UNL     1     -40.821  53.228 -51.510  1.00  0.00     0.050 A 
HETATM   23  C   UNL     1     -40.415  52.819 -50.149  1.00  0.00     0.076 C 
HETATM   24  C   UNL     1     -40.345  52.926 -52.766  1.00  0.00     0.035 A 
HETATM   25  C   UNL     1     -41.152  53.647 -53.678  1.00  0.00     0.042 A 
ENDBRANCH  15  20
ENDBRANCH   1  14
TORSDOF 2
ENDMDL
MODEL 10
REMARK VINA RESULT:      -7.4      3.113      6.251
REMARK  2 active torsions:
REMARK  status: ('A' for Active; 'I' for Inactive)
REMARK    1  A    between atoms: C_4  and  C_5 
REMARK    2  A    between atoms: C_10  and  C_11 
ROOT
HETATM    1  C   UNL     1     -42.599  56.047 -53.412  1.00  0.00     0.202 C 
HETATM    2  N   UNL     1     -41.910  54.979 -54.117  1.00  0.00    -0.331 N 
HETATM    3  C   UNL     1     -41.940  54.995 -55.567  1.00  0.00     0.155 C 
HETATM    4  C   UNL     1     -40.975  54.188 -53.467  1.00  0.00     0.256 C 
HETATM    5  O   UNL     1     -40.151  53.486 -54.049  1.00  0.00    -0.267 OA
HETATM    6  C   UNL     1     -41.007  54.212 -51.988  1.00  0.00     0.053 A 
HETATM    7  C   UNL     1     -42.037  54.920 -51.360  1.00  0.00     0.026 A 
HETATM    8  N   UNL     1     -43.037  55.551 -52.114  1.00  0.00    -0.266 NA
HETATM    9  C   UNL     1     -40.045  53.517 -51.244  1.00  0.00     0.019 A 
HETATM   10  C   UNL     1     -40.126  53.506 -49.853  1.00  0.00     0.001 A 
HETATM   11  C   UNL     1     -41.172  54.171 -49.216  1.00  0.00     0.002 A 
HETATM   12  C   UNL     1     -42.133  54.859 -49.966  1.00  0.00     0.024 A 
HETATM   13  H   UNL     1     -43.521  56.278 -51.594  1.00  0.00     0.130 HD
ENDROOT
BRANCH   1  14
HETATM   14  C   UNL     1     -41.778  57.310 -53.390  1.00  0.00     0.029 A 
HETATM   15  C   UNL     1     -41.848  58.392 -54.314  1.00  0.00     0.121 A 
HETATM   16  N   UNL     1     -40.984  59.372 -54.012  1.00  0.00    -0.172 NA
HETATM   17  N   UNL     1     -40.378  58.940 -52.898  1.00  0.00    -0.288 N 
HETATM   18  H   UNL     1     -39.674  59.534 -52.470  1.00  0.00     0.188 HD
HETATM   19  C   UNL     1     -40.813  57.720 -52.484  1.00  0.00     0.122 A 
BRANCH  15  20
HETATM   20  C   UNL     1     -42.757  58.489 -55.497  1.00  0.00     0.106 A 
HETATM   21  O   UNL     1     -44.120  58.376 -55.447  1.00  0.00    -0.313 OA
HETATM   22  C   UNL     1     -44.591  58.502 -56.719  1.00  0.00     0.050 A 
HETATM   23  C   UNL     1     -46.052  58.389 -56.900  1.00  0.00     0.076 C 
HETATM   24  C   UNL     1     -43.546  58.712 -57.591  1.00  0.00     0.035 A 
HETATM   25  C   UNL     1     -42.368  58.706 -56.806  1.00  0.00     0.042 A 
ENDBRANCH  15  20
ENDBRANCH   1  14
TORSDOF 2
ENDMDL
