MODEL 1
REMARK VINA RESULT:      -8.2      0.000      0.000
REMARK  4 active torsions:
REMARK  status: ('A' for Active; 'I' for Inactive)
REMARK    1  A    between atoms: C_9  and  C_10 
REMARK    2  A    between atoms: C_13  and  O_14 
REMARK    3  A    between atoms: C_18  and  C_19 
REMARK       I    between atoms: C_19  and  N_20 
REMARK    4  A    between atoms: N_20  and  C_21 
ROOT
HETATM    1  C   UNL     1     -41.023  56.654 -50.053  1.00  0.00     0.070 C 
HETATM    2  C   UNL     1     -41.998  57.269 -51.025  1.00  0.00     0.037 C 
HETATM    3  N   UNL     1     -42.333  58.598 -50.769  1.00  0.00    -0.192 N 
HETATM    4  C   UNL     1     -43.412  59.194 -51.313  1.00  0.00     0.725 A 
HETATM    5  N   UNL     1     -44.093  58.560 -52.318  1.00  0.00    -0.084 N 
HETATM    6  N   UNL     1     -45.201  59.245 -52.668  1.00  0.00    -0.149 NA
HETATM    7  C   UNL     1     -45.093  60.312 -51.868  1.00  0.00     0.275 A 
HETATM    8  N   UNL     1     -44.011  60.320 -51.024  1.00  0.00    -0.054 NA
HETATM    9  C   UNL     1     -43.688  57.273 -52.895  1.00  0.00     0.202 C 
HETATM   10  C   UNL     1     -42.611  56.607 -52.040  1.00  0.00     0.062 C 
HETATM   11  H   UNL     1     -41.931  59.030 -49.940  1.00  0.00     0.184 HD
ENDROOT
BRANCH  10  12
HETATM   12  C   UNL     1     -42.441  55.154 -52.319  1.00  0.00     0.256 C 
HETATM   13  N   UNL     1     -41.229  54.825 -52.886  1.00  0.00    -0.323 N 
HETATM   14  H   UNL     1     -40.614  55.590 -53.134  1.00  0.00     0.169 HD
HETATM   15  O   UNL     1     -43.367  54.394 -52.060  1.00  0.00    -0.267 OA
BRANCH  13  16
HETATM   16  C   UNL     1     -40.712  53.526 -53.091  1.00  0.00     0.035 A 
HETATM   17  C   UNL     1     -40.801  52.831 -54.299  1.00  0.00     0.031 A 
HETATM   18  C   UNL     1     -40.310  51.525 -54.407  1.00  0.00     0.026 A 
HETATM   19  C   UNL     1     -39.730  50.907 -53.305  1.00  0.00     0.034 A 
HETATM   20 CL   UNL     1     -39.145  49.294 -53.434  1.00  0.00    -0.084 Cl
HETATM   21  C   UNL     1     -39.627  51.587 -52.096  1.00  0.00     0.026 A 
HETATM   22  C   UNL     1     -40.112  52.896 -51.991  1.00  0.00     0.031 A 
ENDBRANCH  13  16
ENDBRANCH  10  12
BRANCH   9  23
HETATM   23  C   UNL     1     -43.240  57.467 -54.342  1.00  0.00    -0.028 A 
HETATM   24  C   UNL     1     -42.473  58.574 -54.740  1.00  0.00     0.012 A 
HETATM   25  C   UNL     1     -42.115  58.745 -56.080  1.00  0.00     0.037 A 
HETATM   26  C   UNL     1     -42.507  57.818 -57.047  1.00  0.00     0.068 A 
HETATM   27  C   UNL     1     -43.238  56.697 -56.657  1.00  0.00     0.037 A 
HETATM   28  C   UNL     1     -43.598  56.522 -55.316  1.00  0.00     0.012 A 
BRANCH  26  29
HETATM   29  O   UNL     1     -42.111  58.117 -58.321  1.00  0.00    -0.356 OA
HETATM   30  C   UNL     1     -42.646  57.306 -59.360  1.00  0.00     0.210 C 
ENDBRANCH  26  29
ENDBRANCH   9  23
TORSDOF 4
ENDMDL
MODEL 2
REMARK VINA RESULT:      -8.1      2.960      5.892
REMARK  4 active torsions:
REMARK  status: ('A' for Active; 'I' for Inactive)
REMARK    1  A    between atoms: C_9  and  C_10 
REMARK    2  A    between atoms: C_13  and  O_14 
REMARK    3  A    between atoms: C_18  and  C_19 
REMARK       I    between atoms: C_19  and  N_20 
REMARK    4  A    between atoms: N_20  and  C_21 
ROOT
HETATM    1  C   UNL     1     -45.208  58.538 -51.854  1.00  0.00     0.070 C 
HETATM    2  C   UNL     1     -43.737  58.254 -52.031  1.00  0.00     0.037 C 
HETATM    3  N   UNL     1     -42.917  58.705 -50.998  1.00  0.00    -0.192 N 
HETATM    4  C   UNL     1     -41.582  58.838 -51.135  1.00  0.00     0.725 A 
HETATM    5  N   UNL     1     -40.966  58.318 -52.240  1.00  0.00    -0.084 N 
HETATM    6  N   UNL     1     -39.655  58.635 -52.266  1.00  0.00    -0.149 NA
HETATM    7  C   UNL     1     -39.541  59.302 -51.112  1.00  0.00     0.275 A 
HETATM    8  N   UNL     1     -40.698  59.447 -50.388  1.00  0.00    -0.054 NA
HETATM    9  C   UNL     1     -41.664  57.560 -53.285  1.00  0.00     0.202 C 
HETATM   10  C   UNL     1     -43.179  57.688 -53.132  1.00  0.00     0.062 C 
HETATM   11  H   UNL     1     -43.360  59.214 -50.237  1.00  0.00     0.184 HD
ENDROOT
BRANCH  10  12
HETATM   12  C   UNL     1     -43.937  57.300 -54.354  1.00  0.00     0.256 C 
HETATM   13  N   UNL     1     -43.323  57.651 -55.536  1.00  0.00    -0.323 N 
HETATM   14  H   UNL     1     -42.477  58.202 -55.469  1.00  0.00     0.169 HD
HETATM   15  O   UNL     1     -45.021  56.744 -54.220  1.00  0.00    -0.267 OA
BRANCH  13  16
HETATM   16  C   UNL     1     -43.703  57.259 -56.839  1.00  0.00     0.035 A 
HETATM   17  C   UNL     1     -44.711  57.880 -57.579  1.00  0.00     0.031 A 
HETATM   18  C   UNL     1     -45.065  57.399 -58.845  1.00  0.00     0.026 A 
HETATM   19  C   UNL     1     -44.413  56.291 -59.375  1.00  0.00     0.034 A 
HETATM   20 CL   UNL     1     -44.863  55.689 -60.922  1.00  0.00    -0.084 Cl
HETATM   21  C   UNL     1     -43.402  55.664 -58.653  1.00  0.00     0.026 A 
HETATM   22  C   UNL     1     -43.044  56.151 -57.391  1.00  0.00     0.031 A 
ENDBRANCH  13  16
ENDBRANCH  10  12
BRANCH   9  23
HETATM   23  C   UNL     1     -41.202  56.104 -53.271  1.00  0.00    -0.028 A 
HETATM   24  C   UNL     1     -40.650  55.489 -54.407  1.00  0.00     0.012 A 
HETATM   25  C   UNL     1     -40.276  54.143 -54.374  1.00  0.00     0.037 A 
HETATM   26  C   UNL     1     -40.440  53.385 -53.213  1.00  0.00     0.068 A 
HETATM   27  C   UNL     1     -40.953  53.996 -52.070  1.00  0.00     0.037 A 
HETATM   28  C   UNL     1     -41.328  55.344 -52.098  1.00  0.00     0.012 A 
BRANCH  26  29
HETATM   29  O   UNL     1     -40.056  52.077 -53.324  1.00  0.00    -0.356 OA
HETATM   30  C   UNL     1     -39.429  51.500 -52.185  1.00  0.00     0.210 C 
ENDBRANCH  26  29
ENDBRANCH   9  23
TORSDOF 4
ENDMDL
MODEL 3
REMARK VINA RESULT:      -8.1      2.528      4.820
REMARK  4 active torsions:
REMARK  status: ('A' for Active; 'I' for Inactive)
REMARK    1  A    between atoms: C_9  and  C_10 
REMARK    2  A    between atoms: C_13  and  O_14 
REMARK    3  A    between atoms: C_18  and  C_19 
REMARK       I    between atoms: C_19  and  N_20 
REMARK    4  A    between atoms: N_20  and  C_21 
ROOT
HETATM    1  C   UNL     1     -43.523  55.320 -58.308  1.00  0.00     0.070 C 
HETATM    2  C   UNL     1     -43.206  56.429 -57.337  1.00  0.00     0.037 C 
HETATM    3  N   UNL     1     -43.344  57.720 -57.845  1.00  0.00    -0.192 N 
HETATM    4  C   UNL     1     -42.797  58.798 -57.249  1.00  0.00     0.725 A 
HETATM    5  N   UNL     1     -42.269  58.674 -55.993  1.00  0.00    -0.084 N 
HETATM    6  N   UNL     1     -41.672  59.817 -55.596  1.00  0.00    -0.149 NA
HETATM    7  C   UNL     1     -41.930  60.605 -56.646  1.00  0.00     0.275 A 
HETATM    8  N   UNL     1     -42.618  60.021 -57.679  1.00  0.00    -0.054 NA
HETATM    9  C   UNL     1     -42.306  57.434 -55.209  1.00  0.00     0.202 C 
HETATM   10  C   UNL     1     -42.729  56.251 -56.078  1.00  0.00     0.062 C 
HETATM   11  H   UNL     1     -43.606  57.812 -58.824  1.00  0.00     0.184 HD
ENDROOT
BRANCH  10  12
HETATM   12  C   UNL     1     -42.407  54.926 -55.481  1.00  0.00     0.256 C 
HETATM   13  N   UNL     1     -41.171  54.865 -54.874  1.00  0.00    -0.323 N 
HETATM   14  H   UNL     1     -40.575  55.678 -54.962  1.00  0.00     0.169 HD
HETATM   15  O   UNL     1     -43.221  54.017 -55.594  1.00  0.00    -0.267 OA
BRANCH  13  16
HETATM   16  C   UNL     1     -40.671  53.815 -54.072  1.00  0.00     0.035 A 
HETATM   17  C   UNL     1     -40.135  52.630 -54.581  1.00  0.00     0.031 A 
HETATM   18  C   UNL     1     -39.706  51.614 -53.719  1.00  0.00     0.026 A 
HETATM   19  C   UNL     1     -39.816  51.778 -52.342  1.00  0.00     0.034 A 
HETATM   20 CL   UNL     1     -39.308  50.520 -51.284  1.00  0.00    -0.084 Cl
HETATM   21  C   UNL     1     -40.341  52.955 -51.819  1.00  0.00     0.026 A 
HETATM   22  C   UNL     1     -40.762  53.973 -52.682  1.00  0.00     0.031 A 
ENDBRANCH  13  16
ENDBRANCH  10  12
BRANCH   9  23
HETATM   23  C   UNL     1     -43.213  57.612 -53.993  1.00  0.00    -0.028 A 
HETATM   24  C   UNL     1     -44.463  58.248 -54.085  1.00  0.00     0.012 A 
HETATM   25  C   UNL     1     -45.251  58.433 -52.946  1.00  0.00     0.037 A 
HETATM   26  C   UNL     1     -44.816  57.986 -51.698  1.00  0.00     0.068 A 
HETATM   27  C   UNL     1     -43.595  57.321 -51.601  1.00  0.00     0.037 A 
HETATM   28  C   UNL     1     -42.802  57.133 -52.739  1.00  0.00     0.012 A 
BRANCH  26  29
HETATM   29  O   UNL     1     -45.672  58.251 -50.664  1.00  0.00    -0.356 OA
HETATM   30  C   UNL     1     -45.705  59.593 -50.194  1.00  0.00     0.210 C 
ENDBRANCH  26  29
ENDBRANCH   9  23
TORSDOF 4
ENDMDL
MODEL 4
REMARK VINA RESULT:      -7.9      3.469      6.376
REMARK  4 active torsions:
REMARK  status: ('A' for Active; 'I' for Inactive)
REMARK    1  A    between atoms: C_9  and  C_10 
REMARK    2  A    between atoms: C_13  and  O_14 
REMARK    3  A    between atoms: C_18  and  C_19 
REMARK       I    between atoms: C_19  and  N_20 
REMARK    4  A    between atoms: N_20  and  C_21 
ROOT
HETATM    1  C   UNL     1     -40.404  53.455 -54.606  1.00  0.00     0.070 C 
HETATM    2  C   UNL     1     -40.853  54.029 -53.285  1.00  0.00     0.037 C 
HETATM    3  N   UNL     1     -40.081  53.660 -52.185  1.00  0.00    -0.192 N 
HETATM    4  C   UNL     1     -40.513  53.796 -50.915  1.00  0.00     0.725 A 
HETATM    5  N   UNL     1     -41.651  54.514 -50.667  1.00  0.00    -0.084 N 
HETATM    6  N   UNL     1     -41.994  54.457 -49.363  1.00  0.00    -0.149 NA
HETATM    7  C   UNL     1     -40.981  53.731 -48.876  1.00  0.00     0.275 A 
HETATM    8  N   UNL     1     -40.052  53.309 -49.792  1.00  0.00    -0.054 NA
HETATM    9  C   UNL     1     -42.423  55.208 -51.705  1.00  0.00     0.202 C 
HETATM   10  C   UNL     1     -41.969  54.780 -53.100  1.00  0.00     0.062 C 
HETATM   11  H   UNL     1     -39.312  53.014 -52.348  1.00  0.00     0.184 HD
ENDROOT
BRANCH  10  12
HETATM   12  C   UNL     1     -42.945  55.115 -54.174  1.00  0.00     0.256 C 
HETATM   13  N   UNL     1     -42.521  56.106 -55.033  1.00  0.00    -0.323 N 
HETATM   14  H   UNL     1     -41.646  56.563 -54.812  1.00  0.00     0.169 HD
HETATM   15  O   UNL     1     -44.020  54.528 -54.194  1.00  0.00    -0.267 OA
BRANCH  13  16
HETATM   16  C   UNL     1     -43.139  56.503 -56.240  1.00  0.00     0.035 A 
HETATM   17  C   UNL     1     -43.979  57.612 -56.359  1.00  0.00     0.031 A 
HETATM   18  C   UNL     1     -44.596  57.912 -57.579  1.00  0.00     0.026 A 
HETATM   19  C   UNL     1     -44.375  57.100 -58.686  1.00  0.00     0.034 A 
HETATM   20 CL   UNL     1     -45.149  57.457 -60.181  1.00  0.00    -0.084 Cl
HETATM   21  C   UNL     1     -43.536  55.995 -58.587  1.00  0.00     0.026 A 
HETATM   22  C   UNL     1     -42.914  55.702 -57.368  1.00  0.00     0.031 A 
ENDBRANCH  13  16
ENDBRANCH  10  12
BRANCH   9  23
HETATM   23  C   UNL     1     -42.328  56.719 -51.504  1.00  0.00    -0.028 A 
HETATM   24  C   UNL     1     -41.099  57.364 -51.289  1.00  0.00     0.012 A 
HETATM   25  C   UNL     1     -41.050  58.743 -51.067  1.00  0.00     0.037 A 
HETATM   26  C   UNL     1     -42.218  59.506 -51.058  1.00  0.00     0.068 A 
HETATM   27  C   UNL     1     -43.440  58.882 -51.306  1.00  0.00     0.037 A 
HETATM   28  C   UNL     1     -43.493  57.501 -51.530  1.00  0.00     0.012 A 
BRANCH  26  29
HETATM   29  O   UNL     1     -42.031  60.836 -50.805  1.00  0.00    -0.356 OA
HETATM   30  C   UNL     1     -43.204  61.621 -50.629  1.00  0.00     0.210 C 
ENDBRANCH  26  29
ENDBRANCH   9  23
TORSDOF 4
ENDMDL
MODEL 5
REMARK VINA RESULT:      -7.7      3.283      5.382
REMARK  4 active torsions:
REMARK  status: ('A' for Active; 'I' for Inactive)
REMARK    1  A    between atoms: C_9  and  C_10 
REMARK    2  A    between atoms: C_13  and  O_14 
REMARK    3  A    between atoms: C_18  and  C_19 
REMARK       I    between atoms: C_19  and  N_20 
REMARK    4  A    between atoms: N_20  and  C_21 
ROOT
HETATM    1  C   UNL     1     -43.541  55.458 -59.295  1.00  0.00     0.070 C 
HETATM    2  C   UNL     1     -43.146  56.708 -58.550  1.00  0.00     0.037 C 
HETATM    3  N   UNL     1     -43.140  57.875 -59.311  1.00  0.00    -0.192 N 
HETATM    4  C   UNL     1     -42.509  58.999 -58.914  1.00  0.00     0.725 A 
HETATM    5  N   UNL     1     -42.037  59.085 -57.633  1.00  0.00    -0.084 N 
HETATM    6  N   UNL     1     -41.342  60.227 -57.441  1.00  0.00    -0.149 NA
HETATM    7  C   UNL     1     -41.487  60.805 -58.639  1.00  0.00     0.275 A 
HETATM    8  N   UNL     1     -42.196  60.087 -59.569  1.00  0.00    -0.054 NA
HETATM    9  C   UNL     1     -42.221  58.039 -56.620  1.00  0.00     0.202 C 
HETATM   10  C   UNL     1     -42.730  56.747 -57.258  1.00  0.00     0.062 C 
HETATM   11  H   UNL     1     -43.360  57.790 -60.301  1.00  0.00     0.184 HD
ENDROOT
BRANCH  10  12
HETATM   12  C   UNL     1     -42.560  55.547 -56.392  1.00  0.00     0.256 C 
HETATM   13  N   UNL     1     -41.397  55.543 -55.654  1.00  0.00    -0.323 N 
HETATM   14  H   UNL     1     -40.740  56.295 -55.825  1.00  0.00     0.169 HD
HETATM   15  O   UNL     1     -43.420  54.675 -56.423  1.00  0.00    -0.267 OA
BRANCH  13  16
HETATM   16  C   UNL     1     -41.051  54.645 -54.621  1.00  0.00     0.035 A 
HETATM   17  C   UNL     1     -41.302  54.877 -53.266  1.00  0.00     0.031 A 
HETATM   18  C   UNL     1     -40.882  53.960 -52.296  1.00  0.00     0.026 A 
HETATM   19  C   UNL     1     -40.205  52.806 -52.677  1.00  0.00     0.034 A 
HETATM   20 CL   UNL     1     -39.671  51.690 -51.482  1.00  0.00    -0.084 Cl
HETATM   21  C   UNL     1     -39.952  52.557 -54.022  1.00  0.00     0.026 A 
HETATM   22  C   UNL     1     -40.380  53.471 -54.991  1.00  0.00     0.031 A 
ENDBRANCH  13  16
ENDBRANCH  10  12
BRANCH   9  23
HETATM   23  C   UNL     1     -43.145  58.541 -55.513  1.00  0.00    -0.028 A 
HETATM   24  C   UNL     1     -42.711  58.666 -54.182  1.00  0.00     0.012 A 
HETATM   25  C   UNL     1     -43.593  59.088 -53.184  1.00  0.00     0.037 A 
HETATM   26  C   UNL     1     -44.919  59.398 -53.489  1.00  0.00     0.068 A 
HETATM   27  C   UNL     1     -45.351  59.313 -54.812  1.00  0.00     0.037 A 
HETATM   28  C   UNL     1     -44.470  58.891 -55.815  1.00  0.00     0.012 A 
BRANCH  26  29
HETATM   29  O   UNL     1     -45.680  59.775 -52.417  1.00  0.00    -0.356 OA
HETATM   30  C   UNL     1     -45.443  59.088 -51.195  1.00  0.00     0.210 C 
ENDBRANCH  26  29
ENDBRANCH   9  23
TORSDOF 4
ENDMDL
MODEL 6
REMARK VINA RESULT:      -7.4      2.448      3.882
REMARK  4 active torsions:
REMARK  status: ('A' for Active; 'I' for Inactive)
REMARK    1  A    between atoms: C_9  and  C_10 
REMARK    2  A    between atoms: C_13  and  O_14 
REMARK    3  A    between atoms: C_18  and  C_19 
REMARK       I    between atoms: C_19  and  N_20 
REMARK    4  A    between atoms: N_20  and  C_21 
ROOT
HETATM    1  C   UNL     1     -44.383  54.316 -50.720  1.00  0.00     0.070 C 
HETATM    2  C   UNL     1     -44.124  55.757 -51.083  1.00  0.00     0.037 C 
HETATM    3  N   UNL     1     -44.938  56.687 -50.438  1.00  0.00    -0.192 N 
HETATM    4  C   UNL     1     -45.078  57.955 -50.873  1.00  0.00     0.725 A 
HETATM    5  N   UNL     1     -44.240  58.427 -51.847  1.00  0.00    -0.084 N 
HETATM    6  N   UNL     1     -44.589  59.671 -52.235  1.00  0.00    -0.149 NA
HETATM    7  C   UNL     1     -45.615  59.906 -51.409  1.00  0.00     0.275 A 
HETATM    8  N   UNL     1     -45.945  58.882 -50.558  1.00  0.00    -0.054 NA
HETATM    9  C   UNL     1     -43.139  57.648 -52.426  1.00  0.00     0.202 C 
HETATM   10  C   UNL     1     -43.242  56.177 -52.026  1.00  0.00     0.062 C 
HETATM   11  H   UNL     1     -45.656  56.327 -49.814  1.00  0.00     0.184 HD
ENDROOT
BRANCH  10  12
HETATM   12  C   UNL     1     -42.425  55.268 -52.877  1.00  0.00     0.256 C 
HETATM   13  N   UNL     1     -41.728  54.310 -52.174  1.00  0.00    -0.323 N 
HETATM   14  H   UNL     1     -41.766  54.362 -51.164  1.00  0.00     0.169 HD
HETATM   15  O   UNL     1     -42.412  55.453 -54.088  1.00  0.00    -0.267 OA
BRANCH  13  16
HETATM   16  C   UNL     1     -41.025  53.208 -52.710  1.00  0.00     0.035 A 
HETATM   17  C   UNL     1     -41.254  52.679 -53.982  1.00  0.00     0.031 A 
HETATM   18  C   UNL     1     -40.551  51.552 -54.423  1.00  0.00     0.026 A 
HETATM   19  C   UNL     1     -39.616  50.947 -53.590  1.00  0.00     0.034 A 
HETATM   20 CL   UNL     1     -38.768  49.549 -54.124  1.00  0.00    -0.084 Cl
HETATM   21  C   UNL     1     -39.371  51.465 -52.322  1.00  0.00     0.026 A 
HETATM   22  C   UNL     1     -40.069  52.597 -51.886  1.00  0.00     0.031 A 
ENDBRANCH  13  16
ENDBRANCH  10  12
BRANCH   9  23
HETATM   23  C   UNL     1     -41.798  58.263 -52.029  1.00  0.00    -0.028 A 
HETATM   24  C   UNL     1     -40.772  58.476 -52.964  1.00  0.00     0.012 A 
HETATM   25  C   UNL     1     -39.542  59.001 -52.561  1.00  0.00     0.037 A 
HETATM   26  C   UNL     1     -39.310  59.330 -51.225  1.00  0.00     0.068 A 
HETATM   27  C   UNL     1     -40.334  59.157 -50.295  1.00  0.00     0.037 A 
HETATM   28  C   UNL     1     -41.568  58.631 -50.694  1.00  0.00     0.012 A 
BRANCH  26  29
HETATM   29  O   UNL     1     -38.058  59.812 -50.962  1.00  0.00    -0.356 OA
HETATM   30  C   UNL     1     -37.711  59.968 -49.592  1.00  0.00     0.210 C 
ENDBRANCH  26  29
ENDBRANCH   9  23
TORSDOF 4
ENDMDL
MODEL 7
REMARK VINA RESULT:      -7.4      1.865      2.153
REMARK  4 active torsions:
REMARK  status: ('A' for Active; 'I' for Inactive)
REMARK    1  A    between atoms: C_9  and  C_10 
REMARK    2  A    between atoms: C_13  and  O_14 
REMARK    3  A    between atoms: C_18  and  C_19 
REMARK       I    between atoms: C_19  and  N_20 
REMARK    4  A    between atoms: N_20  and  C_21 
ROOT
HETATM    1  C   UNL     1     -39.851  59.171 -51.047  1.00  0.00     0.070 C 
HETATM    2  C   UNL     1     -41.324  59.124 -51.371  1.00  0.00     0.037 C 
HETATM    3  N   UNL     1     -42.104  60.078 -50.721  1.00  0.00    -0.192 N 
HETATM    4  C   UNL     1     -43.446  59.979 -50.628  1.00  0.00     0.725 A 
HETATM    5  N   UNL     1     -44.101  59.035 -51.370  1.00  0.00    -0.084 N 
HETATM    6  N   UNL     1     -45.418  59.005 -51.075  1.00  0.00    -0.149 NA
HETATM    7  C   UNL     1     -45.491  59.999 -50.183  1.00  0.00     0.275 A 
HETATM    8  N   UNL     1     -44.307  60.623 -49.883  1.00  0.00    -0.054 NA
HETATM    9  C   UNL     1     -43.438  58.139 -52.324  1.00  0.00     0.202 C 
HETATM   10  C   UNL     1     -41.920  58.191 -52.157  1.00  0.00     0.062 C 
HETATM   11  H   UNL     1     -41.637  60.696 -50.061  1.00  0.00     0.184 HD
ENDROOT
BRANCH  10  12
HETATM   12  C   UNL     1     -41.210  57.043 -52.786  1.00  0.00     0.256 C 
HETATM   13  N   UNL     1     -41.455  55.828 -52.184  1.00  0.00    -0.323 N 
HETATM   14  H   UNL     1     -42.013  55.838 -51.339  1.00  0.00     0.169 HD
HETATM   15  O   UNL     1     -40.468  57.261 -53.737  1.00  0.00    -0.267 OA
BRANCH  13  16
HETATM   16  C   UNL     1     -41.078  54.554 -52.661  1.00  0.00     0.035 A 
HETATM   17  C   UNL     1     -41.403  54.066 -53.928  1.00  0.00     0.031 A 
HETATM   18  C   UNL     1     -41.036  52.770 -54.309  1.00  0.00     0.026 A 
HETATM   19  C   UNL     1     -40.344  51.955 -53.420  1.00  0.00     0.034 A 
HETATM   20 CL   UNL     1     -39.911  50.355 -53.882  1.00  0.00    -0.084 Cl
HETATM   21  C   UNL     1     -40.006  52.427 -52.156  1.00  0.00     0.026 A 
HETATM   22  C   UNL     1     -40.367  53.726 -51.780  1.00  0.00     0.031 A 
ENDBRANCH  13  16
ENDBRANCH  10  12
BRANCH   9  23
HETATM   23  C   UNL     1     -43.875  58.476 -53.749  1.00  0.00    -0.028 A 
HETATM   24  C   UNL     1     -44.737  57.641 -54.479  1.00  0.00     0.012 A 
HETATM   25  C   UNL     1     -45.085  57.956 -55.795  1.00  0.00     0.037 A 
HETATM   26  C   UNL     1     -44.587  59.106 -56.408  1.00  0.00     0.068 A 
HETATM   27  C   UNL     1     -43.760  59.961 -55.681  1.00  0.00     0.037 A 
HETATM   28  C   UNL     1     -43.410  59.649 -54.362  1.00  0.00     0.012 A 
BRANCH  26  29
HETATM   29  O   UNL     1     -44.986  59.283 -57.704  1.00  0.00    -0.356 OA
HETATM   30  C   UNL     1     -45.213  58.104 -58.466  1.00  0.00     0.210 C 
ENDBRANCH  26  29
ENDBRANCH   9  23
TORSDOF 4
ENDMDL
MODEL 8
REMARK VINA RESULT:      -7.4      3.361      6.514
REMARK  4 active torsions:
REMARK  status: ('A' for Active; 'I' for Inactive)
REMARK    1  A    between atoms: C_9  and  C_10 
REMARK    2  A    between atoms: C_13  and  O_14 
REMARK    3  A    between atoms: C_18  and  C_19 
REMARK       I    between atoms: C_19  and  N_20 
REMARK    4  A    between atoms: N_20  and  C_21 
ROOT
HETATM    1  C   UNL     1     -44.346  56.688 -51.169  1.00  0.00     0.070 C 
HETATM    2  C   UNL     1     -43.055  55.920 -51.037  1.00  0.00     0.037 C 
HETATM    3  N   UNL     1     -42.856  55.300 -49.805  1.00  0.00    -0.192 N 
HETATM    4  C   UNL     1     -41.648  54.865 -49.396  1.00  0.00     0.725 A 
HETATM    5  N   UNL     1     -40.612  54.826 -50.290  1.00  0.00    -0.084 N 
HETATM    6  N   UNL     1     -39.457  54.470 -49.688  1.00  0.00    -0.149 NA
HETATM    7  C   UNL     1     -39.888  54.255 -48.440  1.00  0.00     0.275 A 
HETATM    8  N   UNL     1     -41.223  54.484 -48.219  1.00  0.00    -0.054 NA
HETATM    9  C   UNL     1     -40.741  55.181 -51.708  1.00  0.00     0.202 C 
HETATM   10  C   UNL     1     -42.076  55.873 -51.978  1.00  0.00     0.062 C 
HETATM   11  H   UNL     1     -43.566  55.442 -49.090  1.00  0.00     0.184 HD
ENDROOT
BRANCH  10  12
HETATM   12  C   UNL     1     -42.115  56.612 -53.270  1.00  0.00     0.256 C 
HETATM   13  N   UNL     1     -42.977  56.075 -54.202  1.00  0.00    -0.323 N 
HETATM   14  H   UNL     1     -43.429  55.202 -53.962  1.00  0.00     0.169 HD
HETATM   15  O   UNL     1     -41.386  57.586 -53.412  1.00  0.00    -0.267 OA
BRANCH  13  16
HETATM   16  C   UNL     1     -43.362  56.652 -55.432  1.00  0.00     0.035 A 
HETATM   17  C   UNL     1     -44.316  57.664 -55.556  1.00  0.00     0.031 A 
HETATM   18  C   UNL     1     -44.682  58.149 -56.818  1.00  0.00     0.026 A 
HETATM   19  C   UNL     1     -44.095  57.620 -57.962  1.00  0.00     0.034 A 
HETATM   20 CL   UNL     1     -44.560  58.203 -59.513  1.00  0.00    -0.084 Cl
HETATM   21  C   UNL     1     -43.138  56.616 -57.856  1.00  0.00     0.026 A 
HETATM   22  C   UNL     1     -42.768  56.138 -56.594  1.00  0.00     0.031 A 
ENDBRANCH  13  16
ENDBRANCH  10  12
BRANCH   9  23
HETATM   23  C   UNL     1     -40.546  53.940 -52.577  1.00  0.00    -0.028 A 
HETATM   24  C   UNL     1     -40.448  52.653 -52.022  1.00  0.00     0.012 A 
HETATM   25  C   UNL     1     -40.228  51.542 -52.841  1.00  0.00     0.037 A 
HETATM   26  C   UNL     1     -40.107  51.688 -54.223  1.00  0.00     0.068 A 
HETATM   27  C   UNL     1     -40.239  52.956 -54.788  1.00  0.00     0.037 A 
HETATM   28  C   UNL     1     -40.460  54.071 -53.972  1.00  0.00     0.012 A 
BRANCH  26  29
HETATM   29  O   UNL     1     -39.870  50.525 -54.904  1.00  0.00    -0.356 OA
HETATM   30  C   UNL     1     -39.401  49.424 -54.136  1.00  0.00     0.210 C 
ENDBRANCH  26  29
ENDBRANCH   9  23
TORSDOF 4
ENDMDL
MODEL 9
REMARK VINA RESULT:      -7.3      3.421      5.353
REMARK  4 active torsions:
REMARK  status: ('A' for Active; 'I' for Inactive)
REMARK    1  A    between atoms: C_9  and  C_10 
REMARK    2  A    between atoms: C_13  and  O_14 
REMARK    3  A    between atoms: C_18  and  C_19 
REMARK       I    between atoms: C_19  and  N_20 
REMARK    4  A    between atoms: N_20  and  C_21 
ROOT
HETATM    1  C   UNL     1     -43.211  53.719 -55.685  1.00  0.00     0.070 C 
HETATM    2  C   UNL     1     -43.015  55.142 -56.146  1.00  0.00     0.037 C 
HETATM    3  N   UNL     1     -43.581  55.448 -57.382  1.00  0.00    -0.192 N 
HETATM    4  C   UNL     1     -43.232  56.540 -58.092  1.00  0.00     0.725 A 
HETATM    5  N   UNL     1     -42.459  57.503 -57.502  1.00  0.00    -0.084 N 
HETATM    6  N   UNL     1     -42.117  58.466 -58.384  1.00  0.00    -0.149 NA
HETATM    7  C   UNL     1     -42.769  58.044 -59.473  1.00  0.00     0.275 A 
HETATM    8  N   UNL     1     -43.465  56.869 -59.336  1.00  0.00    -0.054 NA
HETATM    9  C   UNL     1     -42.018  57.456 -56.103  1.00  0.00     0.202 C 
HETATM   10  C   UNL     1     -42.275  56.077 -55.497  1.00  0.00     0.062 C 
HETATM   11  H   UNL     1     -44.041  54.694 -57.886  1.00  0.00     0.184 HD
ENDROOT
BRANCH  10  12
HETATM   12  C   UNL     1     -41.509  55.823 -54.245  1.00  0.00     0.256 C 
HETATM   13  N   UNL     1     -42.285  55.764 -53.109  1.00  0.00    -0.323 N 
HETATM   14  H   UNL     1     -43.269  55.978 -53.212  1.00  0.00     0.169 HD
HETATM   15  O   UNL     1     -40.290  55.718 -54.315  1.00  0.00    -0.267 OA
BRANCH  13  16
HETATM   16  C   UNL     1     -41.873  55.360 -51.820  1.00  0.00     0.035 A 
HETATM   17  C   UNL     1     -41.723  56.231 -50.738  1.00  0.00     0.031 A 
HETATM   18  C   UNL     1     -41.259  55.761 -49.504  1.00  0.00     0.026 A 
HETATM   19  C   UNL     1     -40.940  54.416 -49.348  1.00  0.00     0.034 A 
HETATM   20 CL   UNL     1     -40.351  53.844 -47.836  1.00  0.00    -0.084 Cl
HETATM   21  C   UNL     1     -41.090  53.534 -50.413  1.00  0.00     0.026 A 
HETATM   22  C   UNL     1     -41.561  54.004 -51.644  1.00  0.00     0.031 A 
ENDBRANCH  13  16
ENDBRANCH  10  12
BRANCH   9  23
HETATM   23  C   UNL     1     -42.689  58.573 -55.306  1.00  0.00    -0.028 A 
HETATM   24  C   UNL     1     -41.968  59.677 -54.823  1.00  0.00     0.012 A 
HETATM   25  C   UNL     1     -42.603  60.662 -54.060  1.00  0.00     0.037 A 
HETATM   26  C   UNL     1     -43.965  60.569 -53.769  1.00  0.00     0.068 A 
HETATM   27  C   UNL     1     -44.698  59.496 -54.274  1.00  0.00     0.037 A 
HETATM   28  C   UNL     1     -44.066  58.509 -55.038  1.00  0.00     0.012 A 
BRANCH  26  29
HETATM   29  O   UNL     1     -44.455  61.585 -52.995  1.00  0.00    -0.356 OA
HETATM   30  C   UNL     1     -43.559  62.153 -52.048  1.00  0.00     0.210 C 
ENDBRANCH  26  29
ENDBRANCH   9  23
TORSDOF 4
ENDMDL
MODEL 10
REMARK VINA RESULT:      -7.0      3.376      6.393
REMARK  4 active torsions:
REMARK  status: ('A' for Active; 'I' for Inactive)
REMARK    1  A    between atoms: C_9  and  C_10 
REMARK    2  A    between atoms: C_13  and  O_14 
REMARK    3  A    between atoms: C_18  and  C_19 
REMARK       I    between atoms: C_19  and  N_20 
REMARK    4  A    between atoms: N_20  and  C_21 
ROOT
HETATM    1  C   UNL     1     -44.817  60.315 -53.302  1.00  0.00     0.070 C 
HETATM    2  C   UNL     1     -43.487  59.680 -52.983  1.00  0.00     0.037 C 
HETATM    3  N   UNL     1     -43.014  59.910 -51.692  1.00  0.00    -0.192 N 
HETATM    4  C   UNL     1     -41.727  59.712 -51.342  1.00  0.00     0.725 A 
HETATM    5  N   UNL     1     -40.890  59.063 -52.208  1.00  0.00    -0.084 N 
HETATM    6  N   UNL     1     -39.622  59.048 -51.747  1.00  0.00    -0.149 NA
HETATM    7  C   UNL     1     -39.783  59.660 -50.568  1.00  0.00     0.275 A 
HETATM    8  N   UNL     1     -41.057  60.081 -50.281  1.00  0.00    -0.054 NA
HETATM    9  C   UNL     1     -41.317  58.505 -53.497  1.00  0.00     0.202 C 
HETATM   10  C   UNL     1     -42.714  59.001 -53.869  1.00  0.00     0.062 C 
HETATM   11  H   UNL     1     -43.574  60.508 -51.088  1.00  0.00     0.184 HD
ENDROOT
BRANCH  10  12
HETATM   12  C   UNL     1     -43.048  58.817 -55.309  1.00  0.00     0.256 C 
HETATM   13  N   UNL     1     -44.119  57.981 -55.538  1.00  0.00    -0.323 N 
HETATM   14  H   UNL     1     -44.518  57.513 -54.734  1.00  0.00     0.169 HD
HETATM   15  O   UNL     1     -42.355  59.379 -56.148  1.00  0.00    -0.267 OA
BRANCH  13  16
HETATM   16  C   UNL     1     -44.778  57.765 -56.769  1.00  0.00     0.035 A 
HETATM   17  C   UNL     1     -44.177  57.172 -57.882  1.00  0.00     0.031 A 
HETATM   18  C   UNL     1     -44.881  57.039 -59.085  1.00  0.00     0.026 A 
HETATM   19  C   UNL     1     -46.189  57.501 -59.179  1.00  0.00     0.034 A 
HETATM   20 CL   UNL     1     -47.046  57.355 -60.664  1.00  0.00    -0.084 Cl
HETATM   21  C   UNL     1     -46.804  58.088 -58.078  1.00  0.00     0.026 A 
HETATM   22  C   UNL     1     -46.102  58.214 -56.874  1.00  0.00     0.031 A 
ENDBRANCH  13  16
ENDBRANCH  10  12
BRANCH   9  23
HETATM   23  C   UNL     1     -41.235  56.981 -53.460  1.00  0.00    -0.028 A 
HETATM   24  C   UNL     1     -41.780  56.233 -52.402  1.00  0.00     0.012 A 
HETATM   25  C   UNL     1     -41.652  54.842 -52.376  1.00  0.00     0.037 A 
HETATM   26  C   UNL     1     -40.985  54.168 -53.400  1.00  0.00     0.068 A 
HETATM   27  C   UNL     1     -40.472  54.897 -54.473  1.00  0.00     0.037 A 
HETATM   28  C   UNL     1     -40.599  56.290 -54.503  1.00  0.00     0.012 A 
BRANCH  26  29
HETATM   29  O   UNL     1     -40.910  52.812 -53.240  1.00  0.00    -0.356 OA
HETATM   30  C   UNL     1     -39.974  52.125 -54.062  1.00  0.00     0.210 C 
ENDBRANCH  26  29
ENDBRANCH   9  23
TORSDOF 4
ENDMDL
