MODEL 1
REMARK VINA RESULT:      -8.0      0.000      0.000
REMARK  9 active torsions:
REMARK  status: ('A' for Active; 'I' for Inactive)
REMARK    1  A    between atoms: O_2  and  C_3 
REMARK    2  A    between atoms: C_3  and  C_4 
REMARK    3  A    between atoms: C_6  and  C_7 
REMARK    4  A    between atoms: C_7  and  N_8 
REMARK       I    between atoms: N_8  and  C_9 
REMARK    5  A    between atoms: C_9  and  C_10 
REMARK    6  A    between atoms: C_10  and  S_11 
REMARK    7  A    between atoms: S_11  and  C_12 
REMARK    8  A    between atoms: C_12  and  C_13 
REMARK       I    between atoms: C_13  and  N_14 
REMARK    9  A    between atoms: N_14  and  C_15 
ROOT
HETATM    1  S   UNL     1     -42.551  57.761 -56.370  1.00  0.00    -0.150 SA
ENDROOT
BRANCH   1   2
HETATM    2  C   UNL     1     -44.323  57.954 -55.991  1.00  0.00     0.177 C 
BRANCH   2   3
HETATM    3  C   UNL     1     -44.649  58.055 -54.508  1.00  0.00     0.227 C 
HETATM    4  N   UNL     1     -44.256  57.005 -53.721  1.00  0.00    -0.354 N 
HETATM    5  H   UNL     1     -43.700  56.260 -54.133  1.00  0.00     0.162 HD
HETATM    6  O   UNL     1     -45.188  59.060 -54.048  1.00  0.00    -0.273 OA
BRANCH   4   7
HETATM    7  C   UNL     1     -44.355  57.049 -52.282  1.00  0.00     0.187 C 
BRANCH   7   8
HETATM    8  C   UNL     1     -42.999  57.187 -51.698  1.00  0.00     0.071 A 
HETATM    9  O   UNL     1     -42.203  58.182 -52.192  1.00  0.00    -0.307 OA
HETATM   10  C   UNL     1     -41.013  58.133 -51.512  1.00  0.00     0.150 A 
HETATM   11  C   UNL     1     -41.062  57.111 -50.581  1.00  0.00     0.046 A 
HETATM   12  C   UNL     1     -42.333  56.502 -50.703  1.00  0.00     0.037 A 
BRANCH  10  13
HETATM   13  C   UNL     1     -39.954  59.069 -51.816  1.00  0.00     0.316 C 
HETATM   14  O   UNL     1     -39.332  59.109 -52.872  1.00  0.00    -0.257 OA
BRANCH  13  15
HETATM   15  O   UNL     1     -39.739  59.907 -50.761  1.00  0.00    -0.321 OA
HETATM   16  C   UNL     1     -38.427  59.820 -50.209  1.00  0.00     0.213 C 
ENDBRANCH  13  15
ENDBRANCH  10  13
ENDBRANCH   7   8
ENDBRANCH   4   7
ENDBRANCH   2   3
ENDBRANCH   1   2
BRANCH   1  17
HETATM   17  C   UNL     1     -42.587  56.068 -57.067  1.00  0.00     0.177 C 
BRANCH  17  18
HETATM   18  C   UNL     1     -42.525  54.994 -55.980  1.00  0.00     0.231 C 
HETATM   19  N   UNL     1     -41.249  54.758 -55.501  1.00  0.00    -0.327 N 
HETATM   20  H   UNL     1     -40.533  55.381 -55.863  1.00  0.00     0.169 HD
HETATM   21  O   UNL     1     -43.541  54.379 -55.666  1.00  0.00    -0.272 OA
BRANCH  19  22
HETATM   22  C   UNL     1     -40.840  53.847 -54.508  1.00  0.00     0.035 A 
HETATM   23  C   UNL     1     -40.529  52.508 -54.756  1.00  0.00     0.042 A 
HETATM   24  C   UNL     1     -40.154  51.645 -53.709  1.00  0.00    -0.024 A 
HETATM   25  C   UNL     1     -40.078  52.141 -52.389  1.00  0.00    -0.026 A 
HETATM   26  C   UNL     1     -39.856  50.293 -53.947  1.00  0.00     0.012 A 
HETATM   27  C   UNL     1     -40.379  53.488 -52.150  1.00  0.00     0.014 A 
HETATM   28  C   UNL     1     -39.707  51.278 -51.345  1.00  0.00     0.012 A 
HETATM   29  C   UNL     1     -40.759  54.331 -53.199  1.00  0.00     0.030 A 
HETATM   30  C   UNL     1     -39.417  49.936 -51.601  1.00  0.00     0.001 A 
HETATM   31  C   UNL     1     -39.492  49.445 -52.900  1.00  0.00     0.001 A 
ENDBRANCH  19  22
ENDBRANCH  17  18
ENDBRANCH   1  17
TORSDOF 9
ENDMDL
MODEL 2
REMARK VINA RESULT:      -7.9      1.720      2.893
REMARK  9 active torsions:
REMARK  status: ('A' for Active; 'I' for Inactive)
REMARK    1  A    between atoms: O_2  and  C_3 
REMARK    2  A    between atoms: C_3  and  C_4 
REMARK    3  A    between atoms: C_6  and  C_7 
REMARK    4  A    between atoms: C_7  and  N_8 
REMARK       I    between atoms: N_8  and  C_9 
REMARK    5  A    between atoms: C_9  and  C_10 
REMARK    6  A    between atoms: C_10  and  S_11 
REMARK    7  A    between atoms: S_11  and  C_12 
REMARK    8  A    between atoms: C_12  and  C_13 
REMARK       I    between atoms: C_13  and  N_14 
REMARK    9  A    between atoms: N_14  and  C_15 
ROOT
HETATM    1  S   UNL     1     -43.812  57.242 -56.586  1.00  0.00    -0.150 SA
ENDROOT
BRANCH   1   2
HETATM    2  C   UNL     1     -42.772  58.644 -57.110  1.00  0.00     0.177 C 
BRANCH   2   3
HETATM    3  C   UNL     1     -42.123  59.415 -55.971  1.00  0.00     0.227 C 
HETATM    4  N   UNL     1     -42.051  58.776 -54.761  1.00  0.00    -0.354 N 
HETATM    5  H   UNL     1     -42.346  57.806 -54.696  1.00  0.00     0.162 HD
HETATM    6  O   UNL     1     -41.643  60.531 -56.158  1.00  0.00    -0.273 OA
BRANCH   4   7
HETATM    7  C   UNL     1     -41.316  59.328 -53.648  1.00  0.00     0.187 C 
BRANCH   7   8
HETATM    8  C   UNL     1     -41.449  58.429 -52.475  1.00  0.00     0.071 A 
HETATM    9  O   UNL     1     -42.644  57.788 -52.310  1.00  0.00    -0.307 OA
HETATM   10  C   UNL     1     -42.545  57.014 -51.182  1.00  0.00     0.150 A 
HETATM   11  C   UNL     1     -41.280  57.160 -50.641  1.00  0.00     0.046 A 
HETATM   12  C   UNL     1     -40.580  58.070 -51.466  1.00  0.00     0.037 A 
BRANCH  10  13
HETATM   13  C   UNL     1     -43.663  56.211 -50.741  1.00  0.00     0.316 C 
HETATM   14  O   UNL     1     -44.824  56.599 -50.671  1.00  0.00    -0.257 OA
BRANCH  13  15
HETATM   15  O   UNL     1     -43.247  54.954 -50.411  1.00  0.00    -0.321 OA
HETATM   16  C   UNL     1     -43.840  53.922 -51.198  1.00  0.00     0.213 C 
ENDBRANCH  13  15
ENDBRANCH  10  13
ENDBRANCH   7   8
ENDBRANCH   4   7
ENDBRANCH   2   3
ENDBRANCH   1   2
BRANCH   1  17
HETATM   17  C   UNL     1     -42.727  55.864 -57.111  1.00  0.00     0.177 C 
BRANCH  17  18
HETATM   18  C   UNL     1     -42.606  54.782 -56.036  1.00  0.00     0.231 C 
HETATM   19  N   UNL     1     -41.351  54.706 -55.460  1.00  0.00    -0.327 N 
HETATM   20  H   UNL     1     -40.698  55.426 -55.756  1.00  0.00     0.169 HD
HETATM   21  O   UNL     1     -43.552  54.031 -55.813  1.00  0.00    -0.272 OA
BRANCH  19  22
HETATM   22  C   UNL     1     -40.902  53.834 -54.449  1.00  0.00     0.035 A 
HETATM   23  C   UNL     1     -40.629  52.479 -54.650  1.00  0.00     0.042 A 
HETATM   24  C   UNL     1     -40.210  51.658 -53.586  1.00  0.00    -0.024 A 
HETATM   25  C   UNL     1     -40.050  52.214 -52.297  1.00  0.00    -0.026 A 
HETATM   26  C   UNL     1     -39.950  50.291 -53.775  1.00  0.00     0.012 A 
HETATM   27  C   UNL     1     -40.314  53.576 -52.106  1.00  0.00     0.014 A 
HETATM   28  C   UNL     1     -39.635  51.392 -51.236  1.00  0.00     0.012 A 
HETATM   29  C   UNL     1     -40.737  54.376 -53.171  1.00  0.00     0.030 A 
HETATM   30  C   UNL     1     -39.384  50.035 -51.443  1.00  0.00     0.001 A 
HETATM   31  C   UNL     1     -39.542  49.486 -52.712  1.00  0.00     0.001 A 
ENDBRANCH  19  22
ENDBRANCH  17  18
ENDBRANCH   1  17
TORSDOF 9
ENDMDL
MODEL 3
REMARK VINA RESULT:      -7.9      2.920      6.426
REMARK  9 active torsions:
REMARK  status: ('A' for Active; 'I' for Inactive)
REMARK    1  A    between atoms: O_2  and  C_3 
REMARK    2  A    between atoms: C_3  and  C_4 
REMARK    3  A    between atoms: C_6  and  C_7 
REMARK    4  A    between atoms: C_7  and  N_8 
REMARK       I    between atoms: N_8  and  C_9 
REMARK    5  A    between atoms: C_9  and  C_10 
REMARK    6  A    between atoms: C_10  and  S_11 
REMARK    7  A    between atoms: S_11  and  C_12 
REMARK    8  A    between atoms: C_12  and  C_13 
REMARK       I    between atoms: C_13  and  N_14 
REMARK    9  A    between atoms: N_14  and  C_15 
ROOT
HETATM    1  S   UNL     1     -42.626  58.207 -52.629  1.00  0.00    -0.150 SA
ENDROOT
BRANCH   1   2
HETATM    2  C   UNL     1     -43.546  57.039 -53.684  1.00  0.00     0.177 C 
BRANCH   2   3
HETATM    3  C   UNL     1     -42.701  56.323 -54.727  1.00  0.00     0.227 C 
HETATM    4  N   UNL     1     -43.379  55.647 -55.706  1.00  0.00    -0.354 N 
HETATM    5  H   UNL     1     -44.392  55.720 -55.747  1.00  0.00     0.162 HD
HETATM    6  O   UNL     1     -41.474  56.405 -54.710  1.00  0.00    -0.273 OA
BRANCH   4   7
HETATM    7  C   UNL     1     -42.704  55.067 -56.843  1.00  0.00     0.187 C 
BRANCH   7   8
HETATM    8  C   UNL     1     -43.189  55.714 -58.087  1.00  0.00     0.071 A 
HETATM    9  O   UNL     1     -44.066  55.007 -58.860  1.00  0.00    -0.307 OA
HETATM   10  C   UNL     1     -44.385  55.787 -59.941  1.00  0.00     0.150 A 
HETATM   11  C   UNL     1     -43.715  56.993 -59.845  1.00  0.00     0.046 A 
HETATM   12  C   UNL     1     -42.945  56.945 -58.659  1.00  0.00     0.037 A 
BRANCH  10  13
HETATM   13  C   UNL     1     -45.299  55.305 -60.952  1.00  0.00     0.316 C 
HETATM   14  O   UNL     1     -44.967  54.817 -62.026  1.00  0.00    -0.257 OA
BRANCH  13  15
HETATM   15  O   UNL     1     -46.591  55.467 -60.543  1.00  0.00    -0.321 OA
HETATM   16  C   UNL     1     -47.260  56.567 -61.160  1.00  0.00     0.213 C 
ENDBRANCH  13  15
ENDBRANCH  10  13
ENDBRANCH   7   8
ENDBRANCH   4   7
ENDBRANCH   2   3
ENDBRANCH   1   2
BRANCH   1  17
HETATM   17  C   UNL     1     -42.858  57.380 -51.012  1.00  0.00     0.177 C 
BRANCH  17  18
HETATM   18  C   UNL     1     -42.686  55.864 -51.108  1.00  0.00     0.231 C 
HETATM   19  N   UNL     1     -41.426  55.470 -51.521  1.00  0.00    -0.327 N 
HETATM   20  H   UNL     1     -40.753  56.224 -51.624  1.00  0.00     0.169 HD
HETATM   21  O   UNL     1     -43.644  55.123 -50.903  1.00  0.00    -0.272 OA
BRANCH  19  22
HETATM   22  C   UNL     1     -40.934  54.165 -51.713  1.00  0.00     0.035 A 
HETATM   23  C   UNL     1     -40.831  53.543 -52.959  1.00  0.00     0.042 A 
HETATM   24  C   UNL     1     -40.356  52.222 -53.074  1.00  0.00    -0.024 A 
HETATM   25  C   UNL     1     -39.965  51.518 -51.913  1.00  0.00    -0.026 A 
HETATM   26  C   UNL     1     -40.266  51.583 -54.321  1.00  0.00     0.012 A 
HETATM   27  C   UNL     1     -40.060  52.153 -50.668  1.00  0.00     0.014 A 
HETATM   28  C   UNL     1     -39.495  50.200 -52.029  1.00  0.00     0.012 A 
HETATM   29  C   UNL     1     -40.542  53.461 -50.570  1.00  0.00     0.030 A 
HETATM   30  C   UNL     1     -39.415  49.580 -53.277  1.00  0.00     0.001 A 
HETATM   31  C   UNL     1     -39.800  50.272 -54.421  1.00  0.00     0.001 A 
ENDBRANCH  19  22
ENDBRANCH  17  18
ENDBRANCH   1  17
TORSDOF 9
ENDMDL
MODEL 4
REMARK VINA RESULT:      -7.7      2.435      5.365
REMARK  9 active torsions:
REMARK  status: ('A' for Active; 'I' for Inactive)
REMARK    1  A    between atoms: O_2  and  C_3 
REMARK    2  A    between atoms: C_3  and  C_4 
REMARK    3  A    between atoms: C_6  and  C_7 
REMARK    4  A    between atoms: C_7  and  N_8 
REMARK       I    between atoms: N_8  and  C_9 
REMARK    5  A    between atoms: C_9  and  C_10 
REMARK    6  A    between atoms: C_10  and  S_11 
REMARK    7  A    between atoms: S_11  and  C_12 
REMARK    8  A    between atoms: C_12  and  C_13 
REMARK       I    between atoms: C_13  and  N_14 
REMARK    9  A    between atoms: N_14  and  C_15 
ROOT
HETATM    1  S   UNL     1     -41.433  58.328 -51.745  1.00  0.00    -0.150 SA
ENDROOT
BRANCH   1   2
HETATM    2  C   UNL     1     -42.171  59.747 -52.618  1.00  0.00     0.177 C 
BRANCH   2   3
HETATM    3  C   UNL     1     -42.331  59.557 -54.119  1.00  0.00     0.227 C 
HETATM    4  N   UNL     1     -43.542  59.082 -54.551  1.00  0.00    -0.354 N 
HETATM    5  H   UNL     1     -44.294  58.962 -53.878  1.00  0.00     0.162 HD
HETATM    6  O   UNL     1     -41.431  59.871 -54.895  1.00  0.00    -0.273 OA
BRANCH   4   7
HETATM    7  C   UNL     1     -43.881  59.014 -55.953  1.00  0.00     0.187 C 
BRANCH   7   8
HETATM    8  C   UNL     1     -43.499  57.684 -56.488  1.00  0.00     0.071 A 
HETATM    9  O   UNL     1     -43.498  57.533 -57.846  1.00  0.00    -0.307 OA
HETATM   10  C   UNL     1     -43.112  56.245 -58.117  1.00  0.00     0.150 A 
HETATM   11  C   UNL     1     -42.860  55.586 -56.927  1.00  0.00     0.046 A 
HETATM   12  C   UNL     1     -43.113  56.507 -55.883  1.00  0.00     0.037 A 
BRANCH  10  13
HETATM   13  C   UNL     1     -43.018  55.777 -59.481  1.00  0.00     0.316 C 
HETATM   14  O   UNL     1     -42.221  56.193 -60.315  1.00  0.00    -0.257 OA
BRANCH  13  15
HETATM   15  O   UNL     1     -43.943  54.801 -59.716  1.00  0.00    -0.321 OA
HETATM   16  C   UNL     1     -45.232  55.298 -60.072  1.00  0.00     0.213 C 
ENDBRANCH  13  15
ENDBRANCH  10  13
ENDBRANCH   7   8
ENDBRANCH   4   7
ENDBRANCH   2   3
ENDBRANCH   1   2
BRANCH   1  17
HETATM   17  C   UNL     1     -42.965  57.413 -51.333  1.00  0.00     0.177 C 
BRANCH  17  18
HETATM   18  C   UNL     1     -42.753  55.899 -51.340  1.00  0.00     0.231 C 
HETATM   19  N   UNL     1     -41.506  55.512 -51.796  1.00  0.00    -0.327 N 
HETATM   20  H   UNL     1     -40.862  56.275 -51.985  1.00  0.00     0.169 HD
HETATM   21  O   UNL     1     -43.676  55.149 -51.034  1.00  0.00    -0.272 OA
BRANCH  19  22
HETATM   22  C   UNL     1     -40.986  54.210 -51.930  1.00  0.00     0.035 A 
HETATM   23  C   UNL     1     -40.945  53.503 -53.134  1.00  0.00     0.042 A 
HETATM   24  C   UNL     1     -40.437  52.192 -53.189  1.00  0.00    -0.024 A 
HETATM   25  C   UNL     1     -39.949  51.583 -52.011  1.00  0.00    -0.026 A 
HETATM   26  C   UNL     1     -40.408  51.468 -54.392  1.00  0.00     0.012 A 
HETATM   27  C   UNL     1     -39.982  52.302 -50.809  1.00  0.00     0.014 A 
HETATM   28  C   UNL     1     -39.445  50.273 -52.067  1.00  0.00     0.012 A 
HETATM   29  C   UNL     1     -40.498  53.601 -50.770  1.00  0.00     0.030 A 
HETATM   30  C   UNL     1     -39.427  49.568 -53.272  1.00  0.00     0.001 A 
HETATM   31  C   UNL     1     -39.908  50.166 -54.432  1.00  0.00     0.001 A 
ENDBRANCH  19  22
ENDBRANCH  17  18
ENDBRANCH   1  17
TORSDOF 9
ENDMDL
MODEL 5
REMARK VINA RESULT:      -7.5      2.423      5.358
REMARK  9 active torsions:
REMARK  status: ('A' for Active; 'I' for Inactive)
REMARK    1  A    between atoms: O_2  and  C_3 
REMARK    2  A    between atoms: C_3  and  C_4 
REMARK    3  A    between atoms: C_6  and  C_7 
REMARK    4  A    between atoms: C_7  and  N_8 
REMARK       I    between atoms: N_8  and  C_9 
REMARK    5  A    between atoms: C_9  and  C_10 
REMARK    6  A    between atoms: C_10  and  S_11 
REMARK    7  A    between atoms: S_11  and  C_12 
REMARK    8  A    between atoms: C_12  and  C_13 
REMARK       I    between atoms: C_13  and  N_14 
REMARK    9  A    between atoms: N_14  and  C_15 
ROOT
HETATM    1  S   UNL     1     -44.205  58.160 -51.751  1.00  0.00    -0.150 SA
ENDROOT
BRANCH   1   2
HETATM    2  C   UNL     1     -45.252  59.436 -52.525  1.00  0.00     0.177 C 
BRANCH   2   3
HETATM    3  C   UNL     1     -45.050  59.600 -54.024  1.00  0.00     0.227 C 
HETATM    4  N   UNL     1     -45.332  58.510 -54.804  1.00  0.00    -0.354 N 
HETATM    5  H   UNL     1     -45.737  57.685 -54.371  1.00  0.00     0.162 HD
HETATM    6  O   UNL     1     -44.706  60.681 -54.499  1.00  0.00    -0.273 OA
BRANCH   4   7
HETATM    7  C   UNL     1     -45.342  58.583 -56.246  1.00  0.00     0.187 C 
BRANCH   7   8
HETATM    8  C   UNL     1     -44.365  57.613 -56.796  1.00  0.00     0.071 A 
HETATM    9  O   UNL     1     -44.268  57.524 -58.156  1.00  0.00    -0.307 OA
HETATM   10  C   UNL     1     -43.311  56.584 -58.441  1.00  0.00     0.150 A 
HETATM   11  C   UNL     1     -42.796  56.086 -57.258  1.00  0.00     0.046 A 
HETATM   12  C   UNL     1     -43.475  56.742 -56.204  1.00  0.00     0.037 A 
BRANCH  10  13
HETATM   13  C   UNL     1     -42.982  56.262 -59.811  1.00  0.00     0.316 C 
HETATM   14  O   UNL     1     -41.868  56.369 -60.311  1.00  0.00    -0.257 OA
BRANCH  13  15
HETATM   15  O   UNL     1     -44.088  55.818 -60.476  1.00  0.00    -0.321 OA
HETATM   16  C   UNL     1     -44.585  54.566 -60.003  1.00  0.00     0.213 C 
ENDBRANCH  13  15
ENDBRANCH  10  13
ENDBRANCH   7   8
ENDBRANCH   4   7
ENDBRANCH   2   3
ENDBRANCH   1   2
BRANCH   1  17
HETATM   17  C   UNL     1     -42.582  58.668 -52.429  1.00  0.00     0.177 C 
BRANCH  17  18
HETATM   18  C   UNL     1     -41.702  57.468 -52.781  1.00  0.00     0.231 C 
HETATM   19  N   UNL     1     -41.973  56.338 -52.031  1.00  0.00    -0.327 N 
HETATM   20  H   UNL     1     -42.772  56.418 -51.408  1.00  0.00     0.169 HD
HETATM   21  O   UNL     1     -40.800  57.589 -53.606  1.00  0.00    -0.272 OA
BRANCH  19  22
HETATM   22  C   UNL     1     -41.357  55.073 -52.096  1.00  0.00     0.035 A 
HETATM   23  C   UNL     1     -41.370  54.255 -53.227  1.00  0.00     0.042 A 
HETATM   24  C   UNL     1     -40.757  52.987 -53.213  1.00  0.00    -0.024 A 
HETATM   25  C   UNL     1     -40.110  52.539 -52.040  1.00  0.00    -0.026 A 
HETATM   26  C   UNL     1     -40.779  52.151 -54.341  1.00  0.00     0.012 A 
HETATM   27  C   UNL     1     -40.092  53.370 -50.912  1.00  0.00     0.014 A 
HETATM   28  C   UNL     1     -39.503  51.272 -52.026  1.00  0.00     0.012 A 
HETATM   29  C   UNL     1     -40.712  54.622 -50.941  1.00  0.00     0.030 A 
HETATM   30  C   UNL     1     -39.537  50.454 -53.157  1.00  0.00     0.001 A 
HETATM   31  C   UNL     1     -40.175  50.893 -54.312  1.00  0.00     0.001 A 
ENDBRANCH  19  22
ENDBRANCH  17  18
ENDBRANCH   1  17
TORSDOF 9
ENDMDL
MODEL 6
REMARK VINA RESULT:      -7.5      2.523      5.386
REMARK  9 active torsions:
REMARK  status: ('A' for Active; 'I' for Inactive)
REMARK    1  A    between atoms: O_2  and  C_3 
REMARK    2  A    between atoms: C_3  and  C_4 
REMARK    3  A    between atoms: C_6  and  C_7 
REMARK    4  A    between atoms: C_7  and  N_8 
REMARK       I    between atoms: N_8  and  C_9 
REMARK    5  A    between atoms: C_9  and  C_10 
REMARK    6  A    between atoms: C_10  and  S_11 
REMARK    7  A    between atoms: S_11  and  C_12 
REMARK    8  A    between atoms: C_12  and  C_13 
REMARK       I    between atoms: C_13  and  N_14 
REMARK    9  A    between atoms: N_14  and  C_15 
ROOT
HETATM    1  S   UNL     1     -43.365  58.730 -52.032  1.00  0.00    -0.150 SA
ENDROOT
BRANCH   1   2
HETATM    2  C   UNL     1     -43.006  60.398 -52.673  1.00  0.00     0.177 C 
BRANCH   2   3
HETATM    3  C   UNL     1     -42.993  60.507 -54.191  1.00  0.00     0.227 C 
HETATM    4  N   UNL     1     -42.074  59.736 -54.853  1.00  0.00    -0.354 N 
HETATM    5  H   UNL     1     -41.512  59.074 -54.325  1.00  0.00     0.162 HD
HETATM    6  O   UNL     1     -43.810  61.212 -54.779  1.00  0.00    -0.273 OA
BRANCH   4   7
HETATM    7  C   UNL     1     -42.068  59.620 -56.292  1.00  0.00     0.187 C 
BRANCH   7   8
HETATM    8  C   UNL     1     -42.444  58.238 -56.678  1.00  0.00     0.071 A 
HETATM    9  O   UNL     1     -42.420  57.931 -58.009  1.00  0.00    -0.307 OA
HETATM   10  C   UNL     1     -42.789  56.617 -58.136  1.00  0.00     0.150 A 
HETATM   11  C   UNL     1     -43.037  56.091 -56.881  1.00  0.00     0.046 A 
HETATM   12  C   UNL     1     -42.821  57.131 -55.947  1.00  0.00     0.037 A 
BRANCH  10  13
HETATM   13  C   UNL     1     -42.862  55.996 -59.439  1.00  0.00     0.316 C 
HETATM   14  O   UNL     1     -42.141  56.272 -60.392  1.00  0.00    -0.257 OA
BRANCH  13  15
HETATM   15  O   UNL     1     -43.848  55.053 -59.465  1.00  0.00    -0.321 OA
HETATM   16  C   UNL     1     -45.016  55.455 -60.178  1.00  0.00     0.213 C 
ENDBRANCH  13  15
ENDBRANCH  10  13
ENDBRANCH   7   8
ENDBRANCH   4   7
ENDBRANCH   2   3
ENDBRANCH   1   2
BRANCH   1  17
HETATM   17  C   UNL     1     -41.662  58.214 -51.598  1.00  0.00     0.177 C 
BRANCH  17  18
HETATM   18  C   UNL     1     -41.161  57.072 -52.482  1.00  0.00     0.231 C 
HETATM   19  N   UNL     1     -41.396  55.815 -51.957  1.00  0.00    -0.327 N 
HETATM   20  H   UNL     1     -41.942  55.803 -51.101  1.00  0.00     0.169 HD
HETATM   21  O   UNL     1     -40.541  57.321 -53.514  1.00  0.00    -0.272 OA
BRANCH  19  22
HETATM   22  C   UNL     1     -41.068  54.559 -52.506  1.00  0.00     0.035 A 
HETATM   23  C   UNL     1     -40.543  53.497 -51.768  1.00  0.00     0.042 A 
HETATM   24  C   UNL     1     -40.211  52.277 -52.388  1.00  0.00    -0.024 A 
HETATM   25  C   UNL     1     -40.423  52.120 -53.776  1.00  0.00    -0.026 A 
HETATM   26  C   UNL     1     -39.666  51.209 -51.657  1.00  0.00     0.012 A 
HETATM   27  C   UNL     1     -40.962  53.187 -54.507  1.00  0.00     0.014 A 
HETATM   28  C   UNL     1     -40.088  50.904 -54.394  1.00  0.00     0.012 A 
HETATM   29  C   UNL     1     -41.278  54.394 -53.878  1.00  0.00     0.030 A 
HETATM   30  C   UNL     1     -39.545  49.854 -53.651  1.00  0.00     0.001 A 
HETATM   31  C   UNL     1     -39.335  50.007 -52.284  1.00  0.00     0.001 A 
ENDBRANCH  19  22
ENDBRANCH  17  18
ENDBRANCH   1  17
TORSDOF 9
ENDMDL
MODEL 7
REMARK VINA RESULT:      -7.4      2.929      6.173
REMARK  9 active torsions:
REMARK  status: ('A' for Active; 'I' for Inactive)
REMARK    1  A    between atoms: O_2  and  C_3 
REMARK    2  A    between atoms: C_3  and  C_4 
REMARK    3  A    between atoms: C_6  and  C_7 
REMARK    4  A    between atoms: C_7  and  N_8 
REMARK       I    between atoms: N_8  and  C_9 
REMARK    5  A    between atoms: C_9  and  C_10 
REMARK    6  A    between atoms: C_10  and  S_11 
REMARK    7  A    between atoms: S_11  and  C_12 
REMARK    8  A    between atoms: C_12  and  C_13 
REMARK       I    between atoms: C_13  and  N_14 
REMARK    9  A    between atoms: N_14  and  C_15 
ROOT
HETATM    1  S   UNL     1     -44.261  58.621 -53.465  1.00  0.00    -0.150 SA
ENDROOT
BRANCH   1   2
HETATM    2  C   UNL     1     -43.567  59.824 -54.645  1.00  0.00     0.177 C 
BRANCH   2   3
HETATM    3  C   UNL     1     -42.651  59.222 -55.701  1.00  0.00     0.227 C 
HETATM    4  N   UNL     1     -43.020  58.006 -56.212  1.00  0.00    -0.354 N 
HETATM    5  H   UNL     1     -43.912  57.605 -55.937  1.00  0.00     0.162 HD
HETATM    6  O   UNL     1     -41.664  59.836 -56.103  1.00  0.00    -0.273 OA
BRANCH   4   7
HETATM    7  C   UNL     1     -42.333  57.406 -57.331  1.00  0.00     0.187 C 
BRANCH   7   8
HETATM    8  C   UNL     1     -43.324  56.784 -58.243  1.00  0.00     0.071 A 
HETATM    9  O   UNL     1     -44.550  57.381 -58.336  1.00  0.00    -0.307 OA
HETATM   10  C   UNL     1     -45.295  56.654 -59.229  1.00  0.00     0.150 A 
HETATM   11  C   UNL     1     -44.534  55.603 -59.706  1.00  0.00     0.046 A 
HETATM   12  C   UNL     1     -43.273  55.683 -59.071  1.00  0.00     0.037 A 
BRANCH  10  13
HETATM   13  C   UNL     1     -46.653  57.040 -59.538  1.00  0.00     0.316 C 
HETATM   14  O   UNL     1     -47.215  58.043 -59.111  1.00  0.00    -0.257 OA
BRANCH  13  15
HETATM   15  O   UNL     1     -47.229  56.131 -60.378  1.00  0.00    -0.321 OA
HETATM   16  C   UNL     1     -47.779  56.704 -61.563  1.00  0.00     0.213 C 
ENDBRANCH  13  15
ENDBRANCH  10  13
ENDBRANCH   7   8
ENDBRANCH   4   7
ENDBRANCH   2   3
ENDBRANCH   1   2
BRANCH   1  17
HETATM   17  C   UNL     1     -42.701  57.885 -52.851  1.00  0.00     0.177 C 
BRANCH  17  18
HETATM   18  C   UNL     1     -42.604  56.391 -53.166  1.00  0.00     0.231 C 
HETATM   19  N   UNL     1     -41.386  55.829 -52.831  1.00  0.00    -0.327 N 
HETATM   20  H   UNL     1     -40.746  56.449 -52.343  1.00  0.00     0.169 HD
HETATM   21  O   UNL     1     -43.531  55.824 -53.740  1.00  0.00    -0.272 OA
BRANCH  19  22
HETATM   22  C   UNL     1     -40.966  54.493 -52.984  1.00  0.00     0.035 A 
HETATM   23  C   UNL     1     -40.702  53.630 -51.918  1.00  0.00     0.042 A 
HETATM   24  C   UNL     1     -40.256  52.313 -52.144  1.00  0.00    -0.024 A 
HETATM   25  C   UNL     1     -40.084  51.853 -53.469  1.00  0.00    -0.026 A 
HETATM   26  C   UNL     1     -39.972  51.444 -51.078  1.00  0.00     0.012 A 
HETATM   27  C   UNL     1     -40.362  52.721 -54.532  1.00  0.00     0.014 A 
HETATM   28  C   UNL     1     -39.636  50.541 -53.692  1.00  0.00     0.012 A 
HETATM   29  C   UNL     1     -40.796  54.028 -54.291  1.00  0.00     0.030 A 
HETATM   30  C   UNL     1     -39.356  49.692 -52.620  1.00  0.00     0.001 A 
HETATM   31  C   UNL     1     -39.524  50.144 -51.315  1.00  0.00     0.001 A 
ENDBRANCH  19  22
ENDBRANCH  17  18
ENDBRANCH   1  17
TORSDOF 9
ENDMDL
MODEL 8
REMARK VINA RESULT:      -6.9      3.090      5.242
REMARK  9 active torsions:
REMARK  status: ('A' for Active; 'I' for Inactive)
REMARK    1  A    between atoms: O_2  and  C_3 
REMARK    2  A    between atoms: C_3  and  C_4 
REMARK    3  A    between atoms: C_6  and  C_7 
REMARK    4  A    between atoms: C_7  and  N_8 
REMARK       I    between atoms: N_8  and  C_9 
REMARK    5  A    between atoms: C_9  and  C_10 
REMARK    6  A    between atoms: C_10  and  S_11 
REMARK    7  A    between atoms: S_11  and  C_12 
REMARK    8  A    between atoms: C_12  and  C_13 
REMARK       I    between atoms: C_13  and  N_14 
REMARK    9  A    between atoms: N_14  and  C_15 
ROOT
HETATM    1  S   UNL     1     -44.070  58.333 -52.092  1.00  0.00    -0.150 SA
ENDROOT
BRANCH   1   2
HETATM    2  C   UNL     1     -43.493  59.278 -53.539  1.00  0.00     0.177 C 
BRANCH   2   3
HETATM    3  C   UNL     1     -42.507  58.537 -54.430  1.00  0.00     0.227 C 
HETATM    4  N   UNL     1     -42.992  57.452 -55.112  1.00  0.00    -0.354 N 
HETATM    5  H   UNL     1     -43.985  57.242 -55.064  1.00  0.00     0.162 HD
HETATM    6  O   UNL     1     -41.353  58.939 -54.564  1.00  0.00    -0.273 OA
BRANCH   4   7
HETATM    7  C   UNL     1     -42.210  56.765 -56.112  1.00  0.00     0.187 C 
BRANCH   7   8
HETATM    8  C   UNL     1     -42.609  57.238 -57.460  1.00  0.00     0.071 A 
HETATM    9  O   UNL     1     -42.019  58.381 -57.922  1.00  0.00    -0.307 OA
HETATM   10  C   UNL     1     -42.521  58.627 -59.174  1.00  0.00     0.150 A 
HETATM   11  C   UNL     1     -43.423  57.632 -59.506  1.00  0.00     0.046 A 
HETATM   12  C   UNL     1     -43.482  56.744 -58.406  1.00  0.00     0.037 A 
BRANCH  10  13
HETATM   13  C   UNL     1     -42.086  59.782 -59.927  1.00  0.00     0.316 C 
HETATM   14  O   UNL     1     -42.174  59.903 -61.144  1.00  0.00    -0.257 OA
BRANCH  13  15
HETATM   15  O   UNL     1     -41.563  60.726 -59.093  1.00  0.00    -0.321 OA
HETATM   16  C   UNL     1     -41.044  61.872 -59.767  1.00  0.00     0.213 C 
ENDBRANCH  13  15
ENDBRANCH  10  13
ENDBRANCH   7   8
ENDBRANCH   4   7
ENDBRANCH   2   3
ENDBRANCH   1   2
BRANCH   1  17
HETATM   17  C   UNL     1     -42.464  57.659 -51.527  1.00  0.00     0.177 C 
BRANCH  17  18
HETATM   18  C   UNL     1     -42.382  56.141 -51.697  1.00  0.00     0.231 C 
HETATM   19  N   UNL     1     -41.265  55.716 -52.391  1.00  0.00    -0.327 N 
HETATM   20  H   UNL     1     -40.600  56.448 -52.623  1.00  0.00     0.169 HD
HETATM   21  O   UNL     1     -43.302  55.429 -51.300  1.00  0.00    -0.272 OA
BRANCH  19  22
HETATM   22  C   UNL     1     -40.884  54.401 -52.720  1.00  0.00     0.035 A 
HETATM   23  C   UNL     1     -40.569  53.419 -51.778  1.00  0.00     0.042 A 
HETATM   24  C   UNL     1     -40.167  52.131 -52.179  1.00  0.00    -0.024 A 
HETATM   25  C   UNL     1     -40.092  51.821 -53.556  1.00  0.00    -0.026 A 
HETATM   26  C   UNL     1     -39.832  51.143 -51.239  1.00  0.00     0.012 A 
HETATM   27  C   UNL     1     -40.421  52.807 -54.495  1.00  0.00     0.014 A 
HETATM   28  C   UNL     1     -39.688  50.536 -53.954  1.00  0.00     0.012 A 
HETATM   29  C   UNL     1     -40.810  54.084 -54.080  1.00  0.00     0.030 A 
HETATM   30  C   UNL     1     -39.356  49.568 -53.005  1.00  0.00     0.001 A 
HETATM   31  C   UNL     1     -39.429  49.872 -51.649  1.00  0.00     0.001 A 
ENDBRANCH  19  22
ENDBRANCH  17  18
ENDBRANCH   1  17
TORSDOF 9
ENDMDL
MODEL 9
REMARK VINA RESULT:      -6.8      4.268      6.914
REMARK  9 active torsions:
REMARK  status: ('A' for Active; 'I' for Inactive)
REMARK    1  A    between atoms: O_2  and  C_3 
REMARK    2  A    between atoms: C_3  and  C_4 
REMARK    3  A    between atoms: C_6  and  C_7 
REMARK    4  A    between atoms: C_7  and  N_8 
REMARK       I    between atoms: N_8  and  C_9 
REMARK    5  A    between atoms: C_9  and  C_10 
REMARK    6  A    between atoms: C_10  and  S_11 
REMARK    7  A    between atoms: S_11  and  C_12 
REMARK    8  A    between atoms: C_12  and  C_13 
REMARK       I    between atoms: C_13  and  N_14 
REMARK    9  A    between atoms: N_14  and  C_15 
ROOT
HETATM    1  S   UNL     1     -42.914  55.989 -59.270  1.00  0.00    -0.150 SA
ENDROOT
BRANCH   1   2
HETATM    2  C   UNL     1     -44.130  54.680 -59.627  1.00  0.00     0.177 C 
BRANCH   2   3
HETATM    3  C   UNL     1     -45.250  55.092 -60.571  1.00  0.00     0.227 C 
HETATM    4  N   UNL     1     -46.321  55.734 -60.007  1.00  0.00    -0.354 N 
HETATM    5  H   UNL     1     -46.287  55.980 -59.022  1.00  0.00     0.162 HD
HETATM    6  O   UNL     1     -45.156  54.903 -61.782  1.00  0.00    -0.273 OA
BRANCH   4   7
HETATM    7  C   UNL     1     -47.368  56.323 -60.809  1.00  0.00     0.187 C 
BRANCH   7   8
HETATM    8  C   UNL     1     -47.187  57.794 -60.852  1.00  0.00     0.071 A 
HETATM    9  O   UNL     1     -45.992  58.292 -60.415  1.00  0.00    -0.307 OA
HETATM   10  C   UNL     1     -46.039  59.656 -60.549  1.00  0.00     0.150 A 
HETATM   11  C   UNL     1     -47.263  60.018 -61.082  1.00  0.00     0.046 A 
HETATM   12  C   UNL     1     -48.001  58.826 -61.272  1.00  0.00     0.037 A 
BRANCH  10  13
HETATM   13  C   UNL     1     -44.911  60.472 -60.161  1.00  0.00     0.316 C 
HETATM   14  O   UNL     1     -44.788  61.035 -59.079  1.00  0.00    -0.257 OA
BRANCH  13  15
HETATM   15  O   UNL     1     -43.994  60.530 -61.171  1.00  0.00    -0.321 OA
HETATM   16  C   UNL     1     -43.042  61.583 -61.029  1.00  0.00     0.213 C 
ENDBRANCH  13  15
ENDBRANCH  10  13
ENDBRANCH   7   8
ENDBRANCH   4   7
ENDBRANCH   2   3
ENDBRANCH   1   2
BRANCH   1  17
HETATM   17  C   UNL     1     -43.705  56.722 -57.789  1.00  0.00     0.177 C 
BRANCH  17  18
HETATM   18  C   UNL     1     -42.897  56.466 -56.516  1.00  0.00     0.231 C 
HETATM   19  N   UNL     1     -43.111  55.218 -55.961  1.00  0.00    -0.327 N 
HETATM   20  H   UNL     1     -43.705  54.601 -56.508  1.00  0.00     0.169 HD
HETATM   21  O   UNL     1     -42.203  57.361 -56.040  1.00  0.00    -0.272 OA
BRANCH  19  22
HETATM   22  C   UNL     1     -42.535  54.664 -54.801  1.00  0.00     0.035 A 
HETATM   23  C   UNL     1     -41.515  53.710 -54.815  1.00  0.00     0.042 A 
HETATM   24  C   UNL     1     -41.005  53.176 -53.616  1.00  0.00    -0.024 A 
HETATM   25  C   UNL     1     -41.523  53.620 -52.379  1.00  0.00    -0.026 A 
HETATM   26  C   UNL     1     -39.991  52.204 -53.621  1.00  0.00     0.012 A 
HETATM   27  C   UNL     1     -42.538  54.586 -52.373  1.00  0.00     0.014 A 
HETATM   28  C   UNL     1     -41.015  53.084 -51.184  1.00  0.00     0.012 A 
HETATM   29  C   UNL     1     -43.039  55.099 -53.572  1.00  0.00     0.030 A 
HETATM   30  C   UNL     1     -40.009  52.117 -51.209  1.00  0.00     0.001 A 
HETATM   31  C   UNL     1     -39.498  51.678 -52.427  1.00  0.00     0.001 A 
ENDBRANCH  19  22
ENDBRANCH  17  18
ENDBRANCH   1  17
TORSDOF 9
ENDMDL
MODEL 10
REMARK VINA RESULT:      -6.7      2.785      5.933
REMARK  9 active torsions:
REMARK  status: ('A' for Active; 'I' for Inactive)
REMARK    1  A    between atoms: O_2  and  C_3 
REMARK    2  A    between atoms: C_3  and  C_4 
REMARK    3  A    between atoms: C_6  and  C_7 
REMARK    4  A    between atoms: C_7  and  N_8 
REMARK       I    between atoms: N_8  and  C_9 
REMARK    5  A    between atoms: C_9  and  C_10 
REMARK    6  A    between atoms: C_10  and  S_11 
REMARK    7  A    between atoms: S_11  and  C_12 
REMARK    8  A    between atoms: C_12  and  C_13 
REMARK       I    between atoms: C_13  and  N_14 
REMARK    9  A    between atoms: N_14  and  C_15 
ROOT
HETATM    1  S   UNL     1     -43.246  58.671 -53.157  1.00  0.00    -0.150 SA
ENDROOT
BRANCH   1   2
HETATM    2  C   UNL     1     -41.942  59.439 -54.174  1.00  0.00     0.177 C 
BRANCH   2   3
HETATM    3  C   UNL     1     -42.453  60.323 -55.302  1.00  0.00     0.227 C 
HETATM    4  N   UNL     1     -41.971  60.057 -56.556  1.00  0.00    -0.354 N 
HETATM    5  H   UNL     1     -41.374  59.246 -56.694  1.00  0.00     0.162 HD
HETATM    6  O   UNL     1     -43.299  61.190 -55.090  1.00  0.00    -0.273 OA
BRANCH   4   7
HETATM    7  C   UNL     1     -42.497  60.709 -57.732  1.00  0.00     0.187 C 
BRANCH   7   8
HETATM    8  C   UNL     1     -43.139  59.700 -58.610  1.00  0.00     0.071 A 
HETATM    9  O   UNL     1     -43.164  58.408 -58.165  1.00  0.00    -0.307 OA
HETATM   10  C   UNL     1     -43.803  57.657 -59.117  1.00  0.00     0.150 A 
HETATM   11  C   UNL     1     -44.190  58.478 -60.160  1.00  0.00     0.046 A 
HETATM   12  C   UNL     1     -43.761  59.786 -59.837  1.00  0.00     0.037 A 
BRANCH  10  13
HETATM   13  C   UNL     1     -43.983  56.234 -58.932  1.00  0.00     0.316 C 
HETATM   14  O   UNL     1     -43.251  55.513 -58.263  1.00  0.00    -0.257 OA
BRANCH  13  15
HETATM   15  O   UNL     1     -45.087  55.801 -59.607  1.00  0.00    -0.321 OA
HETATM   16  C   UNL     1     -44.908  54.547 -60.266  1.00  0.00     0.213 C 
ENDBRANCH  13  15
ENDBRANCH  10  13
ENDBRANCH   7   8
ENDBRANCH   4   7
ENDBRANCH   2   3
ENDBRANCH   1   2
BRANCH   1  17
HETATM   17  C   UNL     1     -42.203  57.989 -51.816  1.00  0.00     0.177 C 
BRANCH  17  18
HETATM   18  C   UNL     1     -42.135  56.462 -51.856  1.00  0.00     0.231 C 
HETATM   19  N   UNL     1     -41.170  55.968 -52.715  1.00  0.00    -0.327 N 
HETATM   20  H   UNL     1     -40.575  56.672 -53.141  1.00  0.00     0.169 HD
HETATM   21  O   UNL     1     -42.949  55.795 -51.221  1.00  0.00    -0.272 OA
BRANCH  19  22
HETATM   22  C   UNL     1     -40.844  54.626 -52.989  1.00  0.00     0.035 A 
HETATM   23  C   UNL     1     -40.537  53.680 -52.009  1.00  0.00     0.042 A 
HETATM   24  C   UNL     1     -40.191  52.360 -52.356  1.00  0.00    -0.024 A 
HETATM   25  C   UNL     1     -40.164  51.982 -53.718  1.00  0.00    -0.026 A 
HETATM   26  C   UNL     1     -39.865  51.407 -51.378  1.00  0.00     0.012 A 
HETATM   27  C   UNL     1     -40.484  52.934 -54.695  1.00  0.00     0.014 A 
HETATM   28  C   UNL     1     -39.814  50.666 -54.063  1.00  0.00     0.012 A 
HETATM   29  C   UNL     1     -40.817  54.242 -54.333  1.00  0.00     0.030 A 
HETATM   30  C   UNL     1     -39.491  49.733 -53.076  1.00  0.00     0.001 A 
HETATM   31  C   UNL     1     -39.517  50.104 -51.735  1.00  0.00     0.001 A 
ENDBRANCH  19  22
ENDBRANCH  17  18
ENDBRANCH   1  17
TORSDOF 9
ENDMDL
