MODEL 1
REMARK VINA RESULT:      -8.3      0.000      0.000
REMARK  9 active torsions:
REMARK  status: ('A' for Active; 'I' for Inactive)
REMARK    1  A    between atoms: C_2  and  N_3 
REMARK    2  A    between atoms: C_4  and  S_5 
REMARK    3  A    between atoms: S_5  and  C_6 
REMARK    4  A    between atoms: C_6  and  C_7 
REMARK       I    between atoms: C_7  and  N_8 
REMARK    5  A    between atoms: N_8  and  C_9 
REMARK    6  A    between atoms: C_11  and  O_12 
REMARK    7  A    between atoms: C_19  and  C_20 
REMARK    8  A    between atoms: C_23  and  S_24 
REMARK    9  A    between atoms: S_24  and  N_25 
ROOT
HETATM    1  N   UNL     1     -42.447  57.120 -53.339  1.00  0.00    -0.308 N 
HETATM    2  C   UNL     1     -41.539  56.756 -52.380  1.00  0.00     0.192 A 
HETATM    3  N   UNL     1     -40.450  56.296 -52.938  1.00  0.00    -0.122 NA
HETATM    4  N   UNL     1     -40.666  56.267 -54.287  1.00  0.00    -0.128 NA
HETATM    5  C   UNL     1     -41.876  56.738 -54.541  1.00  0.00     0.164 A 
ENDROOT
BRANCH   5   6
HETATM    6  C   UNL     1     -42.477  56.719 -55.876  1.00  0.00     0.012 A 
HETATM    7  C   UNL     1     -42.744  57.954 -56.494  1.00  0.00     0.017 A 
HETATM    8  C   UNL     1     -43.353  58.020 -57.747  1.00  0.00     0.026 A 
HETATM    9  C   UNL     1     -43.690  56.838 -58.406  1.00  0.00     0.074 A 
HETATM   10  C   UNL     1     -43.458  55.599 -57.802  1.00  0.00     0.026 A 
HETATM   11  C   UNL     1     -42.860  55.543 -56.536  1.00  0.00     0.017 A 
BRANCH   9  12
HETATM   12  S   UNL     1     -44.507  56.907 -59.973  1.00  0.00     0.243 S 
HETATM   13  O   UNL     1     -44.319  58.222 -60.538  1.00  0.00    -0.206 OA
HETATM   14  O   UNL     1     -44.192  55.717 -60.734  1.00  0.00    -0.206 OA
BRANCH  12  15
HETATM   15  N   UNL     1     -46.169  56.766 -59.565  1.00  0.00    -0.203 NA
HETATM   16  C   UNL     1     -47.015  55.943 -60.488  1.00  0.00     0.135 C 
HETATM   17  C   UNL     1     -47.404  56.692 -61.781  1.00  0.00     0.250 C 
HETATM   18  N   UNL     1     -48.008  58.059 -61.470  1.00  0.00    -0.073 N 
HETATM   19  H   UNL     1     -48.899  57.899 -60.984  1.00  0.00     0.279 HD
HETATM   20  C   UNL     1     -48.320  58.817 -62.731  1.00  0.00     0.269 C 
HETATM   21  C   UNL     1     -47.122  58.881 -60.533  1.00  0.00     0.250 C 
HETATM   22  C   UNL     1     -46.822  58.080 -59.256  1.00  0.00     0.135 C 
ENDBRANCH  12  15
ENDBRANCH   9  12
ENDBRANCH   5   6
BRANCH   1  23
HETATM   23  C   UNL     1     -43.753  57.703 -53.118  1.00  0.00     0.128 C 
HETATM   24  C   UNL     1     -43.702  59.218 -53.004  1.00  0.00     0.027 C 
ENDBRANCH   1  23
BRANCH   2  25
HETATM   25  S   UNL     1     -41.777  56.827 -50.673  1.00  0.00    -0.081 SA
BRANCH  25  26
HETATM   26  C   UNL     1     -41.022  55.267 -50.137  1.00  0.00     0.185 C 
BRANCH  26  27
HETATM   27  C   UNL     1     -41.272  54.051 -51.021  1.00  0.00     0.231 C 
HETATM   28  N   UNL     1     -40.144  53.486 -51.579  1.00  0.00    -0.326 N 
HETATM   29  H   UNL     1     -39.309  54.066 -51.576  1.00  0.00     0.169 HD
HETATM   30  O   UNL     1     -42.421  53.623 -51.132  1.00  0.00    -0.272 OA
BRANCH  28  31
HETATM   31  C   UNL     1     -40.069  52.326 -52.380  1.00  0.00     0.037 A 
HETATM   32  C   UNL     1     -39.659  51.078 -51.906  1.00  0.00     0.066 A 
HETATM   33  C   UNL     1     -39.617  49.988 -52.776  1.00  0.00     0.067 A 
HETATM   34  C   UNL     1     -39.976  50.119 -54.111  1.00  0.00     0.036 A 
HETATM   35  C   UNL     1     -40.377  51.362 -54.592  1.00  0.00     0.005 A 
HETATM   36  C   UNL     1     -40.421  52.461 -53.730  1.00  0.00     0.029 A 
BRANCH  33  37
HETATM   37  O   UNL     1     -39.222  48.755 -52.345  1.00  0.00    -0.361 OA
HETATM   38  H   UNL     1     -39.571  48.619 -51.448  1.00  0.00     0.217 HD
ENDBRANCH  33  37
ENDBRANCH  28  31
ENDBRANCH  26  27
ENDBRANCH  25  26
ENDBRANCH   2  25
TORSDOF 9
ENDMDL
MODEL 2
REMARK VINA RESULT:      -8.2      2.601      3.178
REMARK  9 active torsions:
REMARK  status: ('A' for Active; 'I' for Inactive)
REMARK    1  A    between atoms: C_2  and  N_3 
REMARK    2  A    between atoms: C_4  and  S_5 
REMARK    3  A    between atoms: S_5  and  C_6 
REMARK    4  A    between atoms: C_6  and  C_7 
REMARK       I    between atoms: C_7  and  N_8 
REMARK    5  A    between atoms: N_8  and  C_9 
REMARK    6  A    between atoms: C_11  and  O_12 
REMARK    7  A    between atoms: C_19  and  C_20 
REMARK    8  A    between atoms: C_23  and  S_24 
REMARK    9  A    between atoms: S_24  and  N_25 
ROOT
HETATM    1  N   UNL     1     -41.934  56.087 -52.094  1.00  0.00    -0.308 N 
HETATM    2  C   UNL     1     -42.142  55.328 -50.973  1.00  0.00     0.192 A 
HETATM    3  N   UNL     1     -42.946  54.333 -51.242  1.00  0.00    -0.122 NA
HETATM    4  N   UNL     1     -43.354  54.479 -52.537  1.00  0.00    -0.128 NA
HETATM    5  C   UNL     1     -42.771  55.547 -53.056  1.00  0.00     0.164 A 
ENDROOT
BRANCH   5   6
HETATM    6  C   UNL     1     -43.095  56.068 -54.386  1.00  0.00     0.012 A 
HETATM    7  C   UNL     1     -42.478  55.464 -55.495  1.00  0.00     0.017 A 
HETATM    8  C   UNL     1     -42.702  55.929 -56.792  1.00  0.00     0.026 A 
HETATM    9  C   UNL     1     -43.566  57.005 -56.991  1.00  0.00     0.074 A 
HETATM   10  C   UNL     1     -44.171  57.639 -55.902  1.00  0.00     0.026 A 
HETATM   11  C   UNL     1     -43.928  57.174 -54.603  1.00  0.00     0.017 A 
BRANCH   9  12
HETATM   12  S   UNL     1     -43.822  57.637 -58.622  1.00  0.00     0.243 S 
HETATM   13  O   UNL     1     -43.974  56.527 -59.532  1.00  0.00    -0.206 OA
HETATM   14  O   UNL     1     -44.799  58.704 -58.578  1.00  0.00    -0.206 OA
BRANCH  12  15
HETATM   15  N   UNL     1     -42.328  58.397 -58.997  1.00  0.00    -0.203 NA
HETATM   16  C   UNL     1     -42.023  59.667 -58.266  1.00  0.00     0.135 C 
HETATM   17  C   UNL     1     -42.777  60.889 -58.833  1.00  0.00     0.250 C 
HETATM   18  N   UNL     1     -42.588  61.005 -60.344  1.00  0.00    -0.073 N 
HETATM   19  H   UNL     1     -41.595  61.209 -60.515  1.00  0.00     0.279 HD
HETATM   20  C   UNL     1     -43.382  62.152 -60.906  1.00  0.00     0.269 C 
HETATM   21  C   UNL     1     -42.914  59.698 -61.067  1.00  0.00     0.250 C 
HETATM   22  C   UNL     1     -42.088  58.546 -60.469  1.00  0.00     0.135 C 
ENDBRANCH  12  15
ENDBRANCH   9  12
ENDBRANCH   5   6
BRANCH   1  23
HETATM   23  C   UNL     1     -41.082  57.250 -52.205  1.00  0.00     0.128 C 
HETATM   24  C   UNL     1     -41.804  58.538 -51.843  1.00  0.00     0.027 C 
ENDBRANCH   1  23
BRANCH   2  25
HETATM   25  S   UNL     1     -41.500  55.634 -49.402  1.00  0.00    -0.081 SA
BRANCH  25  26
HETATM   26  C   UNL     1     -40.061  54.529 -49.377  1.00  0.00     0.185 C 
BRANCH  26  27
HETATM   27  C   UNL     1     -40.218  53.191 -50.088  1.00  0.00     0.231 C 
HETATM   28  N   UNL     1     -39.944  53.205 -51.440  1.00  0.00    -0.326 N 
HETATM   29  H   UNL     1     -39.928  54.122 -51.880  1.00  0.00     0.169 HD
HETATM   30  O   UNL     1     -40.513  52.196 -49.425  1.00  0.00    -0.272 OA
BRANCH  28  31
HETATM   31  C   UNL     1     -39.945  52.110 -52.330  1.00  0.00     0.037 A 
HETATM   32  C   UNL     1     -39.515  50.826 -51.985  1.00  0.00     0.066 A 
HETATM   33  C   UNL     1     -39.554  49.806 -52.936  1.00  0.00     0.067 A 
HETATM   34  C   UNL     1     -40.013  50.041 -54.225  1.00  0.00     0.036 A 
HETATM   35  C   UNL     1     -40.435  51.320 -54.578  1.00  0.00     0.005 A 
HETATM   36  C   UNL     1     -40.398  52.350 -53.635  1.00  0.00     0.029 A 
BRANCH  33  37
HETATM   37  O   UNL     1     -39.142  48.540 -52.631  1.00  0.00    -0.361 OA
HETATM   38  H   UNL     1     -38.289  48.600 -52.170  1.00  0.00     0.217 HD
ENDBRANCH  33  37
ENDBRANCH  28  31
ENDBRANCH  26  27
ENDBRANCH  25  26
ENDBRANCH   2  25
TORSDOF 9
ENDMDL
MODEL 3
REMARK VINA RESULT:      -7.9      2.586      5.066
REMARK  9 active torsions:
REMARK  status: ('A' for Active; 'I' for Inactive)
REMARK    1  A    between atoms: C_2  and  N_3 
REMARK    2  A    between atoms: C_4  and  S_5 
REMARK    3  A    between atoms: S_5  and  C_6 
REMARK    4  A    between atoms: C_6  and  C_7 
REMARK       I    between atoms: C_7  and  N_8 
REMARK    5  A    between atoms: N_8  and  C_9 
REMARK    6  A    between atoms: C_11  and  O_12 
REMARK    7  A    between atoms: C_19  and  C_20 
REMARK    8  A    between atoms: C_23  and  S_24 
REMARK    9  A    between atoms: S_24  and  N_25 
ROOT
HETATM    1  N   UNL     1     -41.373  53.526 -52.937  1.00  0.00    -0.308 N 
HETATM    2  C   UNL     1     -41.674  53.377 -51.609  1.00  0.00     0.192 A 
HETATM    3  N   UNL     1     -42.867  53.850 -51.358  1.00  0.00    -0.122 NA
HETATM    4  N   UNL     1     -43.334  54.407 -52.515  1.00  0.00    -0.128 NA
HETATM    5  C   UNL     1     -42.433  54.240 -53.469  1.00  0.00     0.164 A 
ENDROOT
BRANCH   5   6
HETATM    6  C   UNL     1     -42.559  54.837 -54.801  1.00  0.00     0.012 A 
HETATM    7  C   UNL     1     -42.098  56.153 -54.976  1.00  0.00     0.017 A 
HETATM    8  C   UNL     1     -42.220  56.807 -56.203  1.00  0.00     0.026 A 
HETATM    9  C   UNL     1     -42.797  56.135 -57.280  1.00  0.00     0.074 A 
HETATM   10  C   UNL     1     -43.286  54.835 -57.124  1.00  0.00     0.026 A 
HETATM   11  C   UNL     1     -43.173  54.193 -55.884  1.00  0.00     0.017 A 
BRANCH   9  12
HETATM   12  S   UNL     1     -43.003  56.966 -58.826  1.00  0.00     0.243 S 
HETATM   13  O   UNL     1     -42.362  58.257 -58.749  1.00  0.00    -0.206 OA
HETATM   14  O   UNL     1     -42.709  56.052 -59.909  1.00  0.00    -0.206 OA
BRANCH  12  15
HETATM   15  N   UNL     1     -44.695  57.248 -58.909  1.00  0.00    -0.203 NA
HETATM   16  C   UNL     1     -45.227  57.741 -60.219  1.00  0.00     0.135 C 
HETATM   17  C   UNL     1     -44.974  59.247 -60.446  1.00  0.00     0.250 C 
HETATM   18  N   UNL     1     -45.449  60.075 -59.254  1.00  0.00    -0.073 N 
HETATM   19  H   UNL     1     -46.471  59.987 -59.206  1.00  0.00     0.279 HD
HETATM   20  C   UNL     1     -45.136  61.534 -59.444  1.00  0.00     0.269 C 
HETATM   21  C   UNL     1     -44.886  59.556 -57.931  1.00  0.00     0.250 C 
HETATM   22  C   UNL     1     -45.221  58.064 -57.767  1.00  0.00     0.135 C 
ENDBRANCH  12  15
ENDBRANCH   9  12
ENDBRANCH   5   6
BRANCH   1  23
HETATM   23  C   UNL     1     -40.164  53.095 -53.604  1.00  0.00     0.128 C 
HETATM   24  C   UNL     1     -40.328  51.749 -54.294  1.00  0.00     0.027 C 
ENDBRANCH   1  23
BRANCH   2  25
HETATM   25  S   UNL     1     -40.639  52.714 -50.398  1.00  0.00    -0.081 SA
BRANCH  25  26
HETATM   26  C   UNL     1     -39.757  54.193 -49.828  1.00  0.00     0.185 C 
BRANCH  26  27
HETATM   27  C   UNL     1     -40.596  55.447 -49.615  1.00  0.00     0.231 C 
HETATM   28  N   UNL     1     -40.627  56.325 -50.679  1.00  0.00    -0.326 N 
HETATM   29  H   UNL     1     -39.900  56.200 -51.379  1.00  0.00     0.169 HD
HETATM   30  O   UNL     1     -41.224  55.570 -48.563  1.00  0.00    -0.272 OA
BRANCH  28  31
HETATM   31  C   UNL     1     -41.365  57.523 -50.785  1.00  0.00     0.037 A 
HETATM   32  C   UNL     1     -42.642  57.604 -51.344  1.00  0.00     0.066 A 
HETATM   33  C   UNL     1     -43.294  58.836 -51.405  1.00  0.00     0.067 A 
HETATM   34  C   UNL     1     -42.695  59.991 -50.919  1.00  0.00     0.036 A 
HETATM   35  C   UNL     1     -41.419  59.919 -50.368  1.00  0.00     0.005 A 
HETATM   36  C   UNL     1     -40.756  58.691 -50.304  1.00  0.00     0.029 A 
BRANCH  33  37
HETATM   37  O   UNL     1     -44.543  58.949 -51.945  1.00  0.00    -0.361 OA
HETATM   38  H   UNL     1     -44.461  58.914 -52.912  1.00  0.00     0.217 HD
ENDBRANCH  33  37
ENDBRANCH  28  31
ENDBRANCH  26  27
ENDBRANCH  25  26
ENDBRANCH   2  25
TORSDOF 9
ENDMDL
MODEL 4
REMARK VINA RESULT:      -7.7      2.092      2.811
REMARK  9 active torsions:
REMARK  status: ('A' for Active; 'I' for Inactive)
REMARK    1  A    between atoms: C_2  and  N_3 
REMARK    2  A    between atoms: C_4  and  S_5 
REMARK    3  A    between atoms: S_5  and  C_6 
REMARK    4  A    between atoms: C_6  and  C_7 
REMARK       I    between atoms: C_7  and  N_8 
REMARK    5  A    between atoms: N_8  and  C_9 
REMARK    6  A    between atoms: C_11  and  O_12 
REMARK    7  A    between atoms: C_19  and  C_20 
REMARK    8  A    between atoms: C_23  and  S_24 
REMARK    9  A    between atoms: S_24  and  N_25 
ROOT
HETATM    1  N   UNL     1     -42.312  57.176 -52.571  1.00  0.00    -0.308 N 
HETATM    2  C   UNL     1     -42.384  56.862 -51.240  1.00  0.00     0.192 A 
HETATM    3  N   UNL     1     -43.631  56.822 -50.850  1.00  0.00    -0.122 NA
HETATM    4  N   UNL     1     -44.401  57.203 -51.912  1.00  0.00    -0.128 NA
HETATM    5  C   UNL     1     -43.617  57.443 -52.950  1.00  0.00     0.164 A 
ENDROOT
BRANCH   5   6
HETATM    6  C   UNL     1     -44.108  58.002 -54.211  1.00  0.00     0.012 A 
HETATM    7  C   UNL     1     -44.508  59.350 -54.219  1.00  0.00     0.017 A 
HETATM    8  C   UNL     1     -45.027  59.945 -55.370  1.00  0.00     0.026 A 
HETATM    9  C   UNL     1     -45.136  59.191 -56.539  1.00  0.00     0.074 A 
HETATM   10  C   UNL     1     -44.769  57.842 -56.548  1.00  0.00     0.026 A 
HETATM   11  C   UNL     1     -44.264  57.250 -55.383  1.00  0.00     0.017 A 
BRANCH   9  12
HETATM   12  S   UNL     1     -45.836  59.917 -57.991  1.00  0.00     0.243 S 
HETATM   13  O   UNL     1     -47.272  59.782 -57.932  1.00  0.00    -0.206 OA
HETATM   14  O   UNL     1     -45.218  61.202 -58.233  1.00  0.00    -0.206 OA
BRANCH  12  15
HETATM   15  N   UNL     1     -45.284  58.895 -59.256  1.00  0.00    -0.203 NA
HETATM   16  C   UNL     1     -44.018  59.306 -59.942  1.00  0.00     0.135 C 
HETATM   17  C   UNL     1     -44.226  60.445 -60.963  1.00  0.00     0.250 C 
HETATM   18  N   UNL     1     -45.358  60.120 -61.935  1.00  0.00    -0.073 N 
HETATM   19  H   UNL     1     -45.057  59.316 -62.500  1.00  0.00     0.279 HD
HETATM   20  C   UNL     1     -45.607  61.261 -62.883  1.00  0.00     0.269 C 
HETATM   21  C   UNL     1     -46.640  59.711 -61.210  1.00  0.00     0.250 C 
HETATM   22  C   UNL     1     -46.352  58.545 -60.249  1.00  0.00     0.135 C 
ENDBRANCH  12  15
ENDBRANCH   9  12
ENDBRANCH   5   6
BRANCH   1  23
HETATM   23  C   UNL     1     -41.112  57.280 -53.372  1.00  0.00     0.128 C 
HETATM   24  C   UNL     1     -40.874  56.045 -54.227  1.00  0.00     0.027 C 
ENDBRANCH   1  23
BRANCH   2  25
HETATM   25  S   UNL     1     -41.047  56.603 -50.181  1.00  0.00    -0.081 SA
BRANCH  25  26
HETATM   26  C   UNL     1     -41.325  54.887 -49.660  1.00  0.00     0.185 C 
BRANCH  26  27
HETATM   27  C   UNL     1     -41.444  53.849 -50.769  1.00  0.00     0.231 C 
HETATM   28  N   UNL     1     -40.259  53.253 -51.149  1.00  0.00    -0.326 N 
HETATM   29  H   UNL     1     -39.409  53.732 -50.862  1.00  0.00     0.169 HD
HETATM   30  O   UNL     1     -42.561  53.570 -51.205  1.00  0.00    -0.272 OA
BRANCH  28  31
HETATM   31  C   UNL     1     -40.079  52.223 -52.097  1.00  0.00     0.037 A 
HETATM   32  C   UNL     1     -39.726  50.913 -51.765  1.00  0.00     0.066 A 
HETATM   33  C   UNL     1     -39.571  49.963 -52.774  1.00  0.00     0.067 A 
HETATM   34  C   UNL     1     -39.760  50.294 -54.110  1.00  0.00     0.036 A 
HETATM   35  C   UNL     1     -40.103  51.599 -54.448  1.00  0.00     0.005 A 
HETATM   36  C   UNL     1     -40.259  52.561 -53.446  1.00  0.00     0.029 A 
BRANCH  33  37
HETATM   37  O   UNL     1     -39.227  48.674 -52.485  1.00  0.00    -0.361 OA
HETATM   38  H   UNL     1     -40.040  48.179 -52.284  1.00  0.00     0.217 HD
ENDBRANCH  33  37
ENDBRANCH  28  31
ENDBRANCH  26  27
ENDBRANCH  25  26
ENDBRANCH   2  25
TORSDOF 9
ENDMDL
MODEL 5
REMARK VINA RESULT:      -7.5      1.935      2.344
REMARK  9 active torsions:
REMARK  status: ('A' for Active; 'I' for Inactive)
REMARK    1  A    between atoms: C_2  and  N_3 
REMARK    2  A    between atoms: C_4  and  S_5 
REMARK    3  A    between atoms: S_5  and  C_6 
REMARK    4  A    between atoms: C_6  and  C_7 
REMARK       I    between atoms: C_7  and  N_8 
REMARK    5  A    between atoms: N_8  and  C_9 
REMARK    6  A    between atoms: C_11  and  O_12 
REMARK    7  A    between atoms: C_19  and  C_20 
REMARK    8  A    between atoms: C_23  and  S_24 
REMARK    9  A    between atoms: S_24  and  N_25 
ROOT
HETATM    1  N   UNL     1     -42.342  58.173 -53.039  1.00  0.00    -0.308 N 
HETATM    2  C   UNL     1     -41.466  57.254 -52.524  1.00  0.00     0.192 A 
HETATM    3  N   UNL     1     -41.025  56.468 -53.470  1.00  0.00    -0.122 NA
HETATM    4  N   UNL     1     -41.682  56.806 -54.619  1.00  0.00    -0.128 NA
HETATM    5  C   UNL     1     -42.498  57.817 -54.368  1.00  0.00     0.164 A 
ENDROOT
BRANCH   5   6
HETATM    6  C   UNL     1     -43.452  58.338 -55.350  1.00  0.00     0.012 A 
HETATM    7  C   UNL     1     -44.748  57.792 -55.358  1.00  0.00     0.017 A 
HETATM    8  C   UNL     1     -45.702  58.204 -56.289  1.00  0.00     0.026 A 
HETATM    9  C   UNL     1     -45.366  59.188 -57.220  1.00  0.00     0.074 A 
HETATM   10  C   UNL     1     -44.078  59.727 -57.247  1.00  0.00     0.026 A 
HETATM   11  C   UNL     1     -43.122  59.295 -56.318  1.00  0.00     0.017 A 
BRANCH   9  12
HETATM   12  S   UNL     1     -46.548  59.686 -58.437  1.00  0.00     0.243 S 
HETATM   13  O   UNL     1     -47.721  58.853 -58.315  1.00  0.00    -0.206 OA
HETATM   14  O   UNL     1     -46.657  61.129 -58.442  1.00  0.00    -0.206 OA
BRANCH  12  15
HETATM   15  N   UNL     1     -45.791  59.277 -59.923  1.00  0.00    -0.203 NA
HETATM   16  C   UNL     1     -46.399  59.855 -61.163  1.00  0.00     0.135 C 
HETATM   17  C   UNL     1     -47.673  59.109 -61.617  1.00  0.00     0.250 C 
HETATM   18  N   UNL     1     -47.432  57.605 -61.711  1.00  0.00    -0.073 N 
HETATM   19  H   UNL     1     -46.755  57.448 -62.468  1.00  0.00     0.279 HD
HETATM   20  C   UNL     1     -48.692  56.872 -62.082  1.00  0.00     0.269 C 
HETATM   21  C   UNL     1     -46.818  57.039 -60.430  1.00  0.00     0.250 C 
HETATM   22  C   UNL     1     -45.534  57.808 -60.077  1.00  0.00     0.135 C 
ENDBRANCH  12  15
ENDBRANCH   9  12
ENDBRANCH   5   6
BRANCH   1  23
HETATM   23  C   UNL     1     -43.013  59.230 -52.314  1.00  0.00     0.128 C 
HETATM   24  C   UNL     1     -42.474  60.608 -52.665  1.00  0.00     0.027 C 
ENDBRANCH   1  23
BRANCH   2  25
HETATM   25  S   UNL     1     -41.024  57.088 -50.865  1.00  0.00    -0.081 SA
BRANCH  25  26
HETATM   26  C   UNL     1     -42.156  55.780 -50.318  1.00  0.00     0.185 C 
BRANCH  26  27
HETATM   27  C   UNL     1     -42.052  54.443 -51.040  1.00  0.00     0.231 C 
HETATM   28  N   UNL     1     -40.769  54.023 -51.325  1.00  0.00    -0.326 N 
HETATM   29  H   UNL     1     -40.047  54.738 -51.276  1.00  0.00     0.169 HD
HETATM   30  O   UNL     1     -43.082  53.807 -51.267  1.00  0.00    -0.272 OA
BRANCH  28  31
HETATM   31  C   UNL     1     -40.373  52.808 -51.924  1.00  0.00     0.037 A 
HETATM   32  C   UNL     1     -39.924  51.697 -51.207  1.00  0.00     0.066 A 
HETATM   33  C   UNL     1     -39.554  50.538 -51.889  1.00  0.00     0.067 A 
HETATM   34  C   UNL     1     -39.623  50.466 -53.275  1.00  0.00     0.036 A 
HETATM   35  C   UNL     1     -40.062  51.572 -53.996  1.00  0.00     0.005 A 
HETATM   36  C   UNL     1     -40.433  52.739 -53.323  1.00  0.00     0.029 A 
BRANCH  33  37
HETATM   37  O   UNL     1     -39.111  49.434 -51.219  1.00  0.00    -0.361 OA
HETATM   38  H   UNL     1     -38.687  49.727 -50.396  1.00  0.00     0.217 HD
ENDBRANCH  33  37
ENDBRANCH  28  31
ENDBRANCH  26  27
ENDBRANCH  25  26
ENDBRANCH   2  25
TORSDOF 9
ENDMDL
MODEL 6
REMARK VINA RESULT:      -7.4      2.799      3.380
REMARK  9 active torsions:
REMARK  status: ('A' for Active; 'I' for Inactive)
REMARK    1  A    between atoms: C_2  and  N_3 
REMARK    2  A    between atoms: C_4  and  S_5 
REMARK    3  A    between atoms: S_5  and  C_6 
REMARK    4  A    between atoms: C_6  and  C_7 
REMARK       I    between atoms: C_7  and  N_8 
REMARK    5  A    between atoms: N_8  and  C_9 
REMARK    6  A    between atoms: C_11  and  O_12 
REMARK    7  A    between atoms: C_19  and  C_20 
REMARK    8  A    between atoms: C_23  and  S_24 
REMARK    9  A    between atoms: S_24  and  N_25 
ROOT
HETATM    1  N   UNL     1     -42.823  57.088 -53.559  1.00  0.00    -0.308 N 
HETATM    2  C   UNL     1     -43.028  56.105 -52.627  1.00  0.00     0.192 A 
HETATM    3  N   UNL     1     -43.432  55.006 -53.209  1.00  0.00    -0.122 NA
HETATM    4  N   UNL     1     -43.587  55.282 -54.537  1.00  0.00    -0.128 NA
HETATM    5  C   UNL     1     -43.247  56.541 -54.759  1.00  0.00     0.164 A 
ENDROOT
BRANCH   5   6
HETATM    6  C   UNL     1     -43.425  57.202 -56.054  1.00  0.00     0.012 A 
HETATM    7  C   UNL     1     -42.367  57.132 -56.977  1.00  0.00     0.017 A 
HETATM    8  C   UNL     1     -42.442  57.769 -58.216  1.00  0.00     0.026 A 
HETATM    9  C   UNL     1     -43.597  58.478 -58.550  1.00  0.00     0.074 A 
HETATM   10  C   UNL     1     -44.651  58.583 -57.639  1.00  0.00     0.026 A 
HETATM   11  C   UNL     1     -44.559  57.952 -56.391  1.00  0.00     0.017 A 
BRANCH   9  12
HETATM   12  S   UNL     1     -43.688  59.331 -60.095  1.00  0.00     0.243 S 
HETATM   13  O   UNL     1     -42.546  58.965 -60.898  1.00  0.00    -0.206 OA
HETATM   14  O   UNL     1     -45.032  59.232 -60.623  1.00  0.00    -0.206 OA
BRANCH  12  15
HETATM   15  N   UNL     1     -43.488  60.979 -59.656  1.00  0.00    -0.203 NA
HETATM   16  C   UNL     1     -44.298  61.978 -60.423  1.00  0.00     0.135 C 
HETATM   17  C   UNL     1     -43.715  62.288 -61.818  1.00  0.00     0.250 C 
HETATM   18  N   UNL     1     -42.235  62.654 -61.732  1.00  0.00    -0.073 N 
HETATM   19  H   UNL     1     -42.167  63.541 -61.218  1.00  0.00     0.279 HD
HETATM   20  C   UNL     1     -41.649  62.885 -63.098  1.00  0.00     0.269 C 
HETATM   21  C   UNL     1     -41.429  61.615 -60.951  1.00  0.00     0.250 C 
HETATM   22  C   UNL     1     -42.052  61.402 -59.561  1.00  0.00     0.135 C 
ENDBRANCH  12  15
ENDBRANCH   9  12
ENDBRANCH   5   6
BRANCH   1  23
HETATM   23  C   UNL     1     -42.344  58.430 -53.310  1.00  0.00     0.128 C 
HETATM   24  C   UNL     1     -40.841  58.556 -53.508  1.00  0.00     0.027 C 
ENDBRANCH   1  23
BRANCH   2  25
HETATM   25  S   UNL     1     -42.844  56.266 -50.920  1.00  0.00    -0.081 SA
BRANCH  25  26
HETATM   26  C   UNL     1     -41.123  55.741 -50.690  1.00  0.00     0.185 C 
BRANCH  26  27
HETATM   27  C   UNL     1     -40.849  54.245 -50.787  1.00  0.00     0.231 C 
HETATM   28  N   UNL     1     -40.598  53.772 -52.058  1.00  0.00    -0.326 N 
HETATM   29  H   UNL     1     -40.875  54.383 -52.822  1.00  0.00     0.169 HD
HETATM   30  O   UNL     1     -40.810  53.580 -49.751  1.00  0.00    -0.272 OA
BRANCH  28  31
HETATM   31  C   UNL     1     -40.254  52.456 -52.434  1.00  0.00     0.037 A 
HETATM   32  C   UNL     1     -39.812  51.480 -51.537  1.00  0.00     0.066 A 
HETATM   33  C   UNL     1     -39.495  50.205 -52.005  1.00  0.00     0.067 A 
HETATM   34  C   UNL     1     -39.609  49.883 -53.351  1.00  0.00     0.036 A 
HETATM   35  C   UNL     1     -40.040  50.853 -54.251  1.00  0.00     0.005 A 
HETATM   36  C   UNL     1     -40.359  52.135 -53.794  1.00  0.00     0.029 A 
BRANCH  33  37
HETATM   37  O   UNL     1     -39.061  49.228 -51.155  1.00  0.00    -0.361 OA
HETATM   38  H   UNL     1     -39.827  48.893 -50.660  1.00  0.00     0.217 HD
ENDBRANCH  33  37
ENDBRANCH  28  31
ENDBRANCH  26  27
ENDBRANCH  25  26
ENDBRANCH   2  25
TORSDOF 9
ENDMDL
MODEL 7
REMARK VINA RESULT:      -7.4      3.911      4.898
REMARK  9 active torsions:
REMARK  status: ('A' for Active; 'I' for Inactive)
REMARK    1  A    between atoms: C_2  and  N_3 
REMARK    2  A    between atoms: C_4  and  S_5 
REMARK    3  A    between atoms: S_5  and  C_6 
REMARK    4  A    between atoms: C_6  and  C_7 
REMARK       I    between atoms: C_7  and  N_8 
REMARK    5  A    between atoms: N_8  and  C_9 
REMARK    6  A    between atoms: C_11  and  O_12 
REMARK    7  A    between atoms: C_19  and  C_20 
REMARK    8  A    between atoms: C_23  and  S_24 
REMARK    9  A    between atoms: S_24  and  N_25 
ROOT
HETATM    1  N   UNL     1     -42.464  57.891 -54.447  1.00  0.00    -0.308 N 
HETATM    2  C   UNL     1     -43.089  56.936 -53.690  1.00  0.00     0.192 A 
HETATM    3  N   UNL     1     -43.923  56.249 -54.426  1.00  0.00    -0.122 NA
HETATM    4  N   UNL     1     -43.924  56.810 -55.671  1.00  0.00    -0.128 NA
HETATM    5  C   UNL     1     -43.066  57.817 -55.691  1.00  0.00     0.164 A 
ENDROOT
BRANCH   5   6
HETATM    6  C   UNL     1     -42.921  58.721 -56.835  1.00  0.00     0.012 A 
HETATM    7  C   UNL     1     -43.691  59.897 -56.844  1.00  0.00     0.017 A 
HETATM    8  C   UNL     1     -43.641  60.789 -57.916  1.00  0.00     0.026 A 
HETATM    9  C   UNL     1     -42.798  60.514 -58.993  1.00  0.00     0.074 A 
HETATM   10  C   UNL     1     -42.041  59.339 -59.019  1.00  0.00     0.026 A 
HETATM   11  C   UNL     1     -42.111  58.443 -57.944  1.00  0.00     0.017 A 
BRANCH   9  12
HETATM   12  S   UNL     1     -42.760  61.608 -60.381  1.00  0.00     0.243 S 
HETATM   13  O   UNL     1     -41.751  61.151 -61.307  1.00  0.00    -0.206 OA
HETATM   14  O   UNL     1     -44.112  61.874 -60.822  1.00  0.00    -0.206 OA
BRANCH  12  15
HETATM   15  N   UNL     1     -42.197  63.086 -59.711  1.00  0.00    -0.203 NA
HETATM   16  C   UNL     1     -42.189  64.273 -60.623  1.00  0.00     0.135 C 
HETATM   17  C   UNL     1     -40.998  64.274 -61.606  1.00  0.00     0.250 C 
HETATM   18  N   UNL     1     -39.674  64.072 -60.873  1.00  0.00    -0.073 N 
HETATM   19  H   UNL     1     -39.522  64.896 -60.278  1.00  0.00     0.279 HD
HETATM   20  C   UNL     1     -38.522  64.000 -61.837  1.00  0.00     0.269 C 
HETATM   21  C   UNL     1     -39.705  62.850 -59.954  1.00  0.00     0.250 C 
HETATM   22  C   UNL     1     -40.893  62.953 -58.982  1.00  0.00     0.135 C 
ENDBRANCH  12  15
ENDBRANCH   9  12
ENDBRANCH   5   6
BRANCH   1  23
HETATM   23  C   UNL     1     -41.451  58.823 -54.001  1.00  0.00     0.128 C 
HETATM   24  C   UNL     1     -42.044  60.126 -53.489  1.00  0.00     0.027 C 
ENDBRANCH   1  23
BRANCH   2  25
HETATM   25  S   UNL     1     -42.877  56.678 -51.998  1.00  0.00    -0.081 SA
BRANCH  25  26
HETATM   26  C   UNL     1     -41.323  55.743 -51.967  1.00  0.00     0.185 C 
BRANCH  26  27
HETATM   27  C   UNL     1     -41.430  54.236 -52.166  1.00  0.00     0.231 C 
HETATM   28  N   UNL     1     -40.230  53.574 -52.320  1.00  0.00    -0.326 N 
HETATM   29  H   UNL     1     -39.429  54.156 -52.553  1.00  0.00     0.169 HD
HETATM   30  O   UNL     1     -42.542  53.708 -52.118  1.00  0.00    -0.272 OA
BRANCH  28  31
HETATM   31  C   UNL     1     -40.025  52.185 -52.457  1.00  0.00     0.037 A 
HETATM   32  C   UNL     1     -40.098  51.503 -53.674  1.00  0.00     0.066 A 
HETATM   33  C   UNL     1     -39.880  50.126 -53.709  1.00  0.00     0.067 A 
HETATM   34  C   UNL     1     -39.591  49.414 -52.552  1.00  0.00     0.036 A 
HETATM   35  C   UNL     1     -39.525  50.085 -51.335  1.00  0.00     0.005 A 
HETATM   36  C   UNL     1     -39.744  51.464 -51.287  1.00  0.00     0.029 A 
BRANCH  33  37
HETATM   37  O   UNL     1     -39.943  49.429 -54.881  1.00  0.00    -0.361 OA
HETATM   38  H   UNL     1     -40.737  49.716 -55.364  1.00  0.00     0.217 HD
ENDBRANCH  33  37
ENDBRANCH  28  31
ENDBRANCH  26  27
ENDBRANCH  25  26
ENDBRANCH   2  25
TORSDOF 9
ENDMDL
MODEL 8
REMARK VINA RESULT:      -7.4      3.164      5.676
REMARK  9 active torsions:
REMARK  status: ('A' for Active; 'I' for Inactive)
REMARK    1  A    between atoms: C_2  and  N_3 
REMARK    2  A    between atoms: C_4  and  S_5 
REMARK    3  A    between atoms: S_5  and  C_6 
REMARK    4  A    between atoms: C_6  and  C_7 
REMARK       I    between atoms: C_7  and  N_8 
REMARK    5  A    between atoms: N_8  and  C_9 
REMARK    6  A    between atoms: C_11  and  O_12 
REMARK    7  A    between atoms: C_19  and  C_20 
REMARK    8  A    between atoms: C_23  and  S_24 
REMARK    9  A    between atoms: S_24  and  N_25 
ROOT
HETATM    1  N   UNL     1     -41.751  55.015 -53.779  1.00  0.00    -0.308 N 
HETATM    2  C   UNL     1     -42.109  54.608 -52.521  1.00  0.00     0.192 A 
HETATM    3  N   UNL     1     -43.409  54.513 -52.428  1.00  0.00    -0.122 NA
HETATM    4  N   UNL     1     -43.935  54.949 -53.611  1.00  0.00    -0.128 NA
HETATM    5  C   UNL     1     -42.946  55.278 -54.427  1.00  0.00     0.164 A 
ENDROOT
BRANCH   5   6
HETATM    6  C   UNL     1     -43.162  55.912 -55.729  1.00  0.00     0.012 A 
HETATM    7  C   UNL     1     -42.972  55.127 -56.880  1.00  0.00     0.017 A 
HETATM    8  C   UNL     1     -43.118  55.668 -58.159  1.00  0.00     0.026 A 
HETATM    9  C   UNL     1     -43.473  57.010 -58.295  1.00  0.00     0.074 A 
HETATM   10  C   UNL     1     -43.642  57.816 -57.167  1.00  0.00     0.026 A 
HETATM   11  C   UNL     1     -43.479  57.268 -55.888  1.00  0.00     0.017 A 
BRANCH   9  12
HETATM   12  S   UNL     1     -43.613  57.721 -59.908  1.00  0.00     0.243 S 
HETATM   13  O   UNL     1     -42.446  57.364 -60.677  1.00  0.00    -0.206 OA
HETATM   14  O   UNL     1     -44.946  57.489 -60.423  1.00  0.00    -0.206 OA
BRANCH  12  15
HETATM   15  N   UNL     1     -43.524  59.410 -59.610  1.00  0.00    -0.203 NA
HETATM   16  C   UNL     1     -44.612  60.252 -60.201  1.00  0.00     0.135 C 
HETATM   17  C   UNL     1     -44.421  60.516 -61.710  1.00  0.00     0.250 C 
HETATM   18  N   UNL     1     -43.021  61.049 -62.007  1.00  0.00    -0.073 N 
HETATM   19  H   UNL     1     -42.945  61.975 -61.569  1.00  0.00     0.279 HD
HETATM   20  C   UNL     1     -42.811  61.237 -63.485  1.00  0.00     0.269 C 
HETATM   21  C   UNL     1     -41.929  60.168 -61.399  1.00  0.00     0.250 C 
HETATM   22  C   UNL     1     -42.172  59.995 -59.891  1.00  0.00     0.135 C 
ENDBRANCH  12  15
ENDBRANCH   9  12
ENDBRANCH   5   6
BRANCH   1  23
HETATM   23  C   UNL     1     -40.406  55.201 -54.279  1.00  0.00     0.128 C 
HETATM   24  C   UNL     1     -39.912  54.006 -55.079  1.00  0.00     0.027 C 
ENDBRANCH   1  23
BRANCH   2  25
HETATM   25  S   UNL     1     -41.036  54.306 -51.205  1.00  0.00    -0.081 SA
BRANCH  25  26
HETATM   26  C   UNL     1     -41.204  55.835 -50.242  1.00  0.00     0.185 C 
BRANCH  26  27
HETATM   27  C   UNL     1     -41.602  57.086 -51.015  1.00  0.00     0.231 C 
HETATM   28  N   UNL     1     -42.943  57.407 -50.970  1.00  0.00    -0.326 N 
HETATM   29  H   UNL     1     -43.567  56.663 -50.667  1.00  0.00     0.169 HD
HETATM   30  O   UNL     1     -40.723  57.748 -51.567  1.00  0.00    -0.272 OA
BRANCH  28  31
HETATM   31  C   UNL     1     -43.577  58.533 -51.534  1.00  0.00     0.037 A 
HETATM   32  C   UNL     1     -44.407  58.478 -52.657  1.00  0.00     0.066 A 
HETATM   33  C   UNL     1     -44.991  59.648 -53.143  1.00  0.00     0.067 A 
HETATM   34  C   UNL     1     -44.763  60.874 -52.531  1.00  0.00     0.036 A 
HETATM   35  C   UNL     1     -43.930  60.937 -51.418  1.00  0.00     0.005 A 
HETATM   36  C   UNL     1     -43.338  59.772 -50.923  1.00  0.00     0.029 A 
BRANCH  33  37
HETATM   37  O   UNL     1     -45.807  59.629 -54.237  1.00  0.00    -0.361 OA
HETATM   38  H   UNL     1     -45.662  58.793 -54.711  1.00  0.00     0.217 HD
ENDBRANCH  33  37
ENDBRANCH  28  31
ENDBRANCH  26  27
ENDBRANCH  25  26
ENDBRANCH   2  25
TORSDOF 9
ENDMDL
MODEL 9
REMARK VINA RESULT:      -7.3      6.457     11.727
REMARK  9 active torsions:
REMARK  status: ('A' for Active; 'I' for Inactive)
REMARK    1  A    between atoms: C_2  and  N_3 
REMARK    2  A    between atoms: C_4  and  S_5 
REMARK    3  A    between atoms: S_5  and  C_6 
REMARK    4  A    between atoms: C_6  and  C_7 
REMARK       I    between atoms: C_7  and  N_8 
REMARK    5  A    between atoms: N_8  and  C_9 
REMARK    6  A    between atoms: C_11  and  O_12 
REMARK    7  A    between atoms: C_19  and  C_20 
REMARK    8  A    between atoms: C_23  and  S_24 
REMARK    9  A    between atoms: S_24  and  N_25 
ROOT
HETATM    1  N   UNL     1     -46.213  62.649 -50.219  1.00  0.00    -0.308 N 
HETATM    2  C   UNL     1     -47.093  63.163 -49.304  1.00  0.00     0.192 A 
HETATM    3  N   UNL     1     -47.117  62.418 -48.230  1.00  0.00    -0.122 NA
HETATM    4  N   UNL     1     -46.310  61.341 -48.464  1.00  0.00    -0.128 NA
HETATM    5  C   UNL     1     -45.777  61.456 -49.670  1.00  0.00     0.164 A 
ENDROOT
BRANCH   5   6
HETATM    6  C   UNL     1     -44.968  60.403 -50.290  1.00  0.00     0.012 A 
HETATM    7  C   UNL     1     -45.604  59.192 -50.614  1.00  0.00     0.017 A 
HETATM    8  C   UNL     1     -44.894  58.126 -51.169  1.00  0.00     0.026 A 
HETATM    9  C   UNL     1     -43.530  58.273 -51.420  1.00  0.00     0.074 A 
HETATM   10  C   UNL     1     -42.871  59.458 -51.084  1.00  0.00     0.026 A 
HETATM   11  C   UNL     1     -43.589  60.516 -50.513  1.00  0.00     0.017 A 
BRANCH   9  12
HETATM   12  S   UNL     1     -42.608  56.915 -52.077  1.00  0.00     0.243 S 
HETATM   13  O   UNL     1     -43.189  56.524 -53.339  1.00  0.00    -0.206 OA
HETATM   14  O   UNL     1     -41.192  57.194 -51.964  1.00  0.00    -0.206 OA
BRANCH  12  15
HETATM   15  N   UNL     1     -42.916  55.644 -50.964  1.00  0.00    -0.203 NA
HETATM   16  C   UNL     1     -41.879  55.415 -49.908  1.00  0.00     0.135 C 
HETATM   17  C   UNL     1     -40.644  54.649 -50.428  1.00  0.00     0.250 C 
HETATM   18  N   UNL     1     -41.051  53.371 -51.158  1.00  0.00    -0.073 N 
HETATM   19  H   UNL     1     -41.475  52.742 -50.464  1.00  0.00     0.279 HD
HETATM   20  C   UNL     1     -39.852  52.662 -51.727  1.00  0.00     0.269 C 
HETATM   21  C   UNL     1     -42.104  53.633 -52.235  1.00  0.00     0.250 C 
HETATM   22  C   UNL     1     -43.314  54.357 -51.623  1.00  0.00     0.135 C 
ENDBRANCH  12  15
ENDBRANCH   9  12
ENDBRANCH   5   6
BRANCH   1  23
HETATM   23  C   UNL     1     -45.884  63.209 -51.512  1.00  0.00     0.128 C 
HETATM   24  C   UNL     1     -44.698  64.159 -51.451  1.00  0.00     0.027 C 
ENDBRANCH   1  23
BRANCH   2  25
HETATM   25  S   UNL     1     -48.087  64.557 -49.517  1.00  0.00    -0.081 SA
BRANCH  25  26
HETATM   26  C   UNL     1     -49.721  63.804 -49.753  1.00  0.00     0.185 C 
BRANCH  26  27
HETATM   27  C   UNL     1     -50.113  63.462 -51.185  1.00  0.00     0.231 C 
HETATM   28  N   UNL     1     -51.392  62.971 -51.346  1.00  0.00    -0.326 N 
HETATM   29  H   UNL     1     -51.848  62.635 -50.501  1.00  0.00     0.169 HD
HETATM   30  O   UNL     1     -49.312  63.692 -52.092  1.00  0.00    -0.272 OA
BRANCH  28  31
HETATM   31  C   UNL     1     -52.038  62.634 -52.553  1.00  0.00     0.037 A 
HETATM   32  C   UNL     1     -51.805  61.450 -53.257  1.00  0.00     0.066 A 
HETATM   33  C   UNL     1     -52.494  61.205 -54.445  1.00  0.00     0.067 A 
HETATM   34  C   UNL     1     -53.413  62.118 -54.946  1.00  0.00     0.036 A 
HETATM   35  C   UNL     1     -53.644  63.304 -54.254  1.00  0.00     0.005 A 
HETATM   36  C   UNL     1     -52.957  63.561 -53.064  1.00  0.00     0.029 A 
BRANCH  33  37
HETATM   37  O   UNL     1     -52.290  60.058 -55.157  1.00  0.00    -0.361 OA
HETATM   38  H   UNL     1     -52.340  60.273 -56.103  1.00  0.00     0.217 HD
ENDBRANCH  33  37
ENDBRANCH  28  31
ENDBRANCH  26  27
ENDBRANCH  25  26
ENDBRANCH   2  25
TORSDOF 9
ENDMDL
MODEL 10
REMARK VINA RESULT:      -7.2      1.265      1.683
REMARK  9 active torsions:
REMARK  status: ('A' for Active; 'I' for Inactive)
REMARK    1  A    between atoms: C_2  and  N_3 
REMARK    2  A    between atoms: C_4  and  S_5 
REMARK    3  A    between atoms: S_5  and  C_6 
REMARK    4  A    between atoms: C_6  and  C_7 
REMARK       I    between atoms: C_7  and  N_8 
REMARK    5  A    between atoms: N_8  and  C_9 
REMARK    6  A    between atoms: C_11  and  O_12 
REMARK    7  A    between atoms: C_19  and  C_20 
REMARK    8  A    between atoms: C_23  and  S_24 
REMARK    9  A    between atoms: S_24  and  N_25 
ROOT
HETATM    1  N   UNL     1     -42.203  57.721 -53.325  1.00  0.00    -0.308 N 
HETATM    2  C   UNL     1     -41.417  56.977 -52.486  1.00  0.00     0.192 A 
HETATM    3  N   UNL     1     -40.601  56.225 -53.177  1.00  0.00    -0.122 NA
HETATM    4  N   UNL     1     -40.906  56.400 -54.497  1.00  0.00    -0.128 NA
HETATM    5  C   UNL     1     -41.887  57.282 -54.599  1.00  0.00     0.164 A 
ENDROOT
BRANCH   5   6
HETATM    6  C   UNL     1     -42.548  57.598 -55.868  1.00  0.00     0.012 A 
HETATM    7  C   UNL     1     -43.208  56.556 -56.542  1.00  0.00     0.017 A 
HETATM    8  C   UNL     1     -43.826  56.766 -57.775  1.00  0.00     0.026 A 
HETATM    9  C   UNL     1     -43.801  58.041 -58.342  1.00  0.00     0.074 A 
HETATM   10  C   UNL     1     -43.130  59.087 -57.703  1.00  0.00     0.026 A 
HETATM   11  C   UNL     1     -42.499  58.861 -56.473  1.00  0.00     0.017 A 
BRANCH   9  12
HETATM   12  S   UNL     1     -44.537  58.312 -59.926  1.00  0.00     0.243 S 
HETATM   13  O   UNL     1     -43.576  58.969 -60.780  1.00  0.00    -0.206 OA
HETATM   14  O   UNL     1     -45.215  57.108 -60.356  1.00  0.00    -0.206 OA
BRANCH  12  15
HETATM   15  N   UNL     1     -45.782  59.449 -59.601  1.00  0.00    -0.203 NA
HETATM   16  C   UNL     1     -47.188  58.935 -59.662  1.00  0.00     0.135 C 
HETATM   17  C   UNL     1     -47.714  58.784 -61.105  1.00  0.00     0.250 C 
HETATM   18  N   UNL     1     -47.508  60.065 -61.909  1.00  0.00    -0.073 N 
HETATM   19  H   UNL     1     -48.102  60.791 -61.490  1.00  0.00     0.279 HD
HETATM   20  C   UNL     1     -47.954  59.894 -63.335  1.00  0.00     0.269 C 
HETATM   21  C   UNL     1     -46.064  60.564 -61.836  1.00  0.00     0.250 C 
HETATM   22  C   UNL     1     -45.638  60.729 -60.368  1.00  0.00     0.135 C 
ENDBRANCH  12  15
ENDBRANCH   9  12
ENDBRANCH   5   6
BRANCH   1  23
HETATM   23  C   UNL     1     -43.202  58.695 -52.939  1.00  0.00     0.128 C 
HETATM   24  C   UNL     1     -44.594  58.092 -52.842  1.00  0.00     0.027 C 
ENDBRANCH   1  23
BRANCH   2  25
HETATM   25  S   UNL     1     -41.496  56.963 -50.763  1.00  0.00    -0.081 SA
BRANCH  25  26
HETATM   26  C   UNL     1     -42.641  55.588 -50.464  1.00  0.00     0.185 C 
BRANCH  26  27
HETATM   27  C   UNL     1     -42.352  54.288 -51.204  1.00  0.00     0.231 C 
HETATM   28  N   UNL     1     -41.031  53.893 -51.210  1.00  0.00    -0.326 N 
HETATM   29  H   UNL     1     -40.352  54.611 -50.968  1.00  0.00     0.169 HD
HETATM   30  O   UNL     1     -43.293  53.655 -51.685  1.00  0.00    -0.272 OA
BRANCH  28  31
HETATM   31  C   UNL     1     -40.488  52.712 -51.759  1.00  0.00     0.037 A 
HETATM   32  C   UNL     1     -40.025  51.639 -50.993  1.00  0.00     0.066 A 
HETATM   33  C   UNL     1     -39.504  50.511 -51.627  1.00  0.00     0.067 A 
HETATM   34  C   UNL     1     -39.434  50.432 -53.011  1.00  0.00     0.036 A 
HETATM   35  C   UNL     1     -39.884  51.501 -53.781  1.00  0.00     0.005 A 
HETATM   36  C   UNL     1     -40.406  52.637 -53.156  1.00  0.00     0.029 A 
BRANCH  33  37
HETATM   37  O   UNL     1     -39.045  49.445 -50.908  1.00  0.00    -0.361 OA
HETATM   38  H   UNL     1     -39.734  48.759 -50.907  1.00  0.00     0.217 HD
ENDBRANCH  33  37
ENDBRANCH  28  31
ENDBRANCH  26  27
ENDBRANCH  25  26
ENDBRANCH   2  25
TORSDOF 9
ENDMDL
