MODEL 1
REMARK VINA RESULT:      -8.6      0.000      0.000
REMARK  5 active torsions:
REMARK  status: ('A' for Active; 'I' for Inactive)
REMARK    1  A    between atoms: C_3  and  O_4 
REMARK    2  A    between atoms: O_4  and  C_5 
REMARK    3  A    between atoms: C_5  and  C_6 
REMARK       I    between atoms: C_6  and  N_7 
REMARK    4  A    between atoms: N_7  and  N_8 
REMARK    5  A    between atoms: C_9  and  C_10 
ROOT
HETATM    1  C   UNL     1     -42.585  55.406 -56.345  1.00  0.00     0.261 C 
HETATM    2  N   UNL     1     -41.393  55.677 -55.672  1.00  0.00    -0.246 N 
HETATM    3  O   UNL     1     -43.191  54.339 -56.306  1.00  0.00    -0.269 OA
HETATM    4  H   UNL     1     -40.960  56.591 -55.737  1.00  0.00     0.192 HD
ENDROOT
BRANCH   2   5
HETATM    5  N   UNL     1     -40.809  54.714 -54.903  1.00  0.00    -0.184 NA
HETATM    6  C   UNL     1     -41.254  54.616 -53.691  1.00  0.00     0.153 C 
BRANCH   6   7
HETATM    7  C   UNL     1     -40.711  53.628 -52.778  1.00  0.00     0.018 A 
HETATM    8  C   UNL     1     -40.366  52.275 -53.111  1.00  0.00     0.004 A 
HETATM    9  C   UNL     1     -39.875  51.671 -51.955  1.00  0.00     0.043 A 
HETATM   10  C   UNL     1     -40.420  51.506 -54.294  1.00  0.00     0.014 A 
HETATM   11  C   UNL     1     -39.435  50.343 -51.918  1.00  0.00     0.030 A 
HETATM   12  N   UNL     1     -39.922  52.614 -50.956  1.00  0.00    -0.358 N 
HETATM   13  C   UNL     1     -39.498  49.605 -53.104  1.00  0.00     0.002 A 
HETATM   14  C   UNL     1     -39.984  50.176 -54.276  1.00  0.00     0.001 A 
HETATM   15  H   UNL     1     -39.625  52.449 -50.003  1.00  0.00     0.166 HD
HETATM   16  C   UNL     1     -40.426  53.798 -51.429  1.00  0.00     0.018 A 
HETATM   17  C   UNL     1     -40.582  54.979 -50.536  1.00  0.00     0.069 C 
ENDBRANCH   6   7
ENDBRANCH   2   5
BRANCH   1  18
HETATM   18  C   UNL     1     -43.059  56.625 -57.142  1.00  0.00     0.280 C 
BRANCH  18  19
HETATM   19  O   UNL     1     -42.876  56.471 -58.547  1.00  0.00    -0.341 OA
BRANCH  19  20
HETATM   20  C   UNL     1     -44.014  56.834 -59.223  1.00  0.00     0.081 A 
HETATM   21  C   UNL     1     -44.314  58.192 -59.423  1.00  0.00    -0.027 A 
HETATM   22  C   UNL     1     -43.420  59.287 -58.921  1.00  0.00     0.051 C 
HETATM   23  C   UNL     1     -45.507  58.524 -60.082  1.00  0.00     0.028 A 
HETATM   24  C   UNL     1     -46.347  57.521 -60.565  1.00  0.00     0.012 A 
HETATM   25  C   UNL     1     -46.013  56.176 -60.409  1.00  0.00     0.028 A 
HETATM   26 BR   UNL     1     -47.951  57.991 -61.450  1.00  0.00    -0.051 Br
HETATM   27  C   UNL     1     -44.831  55.817 -59.748  1.00  0.00    -0.027 A 
HETATM   28  C   UNL     1     -44.472  54.368 -59.579  1.00  0.00     0.051 C 
ENDBRANCH  19  20
ENDBRANCH  18  19
ENDBRANCH   1  18
TORSDOF 5
ENDMDL
MODEL 2
REMARK VINA RESULT:      -8.5      2.231      2.613
REMARK  5 active torsions:
REMARK  status: ('A' for Active; 'I' for Inactive)
REMARK    1  A    between atoms: C_3  and  O_4 
REMARK    2  A    between atoms: O_4  and  C_5 
REMARK    3  A    between atoms: C_5  and  C_6 
REMARK       I    between atoms: C_6  and  N_7 
REMARK    4  A    between atoms: N_7  and  N_8 
REMARK    5  A    between atoms: C_9  and  C_10 
ROOT
HETATM    1  C   UNL     1     -44.548  57.277 -54.130  1.00  0.00     0.261 C 
HETATM    2  N   UNL     1     -44.478  55.893 -54.292  1.00  0.00    -0.246 N 
HETATM    3  O   UNL     1     -43.957  57.918 -53.266  1.00  0.00    -0.269 OA
HETATM    4  H   UNL     1     -44.980  55.434 -55.043  1.00  0.00     0.192 HD
ENDROOT
BRANCH   2   5
HETATM    5  N   UNL     1     -43.712  55.144 -53.445  1.00  0.00    -0.184 NA
HETATM    6  C   UNL     1     -42.441  55.149 -53.685  1.00  0.00     0.153 C 
BRANCH   6   7
HETATM    7  C   UNL     1     -41.525  54.390 -52.853  1.00  0.00     0.018 A 
HETATM    8  C   UNL     1     -40.951  53.117 -53.181  1.00  0.00     0.004 A 
HETATM    9  C   UNL     1     -40.126  52.744 -52.121  1.00  0.00     0.043 A 
HETATM   10  C   UNL     1     -41.049  52.246 -54.288  1.00  0.00     0.014 A 
HETATM   11  C   UNL     1     -39.396  51.549 -52.109  1.00  0.00     0.030 A 
HETATM   12  N   UNL     1     -40.198  53.745 -51.182  1.00  0.00    -0.358 N 
HETATM   13  C   UNL     1     -39.511  50.707 -53.217  1.00  0.00     0.002 A 
HETATM   14  C   UNL     1     -40.326  51.047 -54.293  1.00  0.00     0.001 A 
HETATM   15  H   UNL     1     -39.697  53.738 -50.304  1.00  0.00     0.166 HD
HETATM   16  C   UNL     1     -41.038  54.745 -51.602  1.00  0.00     0.018 A 
HETATM   17  C   UNL     1     -41.288  55.944 -50.756  1.00  0.00     0.069 C 
ENDBRANCH   6   7
ENDBRANCH   2   5
BRANCH   1  18
HETATM   18  C   UNL     1     -45.457  57.911 -55.186  1.00  0.00     0.280 C 
BRANCH  18  19
HETATM   19  O   UNL     1     -44.728  58.525 -56.246  1.00  0.00    -0.341 OA
BRANCH  19  20
HETATM   20  C   UNL     1     -44.801  57.763 -57.384  1.00  0.00     0.081 A 
HETATM   21  C   UNL     1     -45.957  57.793 -58.183  1.00  0.00    -0.027 A 
HETATM   22  C   UNL     1     -47.141  58.647 -57.836  1.00  0.00     0.051 C 
HETATM   23  C   UNL     1     -46.010  56.969 -59.316  1.00  0.00     0.028 A 
HETATM   24  C   UNL     1     -44.916  56.175 -59.661  1.00  0.00     0.012 A 
HETATM   25  C   UNL     1     -43.753  56.193 -58.892  1.00  0.00     0.028 A 
HETATM   26 BR   UNL     1     -45.010  55.070 -61.193  1.00  0.00    -0.051 Br
HETATM   27  C   UNL     1     -43.677  57.002 -57.751  1.00  0.00    -0.027 A 
HETATM   28  C   UNL     1     -42.424  57.021 -56.923  1.00  0.00     0.051 C 
ENDBRANCH  19  20
ENDBRANCH  18  19
ENDBRANCH   1  18
TORSDOF 5
ENDMDL
MODEL 3
REMARK VINA RESULT:      -8.4      3.824      9.469
REMARK  5 active torsions:
REMARK  status: ('A' for Active; 'I' for Inactive)
REMARK    1  A    between atoms: C_3  and  O_4 
REMARK    2  A    between atoms: O_4  and  C_5 
REMARK    3  A    between atoms: C_5  and  C_6 
REMARK       I    between atoms: C_6  and  N_7 
REMARK    4  A    between atoms: N_7  and  N_8 
REMARK    5  A    between atoms: C_9  and  C_10 
ROOT
HETATM    1  C   UNL     1     -42.810  56.392 -53.993  1.00  0.00     0.261 C 
HETATM    2  N   UNL     1     -43.074  55.673 -55.159  1.00  0.00    -0.246 N 
HETATM    3  O   UNL     1     -42.901  57.611 -53.879  1.00  0.00    -0.269 OA
HETATM    4  H   UNL     1     -42.995  54.662 -55.172  1.00  0.00     0.192 HD
ENDROOT
BRANCH   2   5
HETATM    5  N   UNL     1     -43.461  56.327 -56.293  1.00  0.00    -0.184 NA
HETATM    6  C   UNL     1     -42.861  55.967 -57.382  1.00  0.00     0.153 C 
BRANCH   6   7
HETATM    7  C   UNL     1     -43.188  56.591 -58.651  1.00  0.00     0.018 A 
HETATM    8  C   UNL     1     -42.826  57.920 -59.051  1.00  0.00     0.004 A 
HETATM    9  C   UNL     1     -43.325  58.121 -60.337  1.00  0.00     0.043 A 
HETATM   10  C   UNL     1     -42.112  58.975 -58.441  1.00  0.00     0.014 A 
HETATM   11  C   UNL     1     -43.148  59.316 -61.044  1.00  0.00     0.030 A 
HETATM   12  N   UNL     1     -43.969  56.964 -60.705  1.00  0.00    -0.358 N 
HETATM   13  C   UNL     1     -42.437  60.342 -60.417  1.00  0.00     0.002 A 
HETATM   14  C   UNL     1     -41.925  60.177 -59.133  1.00  0.00     0.001 A 
HETATM   15  H   UNL     1     -44.429  56.827 -61.595  1.00  0.00     0.166 HD
HETATM   16  C   UNL     1     -43.902  56.031 -59.702  1.00  0.00     0.018 A 
HETATM   17  C   UNL     1     -44.530  54.690 -59.856  1.00  0.00     0.069 C 
ENDBRANCH   6   7
ENDBRANCH   2   5
BRANCH   1  18
HETATM   18  C   UNL     1     -42.396  55.460 -52.851  1.00  0.00     0.280 C 
BRANCH  18  19
HETATM   19  O   UNL     1     -40.982  55.372 -52.695  1.00  0.00    -0.341 OA
BRANCH  19  20
HETATM   20  C   UNL     1     -40.619  54.104 -52.317  1.00  0.00     0.081 A 
HETATM   21  C   UNL     1     -40.251  53.156 -53.287  1.00  0.00    -0.027 A 
HETATM   22  C   UNL     1     -40.235  53.481 -54.752  1.00  0.00     0.051 C 
HETATM   23  C   UNL     1     -39.925  51.858 -52.867  1.00  0.00     0.028 A 
HETATM   24  C   UNL     1     -39.924  51.538 -51.509  1.00  0.00     0.012 A 
HETATM   25  C   UNL     1     -40.239  52.501 -50.550  1.00  0.00     0.028 A 
HETATM   26 BR   UNL     1     -39.483  49.782 -50.963  1.00  0.00    -0.051 Br
HETATM   27  C   UNL     1     -40.574  53.802 -50.945  1.00  0.00    -0.027 A 
HETATM   28  C   UNL     1     -40.913  54.839 -49.912  1.00  0.00     0.051 C 
ENDBRANCH  19  20
ENDBRANCH  18  19
ENDBRANCH   1  18
TORSDOF 5
ENDMDL
MODEL 4
REMARK VINA RESULT:      -8.3      3.844      9.436
REMARK  5 active torsions:
REMARK  status: ('A' for Active; 'I' for Inactive)
REMARK    1  A    between atoms: C_3  and  O_4 
REMARK    2  A    between atoms: O_4  and  C_5 
REMARK    3  A    between atoms: C_5  and  C_6 
REMARK       I    between atoms: C_6  and  N_7 
REMARK    4  A    between atoms: N_7  and  N_8 
REMARK    5  A    between atoms: C_9  and  C_10 
ROOT
HETATM    1  C   UNL     1     -43.057  56.222 -53.942  1.00  0.00     0.261 C 
HETATM    2  N   UNL     1     -43.076  55.598 -55.190  1.00  0.00    -0.246 N 
HETATM    3  O   UNL     1     -43.366  57.391 -53.732  1.00  0.00    -0.269 OA
HETATM    4  H   UNL     1     -42.826  54.620 -55.282  1.00  0.00     0.192 HD
ENDROOT
BRANCH   2   5
HETATM    5  N   UNL     1     -43.453  56.299 -56.298  1.00  0.00    -0.184 NA
HETATM    6  C   UNL     1     -42.884  55.947 -57.406  1.00  0.00     0.153 C 
BRANCH   6   7
HETATM    7  C   UNL     1     -43.204  56.619 -58.652  1.00  0.00     0.018 A 
HETATM    8  C   UNL     1     -42.834  57.961 -59.001  1.00  0.00     0.004 A 
HETATM    9  C   UNL     1     -43.328  58.212 -60.281  1.00  0.00     0.043 A 
HETATM   10  C   UNL     1     -42.116  58.988 -58.350  1.00  0.00     0.014 A 
HETATM   11  C   UNL     1     -43.143  59.431 -60.942  1.00  0.00     0.030 A 
HETATM   12  N   UNL     1     -43.977  57.072 -60.693  1.00  0.00    -0.358 N 
HETATM   13  C   UNL     1     -42.428  60.429 -60.275  1.00  0.00     0.002 A 
HETATM   14  C   UNL     1     -41.921  60.214 -58.997  1.00  0.00     0.001 A 
HETATM   15  H   UNL     1     -44.435  56.971 -61.589  1.00  0.00     0.166 HD
HETATM   16  C   UNL     1     -43.917  56.102 -59.725  1.00  0.00     0.018 A 
HETATM   17  C   UNL     1     -44.552  54.772 -59.930  1.00  0.00     0.069 C 
ENDBRANCH   6   7
ENDBRANCH   2   5
BRANCH   1  18
HETATM   18  C   UNL     1     -42.608  55.251 -52.846  1.00  0.00     0.280 C 
BRANCH  18  19
HETATM   19  O   UNL     1     -41.192  55.210 -52.692  1.00  0.00    -0.341 OA
BRANCH  19  20
HETATM   20  C   UNL     1     -40.789  53.964 -52.280  1.00  0.00     0.081 A 
HETATM   21  C   UNL     1     -40.868  53.608 -50.923  1.00  0.00    -0.027 A 
HETATM   22  C   UNL     1     -41.390  54.554 -49.882  1.00  0.00     0.051 C 
HETATM   23  C   UNL     1     -40.410  52.342 -50.534  1.00  0.00     0.028 A 
HETATM   24  C   UNL     1     -39.930  51.444 -51.488  1.00  0.00     0.012 A 
HETATM   25  C   UNL     1     -39.906  51.786 -52.840  1.00  0.00     0.028 A 
HETATM   26 BR   UNL     1     -39.315  49.741 -50.942  1.00  0.00    -0.051 Br
HETATM   27  C   UNL     1     -40.352  53.048 -53.253  1.00  0.00    -0.027 A 
HETATM   28  C   UNL     1     -40.326  53.416 -54.709  1.00  0.00     0.051 C 
ENDBRANCH  19  20
ENDBRANCH  18  19
ENDBRANCH   1  18
TORSDOF 5
ENDMDL
MODEL 5
REMARK VINA RESULT:      -8.3      2.052      2.247
REMARK  5 active torsions:
REMARK  status: ('A' for Active; 'I' for Inactive)
REMARK    1  A    between atoms: C_3  and  O_4 
REMARK    2  A    between atoms: O_4  and  C_5 
REMARK    3  A    between atoms: C_5  and  C_6 
REMARK       I    between atoms: C_6  and  N_7 
REMARK    4  A    between atoms: N_7  and  N_8 
REMARK    5  A    between atoms: C_9  and  C_10 
ROOT
HETATM    1  C   UNL     1     -42.761  55.931 -55.681  1.00  0.00     0.261 C 
HETATM    2  N   UNL     1     -42.447  56.034 -54.325  1.00  0.00    -0.246 N 
HETATM    3  O   UNL     1     -42.808  54.883 -56.318  1.00  0.00    -0.269 OA
HETATM    4  H   UNL     1     -42.447  56.935 -53.861  1.00  0.00     0.192 HD
ENDROOT
BRANCH   2   5
HETATM    5  N   UNL     1     -42.156  54.912 -53.604  1.00  0.00    -0.184 NA
HETATM    6  C   UNL     1     -40.929  54.802 -53.207  1.00  0.00     0.153 C 
BRANCH   6   7
HETATM    7  C   UNL     1     -40.499  53.653 -52.433  1.00  0.00     0.018 A 
HETATM    8  C   UNL     1     -40.248  52.338 -52.950  1.00  0.00     0.004 A 
HETATM    9  C   UNL     1     -39.849  51.537 -51.881  1.00  0.00     0.043 A 
HETATM   10  C   UNL     1     -40.316  51.752 -54.233  1.00  0.00     0.014 A 
HETATM   11  C   UNL     1     -39.515  50.185 -52.027  1.00  0.00     0.030 A 
HETATM   12  N   UNL     1     -39.860  52.328 -50.757  1.00  0.00    -0.358 N 
HETATM   13  C   UNL     1     -39.590  49.632 -53.308  1.00  0.00     0.002 A 
HETATM   14  C   UNL     1     -39.985  50.402 -54.397  1.00  0.00     0.001 A 
HETATM   15  H   UNL     1     -39.613  52.005 -49.832  1.00  0.00     0.166 HD
HETATM   16  C   UNL     1     -40.253  53.605 -51.067  1.00  0.00     0.018 A 
HETATM   17  C   UNL     1     -40.350  54.655 -50.016  1.00  0.00     0.069 C 
ENDBRANCH   6   7
ENDBRANCH   2   5
BRANCH   1  18
HETATM   18  C   UNL     1     -43.054  57.307 -56.285  1.00  0.00     0.280 C 
BRANCH  18  19
HETATM   19  O   UNL     1     -43.889  57.237 -57.438  1.00  0.00    -0.341 OA
BRANCH  19  20
HETATM   20  C   UNL     1     -43.442  58.100 -58.408  1.00  0.00     0.081 A 
HETATM   21  C   UNL     1     -43.655  59.482 -58.277  1.00  0.00    -0.027 A 
HETATM   22  C   UNL     1     -44.364  60.069 -57.092  1.00  0.00     0.051 C 
HETATM   23  C   UNL     1     -43.221  60.328 -59.307  1.00  0.00     0.028 A 
HETATM   24  C   UNL     1     -42.550  59.804 -60.413  1.00  0.00     0.012 A 
HETATM   25  C   UNL     1     -42.296  58.436 -60.508  1.00  0.00     0.028 A 
HETATM   26 BR   UNL     1     -41.974  60.961 -61.792  1.00  0.00    -0.051 Br
HETATM   27  C   UNL     1     -42.726  57.569 -59.495  1.00  0.00    -0.027 A 
HETATM   28  C   UNL     1     -42.451  56.095 -59.598  1.00  0.00     0.051 C 
ENDBRANCH  19  20
ENDBRANCH  18  19
ENDBRANCH   1  18
TORSDOF 5
ENDMDL
MODEL 6
REMARK VINA RESULT:      -8.2      3.806      8.926
REMARK  5 active torsions:
REMARK  status: ('A' for Active; 'I' for Inactive)
REMARK    1  A    between atoms: C_3  and  O_4 
REMARK    2  A    between atoms: O_4  and  C_5 
REMARK    3  A    between atoms: C_5  and  C_6 
REMARK       I    between atoms: C_6  and  N_7 
REMARK    4  A    between atoms: N_7  and  N_8 
REMARK    5  A    between atoms: C_9  and  C_10 
ROOT
HETATM    1  C   UNL     1     -43.144  55.611 -53.554  1.00  0.00     0.261 C 
HETATM    2  N   UNL     1     -42.790  56.760 -54.263  1.00  0.00    -0.246 N 
HETATM    3  O   UNL     1     -43.885  54.725 -53.970  1.00  0.00    -0.269 OA
HETATM    4  H   UNL     1     -42.156  57.441 -53.861  1.00  0.00     0.192 HD
ENDROOT
BRANCH   2   5
HETATM    5  N   UNL     1     -43.282  56.966 -55.519  1.00  0.00    -0.184 NA
HETATM    6  C   UNL     1     -42.413  56.924 -56.478  1.00  0.00     0.153 C 
BRANCH   6   7
HETATM    7  C   UNL     1     -42.816  57.129 -57.856  1.00  0.00     0.018 A 
HETATM    8  C   UNL     1     -43.492  56.171 -58.684  1.00  0.00     0.004 A 
HETATM    9  C   UNL     1     -43.700  56.766 -59.928  1.00  0.00     0.043 A 
HETATM   10  C   UNL     1     -43.955  54.851 -58.490  1.00  0.00     0.014 A 
HETATM   11  C   UNL     1     -44.345  56.113 -60.985  1.00  0.00     0.030 A 
HETATM   12  N   UNL     1     -43.169  58.032 -59.864  1.00  0.00    -0.358 N 
HETATM   13  C   UNL     1     -44.794  54.808 -60.765  1.00  0.00     0.002 A 
HETATM   14  C   UNL     1     -44.603  54.183 -59.536  1.00  0.00     0.001 A 
HETATM   15  H   UNL     1     -43.178  58.692 -60.629  1.00  0.00     0.166 HD
HETATM   16  C   UNL     1     -42.628  58.269 -58.626  1.00  0.00     0.018 A 
HETATM   17  C   UNL     1     -41.984  59.572 -58.306  1.00  0.00     0.069 C 
ENDBRANCH   6   7
ENDBRANCH   2   5
BRANCH   1  18
HETATM   18  C   UNL     1     -42.478  55.586 -52.176  1.00  0.00     0.280 C 
BRANCH  18  19
HETATM   19  O   UNL     1     -41.061  55.460 -52.250  1.00  0.00    -0.341 OA
BRANCH  19  20
HETATM   20  C   UNL     1     -40.678  54.169 -51.986  1.00  0.00     0.081 A 
HETATM   21  C   UNL     1     -40.332  53.305 -53.039  1.00  0.00    -0.027 A 
HETATM   22  C   UNL     1     -40.358  53.747 -54.473  1.00  0.00     0.051 C 
HETATM   23  C   UNL     1     -39.986  51.981 -52.734  1.00  0.00     0.028 A 
HETATM   24  C   UNL     1     -39.945  51.553 -51.407  1.00  0.00     0.012 A 
HETATM   25  C   UNL     1     -40.239  52.432 -50.365  1.00  0.00     0.028 A 
HETATM   26 BR   UNL     1     -39.478  49.762 -51.016  1.00  0.00    -0.051 Br
HETATM   27  C   UNL     1     -40.594  53.758 -50.644  1.00  0.00    -0.027 A 
HETATM   28  C   UNL     1     -40.910  54.706 -49.522  1.00  0.00     0.051 C 
ENDBRANCH  19  20
ENDBRANCH  18  19
ENDBRANCH   1  18
TORSDOF 5
ENDMDL
MODEL 7
REMARK VINA RESULT:      -7.9      3.788      9.027
REMARK  5 active torsions:
REMARK  status: ('A' for Active; 'I' for Inactive)
REMARK    1  A    between atoms: C_3  and  O_4 
REMARK    2  A    between atoms: O_4  and  C_5 
REMARK    3  A    between atoms: C_5  and  C_6 
REMARK       I    between atoms: C_6  and  N_7 
REMARK    4  A    between atoms: N_7  and  N_8 
REMARK    5  A    between atoms: C_9  and  C_10 
ROOT
HETATM    1  C   UNL     1     -43.228  55.792 -53.650  1.00  0.00     0.261 C 
HETATM    2  N   UNL     1     -43.326  57.006 -54.331  1.00  0.00    -0.246 N 
HETATM    3  O   UNL     1     -43.822  54.761 -53.955  1.00  0.00    -0.269 OA
HETATM    4  H   UNL     1     -42.789  57.811 -54.031  1.00  0.00     0.192 HD
ENDROOT
BRANCH   2   5
HETATM    5  N   UNL     1     -44.136  57.113 -55.424  1.00  0.00    -0.184 NA
HETATM    6  C   UNL     1     -43.552  57.462 -56.525  1.00  0.00     0.153 C 
BRANCH   6   7
HETATM    7  C   UNL     1     -44.309  57.608 -57.754  1.00  0.00     0.018 A 
HETATM    8  C   UNL     1     -44.457  56.610 -58.773  1.00  0.00     0.004 A 
HETATM    9  C   UNL     1     -45.264  57.149 -59.775  1.00  0.00     0.043 A 
HETATM   10  C   UNL     1     -43.985  55.289 -58.937  1.00  0.00     0.014 A 
HETATM   11  C   UNL     1     -45.622  56.440 -60.927  1.00  0.00     0.030 A 
HETATM   12  N   UNL     1     -45.590  58.426 -59.385  1.00  0.00    -0.358 N 
HETATM   13  C   UNL     1     -45.142  55.135 -61.062  1.00  0.00     0.002 A 
HETATM   14  C   UNL     1     -44.334  54.565 -60.083  1.00  0.00     0.001 A 
HETATM   15  H   UNL     1     -46.170  59.055 -59.925  1.00  0.00     0.166 HD
HETATM   16  C   UNL     1     -45.022  58.724 -58.173  1.00  0.00     0.018 A 
HETATM   17  C   UNL     1     -45.225  60.054 -57.536  1.00  0.00     0.069 C 
ENDBRANCH   6   7
ENDBRANCH   2   5
BRANCH   1  18
HETATM   18  C   UNL     1     -42.266  55.900 -52.464  1.00  0.00     0.280 C 
BRANCH  18  19
HETATM   19  O   UNL     1     -40.921  55.585 -52.814  1.00  0.00    -0.341 OA
BRANCH  19  20
HETATM   20  C   UNL     1     -40.608  54.309 -52.419  1.00  0.00     0.081 A 
HETATM   21  C   UNL     1     -40.541  53.988 -51.053  1.00  0.00    -0.027 A 
HETATM   22  C   UNL     1     -40.807  55.006 -49.983  1.00  0.00     0.051 C 
HETATM   23  C   UNL     1     -40.177  52.684 -50.687  1.00  0.00     0.028 A 
HETATM   24  C   UNL     1     -39.935  51.720 -51.666  1.00  0.00     0.012 A 
HETATM   25  C   UNL     1     -40.057  52.034 -53.019  1.00  0.00     0.028 A 
HETATM   26 BR   UNL     1     -39.446  49.968 -51.152  1.00  0.00    -0.051 Br
HETATM   27  C   UNL     1     -40.412  53.331 -53.411  1.00  0.00    -0.027 A 
HETATM   28  C   UNL     1     -40.543  53.669 -54.869  1.00  0.00     0.051 C 
ENDBRANCH  19  20
ENDBRANCH  18  19
ENDBRANCH   1  18
TORSDOF 5
ENDMDL
MODEL 8
REMARK VINA RESULT:      -7.9      3.849      9.639
REMARK  5 active torsions:
REMARK  status: ('A' for Active; 'I' for Inactive)
REMARK    1  A    between atoms: C_3  and  O_4 
REMARK    2  A    between atoms: O_4  and  C_5 
REMARK    3  A    between atoms: C_5  and  C_6 
REMARK       I    between atoms: C_6  and  N_7 
REMARK    4  A    between atoms: N_7  and  N_8 
REMARK    5  A    between atoms: C_9  and  C_10 
ROOT
HETATM    1  C   UNL     1     -43.036  56.643 -53.898  1.00  0.00     0.261 C 
HETATM    2  N   UNL     1     -42.976  56.205 -55.222  1.00  0.00    -0.246 N 
HETATM    3  O   UNL     1     -43.465  57.734 -53.534  1.00  0.00    -0.269 OA
HETATM    4  H   UNL     1     -42.626  55.280 -55.445  1.00  0.00     0.192 HD
ENDROOT
BRANCH   2   5
HETATM    5  N   UNL     1     -43.409  57.017 -56.230  1.00  0.00    -0.184 NA
HETATM    6  C   UNL     1     -43.560  56.449 -57.383  1.00  0.00     0.153 C 
BRANCH   6   7
HETATM    7  C   UNL     1     -44.016  57.210 -58.532  1.00  0.00     0.018 A 
HETATM    8  C   UNL     1     -45.264  57.910 -58.634  1.00  0.00     0.004 A 
HETATM    9  C   UNL     1     -45.305  58.512 -59.891  1.00  0.00     0.043 A 
HETATM   10  C   UNL     1     -46.365  58.097 -57.769  1.00  0.00     0.014 A 
HETATM   11  C   UNL     1     -46.385  59.288 -60.328  1.00  0.00     0.030 A 
HETATM   12  N   UNL     1     -44.133  58.188 -60.532  1.00  0.00    -0.358 N 
HETATM   13  C   UNL     1     -47.460  59.457 -59.452  1.00  0.00     0.002 A 
HETATM   14  C   UNL     1     -47.453  58.870 -58.190  1.00  0.00     0.001 A 
HETATM   15  H   UNL     1     -43.892  58.492 -61.466  1.00  0.00     0.166 HD
HETATM   16  C   UNL     1     -43.344  57.401 -59.732  1.00  0.00     0.018 A 
HETATM   17  C   UNL     1     -42.019  56.912 -60.203  1.00  0.00     0.069 C 
ENDBRANCH   6   7
ENDBRANCH   2   5
BRANCH   1  18
HETATM   18  C   UNL     1     -42.504  55.575 -52.939  1.00  0.00     0.280 C 
BRANCH  18  19
HETATM   19  O   UNL     1     -41.082  55.481 -52.952  1.00  0.00    -0.341 OA
BRANCH  19  20
HETATM   20  C   UNL     1     -40.680  54.222 -52.581  1.00  0.00     0.081 A 
HETATM   21  C   UNL     1     -40.369  53.262 -53.558  1.00  0.00    -0.027 A 
HETATM   22  C   UNL     1     -40.457  53.564 -55.026  1.00  0.00     0.051 C 
HETATM   23  C   UNL     1     -40.002  51.974 -53.141  1.00  0.00     0.028 A 
HETATM   24  C   UNL     1     -39.905  51.677 -51.782  1.00  0.00     0.012 A 
HETATM   25  C   UNL     1     -40.164  52.652 -50.819  1.00  0.00     0.028 A 
HETATM   26 BR   UNL     1     -39.410  49.934 -51.240  1.00  0.00    -0.051 Br
HETATM   27  C   UNL     1     -40.539  53.944 -51.210  1.00  0.00    -0.027 A 
HETATM   28  C   UNL     1     -40.817  54.994 -50.173  1.00  0.00     0.051 C 
ENDBRANCH  19  20
ENDBRANCH  18  19
ENDBRANCH   1  18
TORSDOF 5
ENDMDL
MODEL 9
REMARK VINA RESULT:      -7.7      4.425      5.331
REMARK  5 active torsions:
REMARK  status: ('A' for Active; 'I' for Inactive)
REMARK    1  A    between atoms: C_3  and  O_4 
REMARK    2  A    between atoms: O_4  and  C_5 
REMARK    3  A    between atoms: C_5  and  C_6 
REMARK       I    between atoms: C_6  and  N_7 
REMARK    4  A    between atoms: N_7  and  N_8 
REMARK    5  A    between atoms: C_9  and  C_10 
ROOT
HETATM    1  C   UNL     1     -43.661  57.991 -51.398  1.00  0.00     0.261 C 
HETATM    2  N   UNL     1     -42.585  57.490 -50.664  1.00  0.00    -0.246 N 
HETATM    3  O   UNL     1     -44.432  57.314 -52.072  1.00  0.00    -0.269 OA
HETATM    4  H   UNL     1     -42.002  58.110 -50.113  1.00  0.00     0.192 HD
ENDROOT
BRANCH   2   5
HETATM    5  N   UNL     1     -42.321  56.151 -50.666  1.00  0.00    -0.184 NA
HETATM    6  C   UNL     1     -41.097  55.820 -50.927  1.00  0.00     0.153 C 
BRANCH   6   7
HETATM    7  C   UNL     1     -40.695  54.426 -50.958  1.00  0.00     0.018 A 
HETATM    8  C   UNL     1     -40.486  53.639 -52.139  1.00  0.00     0.004 A 
HETATM    9  C   UNL     1     -40.101  52.363 -51.728  1.00  0.00     0.043 A 
HETATM   10  C   UNL     1     -40.580  53.893 -53.525  1.00  0.00     0.014 A 
HETATM   11  C   UNL     1     -39.808  51.331 -52.627  1.00  0.00     0.030 A 
HETATM   12  N   UNL     1     -40.082  52.369 -50.354  1.00  0.00    -0.358 N 
HETATM   13  C   UNL     1     -39.908  51.611 -53.992  1.00  0.00     0.002 A 
HETATM   14  C   UNL     1     -40.289  52.873 -54.438  1.00  0.00     0.001 A 
HETATM   15  H   UNL     1     -39.838  51.571 -49.784  1.00  0.00     0.166 HD
HETATM   16  C   UNL     1     -40.440  53.602 -49.870  1.00  0.00     0.018 A 
HETATM   17  C   UNL     1     -40.500  53.864 -48.406  1.00  0.00     0.069 C 
ENDBRANCH   6   7
ENDBRANCH   2   5
BRANCH   1  18
HETATM   18  C   UNL     1     -43.771  59.511 -51.249  1.00  0.00     0.280 C 
BRANCH  18  19
HETATM   19  O   UNL     1     -42.607  60.196 -51.703  1.00  0.00    -0.341 OA
BRANCH  19  20
HETATM   20  C   UNL     1     -42.722  60.508 -53.034  1.00  0.00     0.081 A 
HETATM   21  C   UNL     1     -43.603  61.521 -53.449  1.00  0.00    -0.027 A 
HETATM   22  C   UNL     1     -44.440  62.296 -52.473  1.00  0.00     0.051 C 
HETATM   23  C   UNL     1     -43.725  61.785 -54.821  1.00  0.00     0.028 A 
HETATM   24  C   UNL     1     -42.948  61.083 -55.743  1.00  0.00     0.012 A 
HETATM   25  C   UNL     1     -42.037  60.117 -55.318  1.00  0.00     0.028 A 
HETATM   26 BR   UNL     1     -43.128  61.453 -57.589  1.00  0.00    -0.051 Br
HETATM   27  C   UNL     1     -41.902  59.830 -53.953  1.00  0.00    -0.027 A 
HETATM   28  C   UNL     1     -40.920  58.789 -53.495  1.00  0.00     0.051 C 
ENDBRANCH  19  20
ENDBRANCH  18  19
ENDBRANCH   1  18
TORSDOF 5
ENDMDL
MODEL 10
REMARK VINA RESULT:      -7.7      5.809      7.082
REMARK  5 active torsions:
REMARK  status: ('A' for Active; 'I' for Inactive)
REMARK    1  A    between atoms: C_3  and  O_4 
REMARK    2  A    between atoms: O_4  and  C_5 
REMARK    3  A    between atoms: C_5  and  C_6 
REMARK       I    between atoms: C_6  and  N_7 
REMARK    4  A    between atoms: N_7  and  N_8 
REMARK    5  A    between atoms: C_9  and  C_10 
ROOT
HETATM    1  C   UNL     1     -41.779  59.288 -51.261  1.00  0.00     0.261 C 
HETATM    2  N   UNL     1     -42.224  58.020 -50.886  1.00  0.00    -0.246 N 
HETATM    3  O   UNL     1     -40.707  59.527 -51.810  1.00  0.00    -0.269 OA
HETATM    4  H   UNL     1     -43.132  57.899 -50.452  1.00  0.00     0.192 HD
ENDROOT
BRANCH   2   5
HETATM    5  N   UNL     1     -41.443  56.925 -51.119  1.00  0.00    -0.184 NA
HETATM    6  C   UNL     1     -41.883  55.808 -50.635  1.00  0.00     0.153 C 
BRANCH   6   7
HETATM    7  C   UNL     1     -41.140  54.575 -50.819  1.00  0.00     0.018 A 
HETATM    8  C   UNL     1     -40.948  53.888 -52.064  1.00  0.00     0.004 A 
HETATM    9  C   UNL     1     -40.174  52.758 -51.803  1.00  0.00     0.043 A 
HETATM   10  C   UNL     1     -41.355  54.124 -53.395  1.00  0.00     0.014 A 
HETATM   11  C   UNL     1     -39.786  51.855 -52.800  1.00  0.00     0.030 A 
HETATM   12  N   UNL     1     -39.908  52.753 -50.455  1.00  0.00    -0.358 N 
HETATM   13  C   UNL     1     -40.202  52.114 -54.108  1.00  0.00     0.002 A 
HETATM   14  C   UNL     1     -40.976  53.232 -54.405  1.00  0.00     0.001 A 
HETATM   15  H   UNL     1     -39.363  52.043 -49.985  1.00  0.00     0.166 HD
HETATM   16  C   UNL     1     -40.484  53.837 -49.843  1.00  0.00     0.018 A 
HETATM   17  C   UNL     1     -40.345  54.055 -48.377  1.00  0.00     0.069 C 
ENDBRANCH   6   7
ENDBRANCH   2   5
BRANCH   1  18
HETATM   18  C   UNL     1     -42.811  60.362 -50.908  1.00  0.00     0.280 C 
BRANCH  18  19
HETATM   19  O   UNL     1     -44.076  59.815 -50.545  1.00  0.00    -0.341 OA
BRANCH  19  20
HETATM   20  C   UNL     1     -45.077  60.725 -50.773  1.00  0.00     0.081 A 
HETATM   21  C   UNL     1     -45.742  60.751 -52.011  1.00  0.00    -0.027 A 
HETATM   22  C   UNL     1     -45.397  59.798 -53.118  1.00  0.00     0.051 C 
HETATM   23  C   UNL     1     -46.730  61.722 -52.221  1.00  0.00     0.028 A 
HETATM   24  C   UNL     1     -47.073  62.610 -51.201  1.00  0.00     0.012 A 
HETATM   25  C   UNL     1     -46.445  62.542 -49.958  1.00  0.00     0.028 A 
HETATM   26 BR   UNL     1     -48.408  63.913 -51.506  1.00  0.00    -0.051 Br
HETATM   27  C   UNL     1     -45.449  61.586 -49.725  1.00  0.00    -0.027 A 
HETATM   28  C   UNL     1     -44.772  61.513 -48.385  1.00  0.00     0.051 C 
ENDBRANCH  19  20
ENDBRANCH  18  19
ENDBRANCH   1  18
TORSDOF 5
ENDMDL
