MODEL 1
REMARK VINA RESULT:      -8.5      0.000      0.000
REMARK  3 active torsions:
REMARK  status: ('A' for Active; 'I' for Inactive)
REMARK    1  A    between atoms: N_12  and  C_13 
REMARK    2  A    between atoms: C_13  and  C_14 
REMARK       I    between atoms: C_14  and  N_15 
REMARK    3  A    between atoms: N_15  and  C_16 
ROOT
HETATM    1  C   UNL     1     -39.655  49.776 -54.712  1.00  0.00     0.048 C 
HETATM    2  C   UNL     1     -39.805  50.605 -53.469  1.00  0.00    -0.061 A 
HETATM    3  C   UNL     1     -40.152  51.964 -53.555  1.00  0.00     0.021 A 
HETATM    4  C   UNL     1     -40.293  52.726 -52.378  1.00  0.00     0.005 A 
HETATM    5  C   UNL     1     -40.075  52.107 -51.142  1.00  0.00     0.044 A 
HETATM    6  N   UNL     1     -40.289  53.054 -50.160  1.00  0.00    -0.350 N 
HETATM    7  H   UNL     1     -40.218  52.894 -49.163  1.00  0.00     0.166 HD
HETATM    8  C   UNL     1     -40.640  54.241 -50.737  1.00  0.00     0.116 A 
HETATM    9  C   UNL     1     -40.641  54.071 -52.099  1.00  0.00     0.028 A 
HETATM   10  C   UNL     1     -40.983  55.477 -50.098  1.00  0.00     0.291 A 
HETATM   11  O   UNL     1     -41.016  55.611 -48.880  1.00  0.00    -0.264 OA
HETATM   12  N   UNL     1     -41.263  56.508 -51.016  1.00  0.00    -0.224 N 
HETATM   13  N   UNL     1     -41.295  56.336 -52.418  1.00  0.00    -0.180 NA
HETATM   14  C   UNL     1     -40.992  55.182 -52.936  1.00  0.00     0.153 A 
HETATM   15  C   UNL     1     -39.714  50.761 -51.032  1.00  0.00     0.031 A 
HETATM   16  C   UNL     1     -39.584  50.024 -52.216  1.00  0.00     0.009 A 
ENDROOT
BRANCH  12  17
HETATM   17  C   UNL     1     -41.826  57.753 -50.518  1.00  0.00     0.258 C 
BRANCH  17  18
HETATM   18  C   UNL     1     -42.674  58.685 -51.406  1.00  0.00     0.244 C 
HETATM   19  N   UNL     1     -44.050  58.470 -51.573  1.00  0.00    -0.321 N 
HETATM   20  C   UNL     1     -44.713  57.236 -51.166  1.00  0.00     0.159 C 
HETATM   21  O   UNL     1     -42.101  59.697 -51.837  1.00  0.00    -0.271 OA
BRANCH  19  22
HETATM   22  C   UNL     1     -44.875  59.468 -52.205  1.00  0.00     0.036 A 
HETATM   23  C   UNL     1     -44.807  59.692 -53.588  1.00  0.00     0.029 A 
HETATM   24  C   UNL     1     -45.566  60.698 -54.198  1.00  0.00     0.002 A 
HETATM   25  C   UNL     1     -46.414  61.492 -53.432  1.00  0.00     0.000 A 
HETATM   26  C   UNL     1     -46.504  61.280 -52.060  1.00  0.00     0.002 A 
HETATM   27  C   UNL     1     -45.736  60.280 -51.451  1.00  0.00     0.029 A 
ENDBRANCH  19  22
ENDBRANCH  17  18
ENDBRANCH  12  17
TORSDOF 3
ENDMDL
MODEL 2
REMARK VINA RESULT:      -8.5      4.092      5.055
REMARK  3 active torsions:
REMARK  status: ('A' for Active; 'I' for Inactive)
REMARK    1  A    between atoms: N_12  and  C_13 
REMARK    2  A    between atoms: C_13  and  C_14 
REMARK       I    between atoms: C_14  and  N_15 
REMARK    3  A    between atoms: N_15  and  C_16 
ROOT
HETATM    1  C   UNL     1     -39.486  49.788 -53.918  1.00  0.00     0.048 C 
HETATM    2  C   UNL     1     -39.849  51.169 -53.454  1.00  0.00    -0.061 A 
HETATM    3  C   UNL     1     -40.424  52.092 -54.344  1.00  0.00     0.021 A 
HETATM    4  C   UNL     1     -40.764  53.383 -53.892  1.00  0.00     0.005 A 
HETATM    5  C   UNL     1     -40.511  53.718 -52.557  1.00  0.00     0.044 A 
HETATM    6  N   UNL     1     -40.944  55.016 -52.367  1.00  0.00    -0.350 N 
HETATM    7  H   UNL     1     -40.903  55.528 -51.495  1.00  0.00     0.166 HD
HETATM    8  C   UNL     1     -41.464  55.501 -53.533  1.00  0.00     0.116 A 
HETATM    9  C   UNL     1     -41.358  54.522 -54.489  1.00  0.00     0.028 A 
HETATM   10  C   UNL     1     -42.055  56.783 -53.781  1.00  0.00     0.291 A 
HETATM   11  O   UNL     1     -42.180  57.639 -52.913  1.00  0.00    -0.264 OA
HETATM   12  N   UNL     1     -42.459  56.949 -55.121  1.00  0.00    -0.224 N 
HETATM   13  N   UNL     1     -42.380  55.939 -56.105  1.00  0.00    -0.180 NA
HETATM   14  C   UNL     1     -41.849  54.787 -55.810  1.00  0.00     0.153 A 
HETATM   15  C   UNL     1     -39.927  52.823 -51.657  1.00  0.00     0.031 A 
HETATM   16  C   UNL     1     -39.602  51.545 -52.130  1.00  0.00     0.009 A 
ENDROOT
BRANCH  12  17
HETATM   17  C   UNL     1     -43.259  58.112 -55.470  1.00  0.00     0.258 C 
BRANCH  17  18
HETATM   18  C   UNL     1     -44.421  58.036 -56.480  1.00  0.00     0.244 C 
HETATM   19  N   UNL     1     -44.190  58.146 -57.859  1.00  0.00    -0.321 N 
HETATM   20  C   UNL     1     -42.921  58.605 -58.414  1.00  0.00     0.159 C 
HETATM   21  O   UNL     1     -45.530  57.734 -56.013  1.00  0.00    -0.271 OA
BRANCH  19  22
HETATM   22  C   UNL     1     -45.235  57.841 -58.803  1.00  0.00     0.036 A 
HETATM   23  C   UNL     1     -45.332  56.569 -59.388  1.00  0.00     0.029 A 
HETATM   24  C   UNL     1     -46.312  56.285 -60.347  1.00  0.00     0.002 A 
HETATM   25  C   UNL     1     -47.219  57.269 -60.729  1.00  0.00     0.000 A 
HETATM   26  C   UNL     1     -47.146  58.534 -60.155  1.00  0.00     0.002 A 
HETATM   27  C   UNL     1     -46.158  58.818 -59.204  1.00  0.00     0.029 A 
ENDBRANCH  19  22
ENDBRANCH  17  18
ENDBRANCH  12  17
TORSDOF 3
ENDMDL
MODEL 3
REMARK VINA RESULT:      -8.4      3.420      4.229
REMARK  3 active torsions:
REMARK  status: ('A' for Active; 'I' for Inactive)
REMARK    1  A    between atoms: N_12  and  C_13 
REMARK    2  A    between atoms: C_13  and  C_14 
REMARK       I    between atoms: C_14  and  N_15 
REMARK    3  A    between atoms: N_15  and  C_16 
ROOT
HETATM    1  C   UNL     1     -39.460  49.481 -54.180  1.00  0.00     0.048 C 
HETATM    2  C   UNL     1     -39.770  50.811 -53.556  1.00  0.00    -0.061 A 
HETATM    3  C   UNL     1     -40.289  51.860 -54.333  1.00  0.00     0.021 A 
HETATM    4  C   UNL     1     -40.579  53.101 -53.731  1.00  0.00     0.005 A 
HETATM    5  C   UNL     1     -40.332  53.261 -52.362  1.00  0.00     0.044 A 
HETATM    6  N   UNL     1     -40.711  54.544 -52.020  1.00  0.00    -0.350 N 
HETATM    7  H   UNL     1     -40.661  54.945 -51.092  1.00  0.00     0.166 HD
HETATM    8  C   UNL     1     -41.191  55.190 -53.124  1.00  0.00     0.116 A 
HETATM    9  C   UNL     1     -41.113  54.330 -54.191  1.00  0.00     0.028 A 
HETATM   10  C   UNL     1     -41.720  56.519 -53.221  1.00  0.00     0.291 A 
HETATM   11  O   UNL     1     -41.821  57.268 -52.256  1.00  0.00    -0.264 OA
HETATM   12  N   UNL     1     -42.095  56.863 -54.534  1.00  0.00    -0.224 N 
HETATM   13  N   UNL     1     -42.046  55.977 -55.633  1.00  0.00    -0.180 NA
HETATM   14  C   UNL     1     -41.571  54.775 -55.475  1.00  0.00     0.153 A 
HETATM   15  C   UNL     1     -39.802  52.238 -51.572  1.00  0.00     0.031 A 
HETATM   16  C   UNL     1     -39.526  51.013 -52.193  1.00  0.00     0.009 A 
ENDROOT
BRANCH  12  17
HETATM   17  C   UNL     1     -42.838  58.096 -54.748  1.00  0.00     0.258 C 
BRANCH  17  18
HETATM   18  C   UNL     1     -42.224  59.309 -55.474  1.00  0.00     0.244 C 
HETATM   19  N   UNL     1     -42.700  59.717 -56.729  1.00  0.00    -0.321 N 
HETATM   20  C   UNL     1     -43.585  58.894 -57.545  1.00  0.00     0.159 C 
HETATM   21  O   UNL     1     -41.400  59.972 -54.826  1.00  0.00    -0.271 OA
BRANCH  19  22
HETATM   22  C   UNL     1     -42.290  60.979 -57.292  1.00  0.00     0.036 A 
HETATM   23  C   UNL     1     -41.158  61.070 -58.115  1.00  0.00     0.029 A 
HETATM   24  C   UNL     1     -40.724  62.302 -58.618  1.00  0.00     0.002 A 
HETATM   25  C   UNL     1     -41.424  63.465 -58.312  1.00  0.00     0.000 A 
HETATM   26  C   UNL     1     -42.554  63.396 -57.503  1.00  0.00     0.002 A 
HETATM   27  C   UNL     1     -42.979  62.164 -56.993  1.00  0.00     0.029 A 
ENDBRANCH  19  22
ENDBRANCH  17  18
ENDBRANCH  12  17
TORSDOF 3
ENDMDL
MODEL 4
REMARK VINA RESULT:      -8.3      2.764      4.179
REMARK  3 active torsions:
REMARK  status: ('A' for Active; 'I' for Inactive)
REMARK    1  A    between atoms: N_12  and  C_13 
REMARK    2  A    between atoms: C_13  and  C_14 
REMARK       I    between atoms: C_14  and  N_15 
REMARK    3  A    between atoms: N_15  and  C_16 
ROOT
HETATM    1  C   UNL     1     -39.191  51.519 -51.963  1.00  0.00     0.048 C 
HETATM    2  C   UNL     1     -40.215  52.372 -52.653  1.00  0.00    -0.061 A 
HETATM    3  C   UNL     1     -40.825  53.442 -51.977  1.00  0.00     0.021 A 
HETATM    4  C   UNL     1     -41.782  54.236 -52.641  1.00  0.00     0.005 A 
HETATM    5  C   UNL     1     -42.109  53.931 -53.967  1.00  0.00     0.044 A 
HETATM    6  N   UNL     1     -43.046  54.855 -54.386  1.00  0.00    -0.350 N 
HETATM    7  H   UNL     1     -43.461  54.895 -55.308  1.00  0.00     0.166 HD
HETATM    8  C   UNL     1     -43.311  55.730 -53.372  1.00  0.00     0.116 A 
HETATM    9  C   UNL     1     -42.556  55.368 -52.285  1.00  0.00     0.028 A 
HETATM   10  C   UNL     1     -44.190  56.863 -53.378  1.00  0.00     0.291 A 
HETATM   11  O   UNL     1     -44.834  57.202 -54.364  1.00  0.00    -0.264 OA
HETATM   12  N   UNL     1     -44.238  57.524 -52.134  1.00  0.00    -0.224 N 
HETATM   13  N   UNL     1     -43.444  57.176 -51.019  1.00  0.00    -0.180 NA
HETATM   14  C   UNL     1     -42.649  56.147 -51.085  1.00  0.00     0.153 A 
HETATM   15  C   UNL     1     -41.527  52.862 -54.656  1.00  0.00     0.031 A 
HETATM   16  C   UNL     1     -40.577  52.091 -53.975  1.00  0.00     0.009 A 
ENDROOT
BRANCH  12  17
HETATM   17  C   UNL     1     -44.921  58.805 -52.051  1.00  0.00     0.258 C 
BRANCH  17  18
HETATM   18  C   UNL     1     -45.332  59.430 -50.703  1.00  0.00     0.244 C 
HETATM   19  N   UNL     1     -44.753  60.627 -50.254  1.00  0.00    -0.321 N 
HETATM   20  C   UNL     1     -43.562  61.206 -50.865  1.00  0.00     0.159 C 
HETATM   21  O   UNL     1     -46.288  58.895 -50.122  1.00  0.00    -0.271 OA
BRANCH  19  22
HETATM   22  C   UNL     1     -45.303  61.326 -49.121  1.00  0.00     0.036 A 
HETATM   23  C   UNL     1     -46.365  62.229 -49.273  1.00  0.00     0.029 A 
HETATM   24  C   UNL     1     -46.865  62.951 -48.184  1.00  0.00     0.002 A 
HETATM   25  C   UNL     1     -46.315  62.774 -46.918  1.00  0.00     0.000 A 
HETATM   26  C   UNL     1     -45.267  61.876 -46.743  1.00  0.00     0.002 A 
HETATM   27  C   UNL     1     -44.761  61.163 -47.836  1.00  0.00     0.029 A 
ENDBRANCH  19  22
ENDBRANCH  17  18
ENDBRANCH  12  17
TORSDOF 3
ENDMDL
MODEL 5
REMARK VINA RESULT:      -8.2      4.416      9.044
REMARK  3 active torsions:
REMARK  status: ('A' for Active; 'I' for Inactive)
REMARK    1  A    between atoms: N_12  and  C_13 
REMARK    2  A    between atoms: C_13  and  C_14 
REMARK       I    between atoms: C_14  and  N_15 
REMARK    3  A    between atoms: N_15  and  C_16 
ROOT
HETATM    1  C   UNL     1     -42.079  60.699 -62.174  1.00  0.00     0.048 C 
HETATM    2  C   UNL     1     -41.958  60.796 -60.681  1.00  0.00    -0.061 A 
HETATM    3  C   UNL     1     -42.284  59.700 -59.865  1.00  0.00     0.021 A 
HETATM    4  C   UNL     1     -42.160  59.806 -58.465  1.00  0.00     0.005 A 
HETATM    5  C   UNL     1     -41.718  61.016 -57.917  1.00  0.00     0.044 A 
HETATM    6  N   UNL     1     -41.669  60.856 -56.547  1.00  0.00    -0.350 N 
HETATM    7  H   UNL     1     -41.372  61.560 -55.882  1.00  0.00     0.166 HD
HETATM    8  C   UNL     1     -42.058  59.589 -56.218  1.00  0.00     0.116 A 
HETATM    9  C   UNL     1     -42.375  58.925 -57.377  1.00  0.00     0.028 A 
HETATM   10  C   UNL     1     -42.126  58.984 -54.921  1.00  0.00     0.291 A 
HETATM   11  O   UNL     1     -41.806  59.571 -53.893  1.00  0.00    -0.264 OA
HETATM   12  N   UNL     1     -42.605  57.660 -54.959  1.00  0.00    -0.224 N 
HETATM   13  N   UNL     1     -42.906  56.959 -56.148  1.00  0.00    -0.180 NA
HETATM   14  C   UNL     1     -42.806  57.560 -57.298  1.00  0.00     0.153 A 
HETATM   15  C   UNL     1     -41.402  62.125 -58.707  1.00  0.00     0.031 A 
HETATM   16  C   UNL     1     -41.529  61.992 -60.095  1.00  0.00     0.009 A 
ENDROOT
BRANCH  12  17
HETATM   17  C   UNL     1     -42.530  56.854 -53.751  1.00  0.00     0.258 C 
BRANCH  17  18
HETATM   18  C   UNL     1     -41.542  55.680 -53.607  1.00  0.00     0.244 C 
HETATM   19  N   UNL     1     -41.940  54.466 -53.027  1.00  0.00    -0.321 N 
HETATM   20  C   UNL     1     -43.188  54.316 -52.286  1.00  0.00     0.159 C 
HETATM   21  O   UNL     1     -40.438  55.826 -54.155  1.00  0.00    -0.271 OA
BRANCH  19  22
HETATM   22  C   UNL     1     -41.093  53.304 -53.108  1.00  0.00     0.036 A 
HETATM   23  C   UNL     1     -41.082  52.495 -54.255  1.00  0.00     0.029 A 
HETATM   24  C   UNL     1     -40.302  51.335 -54.316  1.00  0.00     0.002 A 
HETATM   25  C   UNL     1     -39.511  50.968 -53.232  1.00  0.00     0.000 A 
HETATM   26  C   UNL     1     -39.500  51.760 -52.088  1.00  0.00     0.002 A 
HETATM   27  C   UNL     1     -40.289  52.915 -52.025  1.00  0.00     0.029 A 
ENDBRANCH  19  22
ENDBRANCH  17  18
ENDBRANCH  12  17
TORSDOF 3
ENDMDL
MODEL 6
REMARK VINA RESULT:      -8.1      2.456      3.280
REMARK  3 active torsions:
REMARK  status: ('A' for Active; 'I' for Inactive)
REMARK    1  A    between atoms: N_12  and  C_13 
REMARK    2  A    between atoms: C_13  and  C_14 
REMARK       I    between atoms: C_14  and  N_15 
REMARK    3  A    between atoms: N_15  and  C_16 
ROOT
HETATM    1  C   UNL     1     -39.438  49.812 -50.938  1.00  0.00     0.048 C 
HETATM    2  C   UNL     1     -39.805  50.875 -51.933  1.00  0.00    -0.061 A 
HETATM    3  C   UNL     1     -40.153  52.166 -51.502  1.00  0.00     0.021 A 
HETATM    4  C   UNL     1     -40.490  53.154 -52.449  1.00  0.00     0.005 A 
HETATM    5  C   UNL     1     -40.477  52.818 -53.808  1.00  0.00     0.044 A 
HETATM    6  N   UNL     1     -40.824  53.950 -54.518  1.00  0.00    -0.350 N 
HETATM    7  H   UNL     1     -40.886  54.017 -55.527  1.00  0.00     0.166 HD
HETATM    8  C   UNL     1     -41.048  54.983 -53.653  1.00  0.00     0.116 A 
HETATM    9  C   UNL     1     -40.859  54.520 -52.375  1.00  0.00     0.028 A 
HETATM   10  C   UNL     1     -41.397  56.341 -53.955  1.00  0.00     0.291 A 
HETATM   11  O   UNL     1     -41.527  56.757 -55.100  1.00  0.00    -0.264 OA
HETATM   12  N   UNL     1     -41.580  57.127 -52.800  1.00  0.00    -0.224 N 
HETATM   13  N   UNL     1     -41.361  56.667 -51.483  1.00  0.00    -0.180 NA
HETATM   14  C   UNL     1     -41.026  55.426 -51.277  1.00  0.00     0.153 A 
HETATM   15  C   UNL     1     -40.148  51.537 -54.260  1.00  0.00     0.031 A 
HETATM   16  C   UNL     1     -39.814  50.575 -53.300  1.00  0.00     0.009 A 
ENDROOT
BRANCH  12  17
HETATM   17  C   UNL     1     -41.731  58.566 -52.952  1.00  0.00     0.258 C 
BRANCH  17  18
HETATM   18  C   UNL     1     -42.700  59.387 -52.080  1.00  0.00     0.244 C 
HETATM   19  N   UNL     1     -42.239  60.112 -50.971  1.00  0.00    -0.321 N 
HETATM   20  C   UNL     1     -40.906  59.932 -50.408  1.00  0.00     0.159 C 
HETATM   21  O   UNL     1     -43.865  59.478 -52.497  1.00  0.00    -0.271 OA
BRANCH  19  22
HETATM   22  C   UNL     1     -43.099  61.058 -50.306  1.00  0.00     0.036 A 
HETATM   23  C   UNL     1     -43.032  62.428 -50.602  1.00  0.00     0.029 A 
HETATM   24  C   UNL     1     -43.827  63.356 -49.919  1.00  0.00     0.002 A 
HETATM   25  C   UNL     1     -44.709  62.927 -48.932  1.00  0.00     0.000 A 
HETATM   26  C   UNL     1     -44.797  61.571 -48.630  1.00  0.00     0.002 A 
HETATM   27  C   UNL     1     -43.994  60.646 -49.307  1.00  0.00     0.029 A 
ENDBRANCH  19  22
ENDBRANCH  17  18
ENDBRANCH  12  17
TORSDOF 3
ENDMDL
MODEL 7
REMARK VINA RESULT:      -8.1      3.686      4.688
REMARK  3 active torsions:
REMARK  status: ('A' for Active; 'I' for Inactive)
REMARK    1  A    between atoms: N_12  and  C_13 
REMARK    2  A    between atoms: C_13  and  C_14 
REMARK       I    between atoms: C_14  and  N_15 
REMARK    3  A    between atoms: N_15  and  C_16 
ROOT
HETATM    1  C   UNL     1     -39.390  49.790 -54.174  1.00  0.00     0.048 C 
HETATM    2  C   UNL     1     -39.836  51.096 -53.585  1.00  0.00    -0.061 A 
HETATM    3  C   UNL     1     -40.621  51.987 -54.337  1.00  0.00     0.021 A 
HETATM    4  C   UNL     1     -41.036  53.208 -53.767  1.00  0.00     0.005 A 
HETATM    5  C   UNL     1     -40.646  53.508 -52.457  1.00  0.00     0.044 A 
HETATM    6  N   UNL     1     -41.188  54.736 -52.134  1.00  0.00    -0.350 N 
HETATM    7  H   UNL     1     -41.088  55.208 -51.244  1.00  0.00     0.166 HD
HETATM    8  C   UNL     1     -41.908  55.212 -53.193  1.00  0.00     0.116 A 
HETATM    9  C   UNL     1     -41.823  54.297 -54.213  1.00  0.00     0.028 A 
HETATM   10  C   UNL     1     -42.662  56.428 -53.286  1.00  0.00     0.291 A 
HETATM   11  O   UNL     1     -42.763  57.222 -52.357  1.00  0.00    -0.264 OA
HETATM   12  N   UNL     1     -43.255  56.608 -54.551  1.00  0.00    -0.224 N 
HETATM   13  N   UNL     1     -43.198  55.660 -55.597  1.00  0.00    -0.180 NA
HETATM   14  C   UNL     1     -42.511  54.565 -55.442  1.00  0.00     0.153 A 
HETATM   15  C   UNL     1     -39.854  52.645 -51.694  1.00  0.00     0.031 A 
HETATM   16  C   UNL     1     -39.458  51.437 -52.282  1.00  0.00     0.009 A 
ENDROOT
BRANCH  12  17
HETATM   17  C   UNL     1     -44.216  57.686 -54.724  1.00  0.00     0.258 C 
BRANCH  17  18
HETATM   18  C   UNL     1     -44.501  58.318 -56.101  1.00  0.00     0.244 C 
HETATM   19  N   UNL     1     -43.498  59.004 -56.803  1.00  0.00    -0.321 N 
HETATM   20  C   UNL     1     -42.236  59.402 -56.192  1.00  0.00     0.159 C 
HETATM   21  O   UNL     1     -45.608  58.064 -56.599  1.00  0.00    -0.271 OA
BRANCH  19  22
HETATM   22  C   UNL     1     -43.699  59.384 -58.178  1.00  0.00     0.036 A 
HETATM   23  C   UNL     1     -44.262  60.626 -58.511  1.00  0.00     0.029 A 
HETATM   24  C   UNL     1     -44.510  60.976 -59.843  1.00  0.00     0.002 A 
HETATM   25  C   UNL     1     -44.188  60.092 -60.868  1.00  0.00     0.000 A 
HETATM   26  C   UNL     1     -43.620  58.859 -60.561  1.00  0.00     0.002 A 
HETATM   27  C   UNL     1     -43.383  58.507 -59.227  1.00  0.00     0.029 A 
ENDBRANCH  19  22
ENDBRANCH  17  18
ENDBRANCH  12  17
TORSDOF 3
ENDMDL
MODEL 8
REMARK VINA RESULT:      -7.9      2.424      9.009
REMARK  3 active torsions:
REMARK  status: ('A' for Active; 'I' for Inactive)
REMARK    1  A    between atoms: N_12  and  C_13 
REMARK    2  A    between atoms: C_13  and  C_14 
REMARK       I    between atoms: C_14  and  N_15 
REMARK    3  A    between atoms: N_15  and  C_16 
ROOT
HETATM    1  C   UNL     1     -45.755  62.905 -47.764  1.00  0.00     0.048 C 
HETATM    2  C   UNL     1     -44.864  62.386 -48.855  1.00  0.00    -0.061 A 
HETATM    3  C   UNL     1     -45.028  61.081 -49.351  1.00  0.00     0.021 A 
HETATM    4  C   UNL     1     -44.186  60.611 -50.379  1.00  0.00     0.005 A 
HETATM    5  C   UNL     1     -43.193  61.461 -50.880  1.00  0.00     0.044 A 
HETATM    6  N   UNL     1     -42.526  60.777 -51.876  1.00  0.00    -0.350 N 
HETATM    7  H   UNL     1     -41.762  61.142 -52.431  1.00  0.00     0.166 HD
HETATM    8  C   UNL     1     -43.069  59.532 -52.020  1.00  0.00     0.116 A 
HETATM    9  C   UNL     1     -44.085  59.400 -51.107  1.00  0.00     0.028 A 
HETATM   10  C   UNL     1     -42.711  58.504 -52.953  1.00  0.00     0.291 A 
HETATM   11  O   UNL     1     -41.827  58.643 -53.791  1.00  0.00    -0.264 OA
HETATM   12  N   UNL     1     -43.473  57.330 -52.792  1.00  0.00    -0.224 N 
HETATM   13  N   UNL     1     -44.538  57.194 -51.875  1.00  0.00    -0.180 NA
HETATM   14  C   UNL     1     -44.826  58.173 -51.067  1.00  0.00     0.153 A 
HETATM   15  C   UNL     1     -43.001  62.757 -50.392  1.00  0.00     0.031 A 
HETATM   16  C   UNL     1     -43.852  63.202 -49.374  1.00  0.00     0.009 A 
ENDROOT
BRANCH  12  17
HETATM   17  C   UNL     1     -43.365  56.284 -53.797  1.00  0.00     0.258 C 
BRANCH  17  18
HETATM   18  C   UNL     1     -42.762  54.901 -53.482  1.00  0.00     0.244 C 
HETATM   19  N   UNL     1     -41.440  54.591 -53.834  1.00  0.00    -0.321 N 
HETATM   20  C   UNL     1     -40.649  55.415 -54.740  1.00  0.00     0.159 C 
HETATM   21  O   UNL     1     -43.459  54.148 -52.785  1.00  0.00    -0.271 OA
BRANCH  19  22
HETATM   22  C   UNL     1     -40.811  53.396 -53.333  1.00  0.00     0.036 A 
HETATM   23  C   UNL     1     -40.413  53.296 -51.991  1.00  0.00     0.029 A 
HETATM   24  C   UNL     1     -39.752  52.158 -51.513  1.00  0.00     0.002 A 
HETATM   25  C   UNL     1     -39.484  51.095 -52.371  1.00  0.00     0.000 A 
HETATM   26  C   UNL     1     -39.878  51.171 -53.703  1.00  0.00     0.002 A 
HETATM   27  C   UNL     1     -40.529  52.313 -54.181  1.00  0.00     0.029 A 
ENDBRANCH  19  22
ENDBRANCH  17  18
ENDBRANCH  12  17
TORSDOF 3
ENDMDL
MODEL 9
REMARK VINA RESULT:      -7.9      4.513      5.853
REMARK  3 active torsions:
REMARK  status: ('A' for Active; 'I' for Inactive)
REMARK    1  A    between atoms: N_12  and  C_13 
REMARK    2  A    between atoms: C_13  and  C_14 
REMARK       I    between atoms: C_14  and  N_15 
REMARK    3  A    between atoms: N_15  and  C_16 
ROOT
HETATM    1  C   UNL     1     -40.235  53.908 -47.964  1.00  0.00     0.048 C 
HETATM    2  C   UNL     1     -40.451  53.831 -49.448  1.00  0.00    -0.061 A 
HETATM    3  C   UNL     1     -40.921  54.948 -50.159  1.00  0.00     0.021 A 
HETATM    4  C   UNL     1     -41.115  54.861 -51.552  1.00  0.00     0.005 A 
HETATM    5  C   UNL     1     -40.839  53.650 -52.198  1.00  0.00     0.044 A 
HETATM    6  N   UNL     1     -41.092  53.830 -53.543  1.00  0.00    -0.350 N 
HETATM    7  H   UNL     1     -40.969  53.130 -54.264  1.00  0.00     0.166 HD
HETATM    8  C   UNL     1     -41.510  55.111 -53.763  1.00  0.00     0.116 A 
HETATM    9  C   UNL     1     -41.542  55.765 -52.556  1.00  0.00     0.028 A 
HETATM   10  C   UNL     1     -41.847  55.739 -55.007  1.00  0.00     0.291 A 
HETATM   11  O   UNL     1     -41.780  55.160 -56.086  1.00  0.00    -0.264 OA
HETATM   12  N   UNL     1     -42.270  57.074 -54.849  1.00  0.00    -0.224 N 
HETATM   13  N   UNL     1     -42.280  57.763 -53.616  1.00  0.00    -0.180 NA
HETATM   14  C   UNL     1     -41.942  57.141 -52.524  1.00  0.00     0.153 A 
HETATM   15  C   UNL     1     -40.385  52.521 -51.510  1.00  0.00     0.031 A 
HETATM   16  C   UNL     1     -40.197  52.634 -50.127  1.00  0.00     0.009 A 
ENDROOT
BRANCH  12  17
HETATM   17  C   UNL     1     -42.443  57.896 -56.036  1.00  0.00     0.258 C 
BRANCH  17  18
HETATM   18  C   UNL     1     -43.650  57.730 -56.981  1.00  0.00     0.244 C 
HETATM   19  N   UNL     1     -43.469  57.508 -58.354  1.00  0.00    -0.321 N 
HETATM   20  C   UNL     1     -42.185  57.689 -59.021  1.00  0.00     0.159 C 
HETATM   21  O   UNL     1     -44.763  57.665 -56.436  1.00  0.00    -0.271 OA
BRANCH  19  22
HETATM   22  C   UNL     1     -44.581  57.122 -59.185  1.00  0.00     0.036 A 
HETATM   23  C   UNL     1     -45.551  58.057 -59.576  1.00  0.00     0.029 A 
HETATM   24  C   UNL     1     -46.662  57.674 -60.337  1.00  0.00     0.002 A 
HETATM   25  C   UNL     1     -46.815  56.347 -60.728  1.00  0.00     0.000 A 
HETATM   26  C   UNL     1     -45.860  55.406 -60.359  1.00  0.00     0.002 A 
HETATM   27  C   UNL     1     -44.756  55.789 -59.589  1.00  0.00     0.029 A 
ENDBRANCH  19  22
ENDBRANCH  17  18
ENDBRANCH  12  17
TORSDOF 3
ENDMDL
MODEL 10
REMARK VINA RESULT:      -7.7      4.926      6.316
REMARK  3 active torsions:
REMARK  status: ('A' for Active; 'I' for Inactive)
REMARK    1  A    between atoms: N_12  and  C_13 
REMARK    2  A    between atoms: C_13  and  C_14 
REMARK       I    between atoms: C_14  and  N_15 
REMARK    3  A    between atoms: N_15  and  C_16 
ROOT
HETATM    1  C   UNL     1     -40.368  52.782 -50.232  1.00  0.00     0.048 C 
HETATM    2  C   UNL     1     -40.642  53.159 -51.659  1.00  0.00    -0.061 A 
HETATM    3  C   UNL     1     -41.445  54.272 -51.962  1.00  0.00     0.021 A 
HETATM    4  C   UNL     1     -41.689  54.616 -53.307  1.00  0.00     0.005 A 
HETATM    5  C   UNL     1     -41.125  53.828 -54.317  1.00  0.00     0.044 A 
HETATM    6  N   UNL     1     -41.496  54.378 -55.528  1.00  0.00    -0.350 N 
HETATM    7  H   UNL     1     -41.227  54.031 -56.440  1.00  0.00     0.166 HD
HETATM    8  C   UNL     1     -42.267  55.485 -55.311  1.00  0.00     0.116 A 
HETATM    9  C   UNL     1     -42.409  55.649 -53.955  1.00  0.00     0.028 A 
HETATM   10  C   UNL     1     -42.839  56.378 -56.276  1.00  0.00     0.291 A 
HETATM   11  O   UNL     1     -42.677  56.247 -57.484  1.00  0.00    -0.264 OA
HETATM   12  N   UNL     1     -43.606  57.401 -55.686  1.00  0.00    -0.224 N 
HETATM   13  N   UNL     1     -43.735  57.595 -54.293  1.00  0.00    -0.180 NA
HETATM   14  C   UNL     1     -43.174  56.759 -53.468  1.00  0.00     0.153 A 
HETATM   15  C   UNL     1     -40.335  52.708 -54.041  1.00  0.00     0.031 A 
HETATM   16  C   UNL     1     -40.105  52.390 -52.698  1.00  0.00     0.009 A 
ENDROOT
BRANCH  12  17
HETATM   17  C   UNL     1     -44.072  58.496 -56.523  1.00  0.00     0.258 C 
BRANCH  17  18
HETATM   18  C   UNL     1     -45.243  58.332 -57.512  1.00  0.00     0.244 C 
HETATM   19  N   UNL     1     -45.027  58.351 -58.898  1.00  0.00    -0.321 N 
HETATM   20  C   UNL     1     -43.772  58.790 -59.497  1.00  0.00     0.159 C 
HETATM   21  O   UNL     1     -46.342  58.047 -57.013  1.00  0.00    -0.271 OA
BRANCH  19  22
HETATM   22  C   UNL     1     -46.076  57.965 -59.807  1.00  0.00     0.036 A 
HETATM   23  C   UNL     1     -46.323  56.614 -60.096  1.00  0.00     0.029 A 
HETATM   24  C   UNL     1     -47.304  56.238 -61.020  1.00  0.00     0.002 A 
HETATM   25  C   UNL     1     -48.064  57.209 -61.666  1.00  0.00     0.000 A 
HETATM   26  C   UNL     1     -47.841  58.554 -61.387  1.00  0.00     0.002 A 
HETATM   27  C   UNL     1     -46.852  58.929 -60.471  1.00  0.00     0.029 A 
ENDBRANCH  19  22
ENDBRANCH  17  18
ENDBRANCH  12  17
TORSDOF 3
ENDMDL
