MODEL 1
REMARK VINA RESULT:      -9.1      0.000      0.000
REMARK  6 active torsions:
REMARK  status: ('A' for Active; 'I' for Inactive)
REMARK    1  A    between atoms: O_2  and  C_3 
REMARK    2  A    between atoms: C_5  and  N_6 
REMARK    3  A    between atoms: C_8  and  C_9 
REMARK    4  A    between atoms: C_9  and  N_10 
REMARK       I    between atoms: N_10  and  C_11 
REMARK       I    between atoms: C_11  and  N_12 
REMARK    5  A    between atoms: N_12  and  C_13 
REMARK    6  A    between atoms: C_13  and  C_14 
ROOT
HETATM    1  N   UNL     1     -42.264  58.136 -51.815  1.00  0.00    -0.343 N 
HETATM    2  C   UNL     1     -42.278  56.880 -51.269  1.00  0.00     0.316 C 
HETATM    3  N   UNL     1     -41.015  56.446 -50.976  1.00  0.00    -0.339 N 
HETATM    4  O   UNL     1     -43.294  56.225 -51.086  1.00  0.00    -0.248 OA
HETATM    5  H   UNL     1     -41.380  58.467 -52.170  1.00  0.00     0.164 HD
HETATM    6  H   UNL     1     -40.302  57.147 -50.846  1.00  0.00     0.164 HD
ENDROOT
BRANCH   1   7
HETATM    7  C   UNL     1     -43.471  58.771 -52.314  1.00  0.00     0.130 C 
BRANCH   7   8
HETATM    8  C   UNL     1     -43.357  59.134 -53.789  1.00  0.00     0.023 C 
HETATM    9  C   UNL     1     -43.173  57.905 -54.686  1.00  0.00     0.129 C 
HETATM   10  N   UNL     1     -42.533  58.441 -55.888  1.00  0.00    -0.380 N 
HETATM   11  C   UNL     1     -42.048  59.802 -55.665  1.00  0.00     0.123 C 
HETATM   12  C   UNL     1     -42.139  59.981 -54.151  1.00  0.00     0.028 C 
BRANCH  10  13
HETATM   13  C   UNL     1     -42.576  57.833 -57.123  1.00  0.00     0.032 A 
HETATM   14  C   UNL     1     -43.265  56.622 -57.330  1.00  0.00     0.066 A 
HETATM   15  C   UNL     1     -43.324  56.004 -58.587  1.00  0.00     0.070 A 
HETATM   16  C   UNL     1     -42.685  56.598 -59.671  1.00  0.00     0.037 A 
HETATM   17  C   UNL     1     -41.981  57.784 -59.500  1.00  0.00     0.005 A 
HETATM   18  C   UNL     1     -41.925  58.384 -58.239  1.00  0.00     0.029 A 
BRANCH  15  19
HETATM   19  O   UNL     1     -43.970  54.833 -58.880  1.00  0.00    -0.356 OA
HETATM   20  C   UNL     1     -44.634  54.760 -60.134  1.00  0.00     0.210 C 
ENDBRANCH  15  19
ENDBRANCH  10  13
ENDBRANCH   7   8
ENDBRANCH   1   7
BRANCH   3  21
HETATM   21  C   UNL     1     -40.778  55.157 -50.365  1.00  0.00     0.162 C 
BRANCH  21  22
HETATM   22  C   UNL     1     -40.591  54.079 -51.403  1.00  0.00    -0.040 A 
HETATM   23  C   UNL     1     -40.202  52.785 -51.028  1.00  0.00     0.021 A 
HETATM   24  C   UNL     1     -40.002  51.776 -51.987  1.00  0.00    -0.025 A 
HETATM   25  C   UNL     1     -40.202  52.071 -53.354  1.00  0.00    -0.026 A 
HETATM   26  C   UNL     1     -39.604  50.481 -51.617  1.00  0.00     0.012 A 
HETATM   27  C   UNL     1     -40.589  53.368 -53.726  1.00  0.00     0.013 A 
HETATM   28  C   UNL     1     -40.000  51.065 -54.312  1.00  0.00     0.012 A 
HETATM   29  C   UNL     1     -40.776  54.361 -52.762  1.00  0.00     0.010 A 
HETATM   30  C   UNL     1     -39.603  49.783 -53.927  1.00  0.00     0.001 A 
HETATM   31  C   UNL     1     -39.405  49.491 -52.581  1.00  0.00     0.001 A 
ENDBRANCH  21  22
ENDBRANCH   3  21
TORSDOF 6
ENDMDL
MODEL 2
REMARK VINA RESULT:      -9.0      3.163      4.857
REMARK  6 active torsions:
REMARK  status: ('A' for Active; 'I' for Inactive)
REMARK    1  A    between atoms: O_2  and  C_3 
REMARK    2  A    between atoms: C_5  and  N_6 
REMARK    3  A    between atoms: C_8  and  C_9 
REMARK    4  A    between atoms: C_9  and  N_10 
REMARK       I    between atoms: N_10  and  C_11 
REMARK       I    between atoms: C_11  and  N_12 
REMARK    5  A    between atoms: N_12  and  C_13 
REMARK    6  A    between atoms: C_13  and  C_14 
ROOT
HETATM    1  N   UNL     1     -42.166  55.796 -57.192  1.00  0.00    -0.343 N 
HETATM    2  C   UNL     1     -42.336  55.896 -55.836  1.00  0.00     0.316 C 
HETATM    3  N   UNL     1     -41.181  55.605 -55.164  1.00  0.00    -0.339 N 
HETATM    4  O   UNL     1     -43.394  56.189 -55.298  1.00  0.00    -0.248 OA
HETATM    5  H   UNL     1     -41.353  55.292 -57.512  1.00  0.00     0.164 HD
HETATM    6  H   UNL     1     -40.314  55.705 -55.667  1.00  0.00     0.164 HD
ENDROOT
BRANCH   1   7
HETATM    7  C   UNL     1     -43.274  55.948 -58.118  1.00  0.00     0.130 C 
BRANCH   7   8
HETATM    8  C   UNL     1     -43.010  57.037 -59.150  1.00  0.00     0.023 C 
HETATM    9  C   UNL     1     -42.242  58.228 -58.567  1.00  0.00     0.129 C 
HETATM   10  N   UNL     1     -42.578  59.334 -59.463  1.00  0.00    -0.380 N 
HETATM   11  C   UNL     1     -43.702  58.986 -60.332  1.00  0.00     0.123 C 
HETATM   12  C   UNL     1     -44.260  57.706 -59.715  1.00  0.00     0.028 C 
BRANCH  10  13
HETATM   13  C   UNL     1     -41.807  60.464 -59.619  1.00  0.00     0.032 A 
HETATM   14  C   UNL     1     -41.631  61.074 -60.876  1.00  0.00     0.066 A 
HETATM   15  C   UNL     1     -40.857  62.232 -61.042  1.00  0.00     0.070 A 
HETATM   16  C   UNL     1     -40.241  62.805 -59.934  1.00  0.00     0.037 A 
HETATM   17  C   UNL     1     -40.379  62.222 -58.680  1.00  0.00     0.005 A 
HETATM   18  C   UNL     1     -41.146  61.063 -58.533  1.00  0.00     0.029 A 
BRANCH  15  19
HETATM   19  O   UNL     1     -40.634  62.890 -62.220  1.00  0.00    -0.356 OA
HETATM   20  C   UNL     1     -39.280  63.111 -62.589  1.00  0.00     0.210 C 
ENDBRANCH  15  19
ENDBRANCH  10  13
ENDBRANCH   7   8
ENDBRANCH   1   7
BRANCH   3  21
HETATM   21  C   UNL     1     -41.107  55.670 -53.720  1.00  0.00     0.162 C 
BRANCH  21  22
HETATM   22  C   UNL     1     -40.695  54.345 -53.129  1.00  0.00    -0.040 A 
HETATM   23  C   UNL     1     -40.505  53.224 -53.950  1.00  0.00     0.021 A 
HETATM   24  C   UNL     1     -40.143  51.976 -53.410  1.00  0.00    -0.025 A 
HETATM   25  C   UNL     1     -39.961  51.853 -52.014  1.00  0.00    -0.026 A 
HETATM   26  C   UNL     1     -39.962  50.848 -54.228  1.00  0.00     0.012 A 
HETATM   27  C   UNL     1     -40.153  52.977 -51.196  1.00  0.00     0.013 A 
HETATM   28  C   UNL     1     -39.601  50.608 -51.475  1.00  0.00     0.012 A 
HETATM   29  C   UNL     1     -40.521  54.206 -51.746  1.00  0.00     0.010 A 
HETATM   30  C   UNL     1     -39.425  49.497 -52.302  1.00  0.00     0.001 A 
HETATM   31  C   UNL     1     -39.606  49.616 -53.676  1.00  0.00     0.001 A 
ENDBRANCH  21  22
ENDBRANCH   3  21
TORSDOF 6
ENDMDL
MODEL 3
REMARK VINA RESULT:      -8.9      1.725      2.589
REMARK  6 active torsions:
REMARK  status: ('A' for Active; 'I' for Inactive)
REMARK    1  A    between atoms: O_2  and  C_3 
REMARK    2  A    between atoms: C_5  and  N_6 
REMARK    3  A    between atoms: C_8  and  C_9 
REMARK    4  A    between atoms: C_9  and  N_10 
REMARK       I    between atoms: N_10  and  C_11 
REMARK       I    between atoms: C_11  and  N_12 
REMARK    5  A    between atoms: N_12  and  C_13 
REMARK    6  A    between atoms: C_13  and  C_14 
ROOT
HETATM    1  N   UNL     1     -41.694  58.799 -54.646  1.00  0.00    -0.343 N 
HETATM    2  C   UNL     1     -42.040  57.966 -53.616  1.00  0.00     0.316 C 
HETATM    3  N   UNL     1     -41.072  57.029 -53.381  1.00  0.00    -0.339 N 
HETATM    4  O   UNL     1     -43.093  58.043 -52.997  1.00  0.00    -0.248 OA
HETATM    5  H   UNL     1     -40.951  58.486 -55.253  1.00  0.00     0.164 HD
HETATM    6  H   UNL     1     -40.137  57.241 -53.691  1.00  0.00     0.164 HD
ENDROOT
BRANCH   1   7
HETATM    7  C   UNL     1     -42.604  59.807 -55.159  1.00  0.00     0.130 C 
BRANCH   7   8
HETATM    8  C   UNL     1     -43.024  59.519 -56.595  1.00  0.00     0.023 C 
HETATM    9  C   UNL     1     -43.552  58.091 -56.779  1.00  0.00     0.129 C 
HETATM   10  N   UNL     1     -43.356  57.826 -58.204  1.00  0.00    -0.380 N 
HETATM   11  C   UNL     1     -42.490  58.835 -58.814  1.00  0.00     0.123 C 
HETATM   12  C   UNL     1     -41.895  59.578 -57.620  1.00  0.00     0.028 C 
BRANCH  10  13
HETATM   13  C   UNL     1     -44.063  56.885 -58.920  1.00  0.00     0.032 A 
HETATM   14  C   UNL     1     -45.335  57.163 -59.456  1.00  0.00     0.066 A 
HETATM   15  C   UNL     1     -46.055  56.215 -60.196  1.00  0.00     0.070 A 
HETATM   16  C   UNL     1     -45.502  54.956 -60.415  1.00  0.00     0.037 A 
HETATM   17  C   UNL     1     -44.256  54.642 -59.888  1.00  0.00     0.005 A 
HETATM   18  C   UNL     1     -43.554  55.595 -59.145  1.00  0.00     0.029 A 
BRANCH  15  19
HETATM   19  O   UNL     1     -47.291  56.397 -60.753  1.00  0.00    -0.356 OA
HETATM   20  C   UNL     1     -47.619  57.714 -61.177  1.00  0.00     0.210 C 
ENDBRANCH  15  19
ENDBRANCH  10  13
ENDBRANCH   7   8
ENDBRANCH   1   7
BRANCH   3  21
HETATM   21  C   UNL     1     -41.202  56.054 -52.321  1.00  0.00     0.162 C 
BRANCH  21  22
HETATM   22  C   UNL     1     -40.896  54.661 -52.811  1.00  0.00    -0.040 A 
HETATM   23  C   UNL     1     -40.507  53.657 -51.912  1.00  0.00     0.021 A 
HETATM   24  C   UNL     1     -40.196  52.359 -52.356  1.00  0.00    -0.025 A 
HETATM   25  C   UNL     1     -40.282  52.061 -53.735  1.00  0.00    -0.026 A 
HETATM   26  C   UNL     1     -39.797  51.353 -51.461  1.00  0.00     0.012 A 
HETATM   27  C   UNL     1     -40.670  53.069 -54.631  1.00  0.00     0.013 A 
HETATM   28  C   UNL     1     -39.970  50.766 -54.180  1.00  0.00     0.012 A 
HETATM   29  C   UNL     1     -40.967  54.355 -54.175  1.00  0.00     0.010 A 
HETATM   30  C   UNL     1     -39.574  49.778 -53.276  1.00  0.00     0.001 A 
HETATM   31  C   UNL     1     -39.487  50.071 -51.919  1.00  0.00     0.001 A 
ENDBRANCH  21  22
ENDBRANCH   3  21
TORSDOF 6
ENDMDL
MODEL 4
REMARK VINA RESULT:      -8.8      1.784      2.655
REMARK  6 active torsions:
REMARK  status: ('A' for Active; 'I' for Inactive)
REMARK    1  A    between atoms: O_2  and  C_3 
REMARK    2  A    between atoms: C_5  and  N_6 
REMARK    3  A    between atoms: C_8  and  C_9 
REMARK    4  A    between atoms: C_9  and  N_10 
REMARK       I    between atoms: N_10  and  C_11 
REMARK       I    between atoms: C_11  and  N_12 
REMARK    5  A    between atoms: N_12  and  C_13 
REMARK    6  A    between atoms: C_13  and  C_14 
ROOT
HETATM    1  N   UNL     1     -42.420  57.664 -53.880  1.00  0.00    -0.343 N 
HETATM    2  C   UNL     1     -41.561  57.354 -52.860  1.00  0.00     0.316 C 
HETATM    3  N   UNL     1     -41.970  56.239 -52.181  1.00  0.00    -0.339 N 
HETATM    4  O   UNL     1     -40.564  58.006 -52.582  1.00  0.00    -0.248 OA
HETATM    5  H   UNL     1     -43.333  57.236 -53.850  1.00  0.00     0.164 HD
HETATM    6  H   UNL     1     -42.579  55.599 -52.665  1.00  0.00     0.164 HD
ENDROOT
BRANCH   1   7
HETATM    7  C   UNL     1     -42.265  58.868 -54.678  1.00  0.00     0.130 C 
BRANCH   7   8
HETATM    8  C   UNL     1     -43.180  58.867 -55.896  1.00  0.00     0.023 C 
HETATM    9  C   UNL     1     -43.239  57.500 -56.588  1.00  0.00     0.129 C 
HETATM   10  N   UNL     1     -43.648  57.818 -57.956  1.00  0.00    -0.380 N 
HETATM   11  C   UNL     1     -43.540  59.253 -58.219  1.00  0.00     0.123 C 
HETATM   12  C   UNL     1     -42.738  59.784 -57.033  1.00  0.00     0.028 C 
BRANCH  10  13
HETATM   13  C   UNL     1     -44.257  56.924 -58.808  1.00  0.00     0.032 A 
HETATM   14  C   UNL     1     -45.624  57.024 -59.135  1.00  0.00     0.066 A 
HETATM   15  C   UNL     1     -46.248  56.126 -60.011  1.00  0.00     0.070 A 
HETATM   16  C   UNL     1     -45.503  55.099 -60.583  1.00  0.00     0.037 A 
HETATM   17  C   UNL     1     -44.156  54.959 -60.270  1.00  0.00     0.005 A 
HETATM   18  C   UNL     1     -43.550  55.859 -59.388  1.00  0.00     0.029 A 
BRANCH  15  19
HETATM   19  O   UNL     1     -47.564  56.148 -60.385  1.00  0.00    -0.356 OA
HETATM   20  C   UNL     1     -47.848  56.555 -61.717  1.00  0.00     0.210 C 
ENDBRANCH  15  19
ENDBRANCH  10  13
ENDBRANCH   7   8
ENDBRANCH   1   7
BRANCH   3  21
HETATM   21  C   UNL     1     -41.206  55.702 -51.076  1.00  0.00     0.162 C 
BRANCH  21  22
HETATM   22  C   UNL     1     -40.776  54.281 -51.342  1.00  0.00    -0.040 A 
HETATM   23  C   UNL     1     -40.728  53.782 -52.652  1.00  0.00     0.021 A 
HETATM   24  C   UNL     1     -40.350  52.453 -52.913  1.00  0.00    -0.025 A 
HETATM   25  C   UNL     1     -40.008  51.606 -51.835  1.00  0.00    -0.026 A 
HETATM   26  C   UNL     1     -40.311  51.946 -54.223  1.00  0.00     0.012 A 
HETATM   27  C   UNL     1     -40.058  52.109 -50.526  1.00  0.00     0.013 A 
HETATM   28  C   UNL     1     -39.632  50.278 -52.096  1.00  0.00     0.012 A 
HETATM   29  C   UNL     1     -40.443  53.428 -50.282  1.00  0.00     0.010 A 
HETATM   30  C   UNL     1     -39.599  49.790 -53.404  1.00  0.00     0.001 A 
HETATM   31  C   UNL     1     -39.938  50.623 -54.466  1.00  0.00     0.001 A 
ENDBRANCH  21  22
ENDBRANCH   3  21
TORSDOF 6
ENDMDL
MODEL 5
REMARK VINA RESULT:      -8.7      4.409      7.733
REMARK  6 active torsions:
REMARK  status: ('A' for Active; 'I' for Inactive)
REMARK    1  A    between atoms: O_2  and  C_3 
REMARK    2  A    between atoms: C_5  and  N_6 
REMARK    3  A    between atoms: C_8  and  C_9 
REMARK    4  A    between atoms: C_9  and  N_10 
REMARK       I    between atoms: N_10  and  C_11 
REMARK       I    between atoms: C_11  and  N_12 
REMARK    5  A    between atoms: N_12  and  C_13 
REMARK    6  A    between atoms: C_13  and  C_14 
ROOT
HETATM    1  N   UNL     1     -42.156  58.972 -50.813  1.00  0.00    -0.343 N 
HETATM    2  C   UNL     1     -42.966  57.998 -51.335  1.00  0.00     0.316 C 
HETATM    3  N   UNL     1     -42.751  56.790 -50.730  1.00  0.00    -0.339 N 
HETATM    4  O   UNL     1     -43.767  58.186 -52.240  1.00  0.00    -0.248 OA
HETATM    5  H   UNL     1     -41.360  58.661 -50.278  1.00  0.00     0.164 HD
HETATM    6  H   UNL     1     -42.342  56.798 -49.809  1.00  0.00     0.164 HD
ENDROOT
BRANCH   1   7
HETATM    7  C   UNL     1     -42.117  60.315 -51.364  1.00  0.00     0.130 C 
BRANCH   7   8
HETATM    8  C   UNL     1     -42.552  61.361 -50.345  1.00  0.00     0.023 C 
HETATM    9  C   UNL     1     -43.825  60.957 -49.593  1.00  0.00     0.129 C 
HETATM   10  N   UNL     1     -44.381  62.230 -49.135  1.00  0.00    -0.380 N 
HETATM   11  C   UNL     1     -43.730  63.359 -49.800  1.00  0.00     0.123 C 
HETATM   12  C   UNL     1     -42.945  62.712 -50.938  1.00  0.00     0.028 C 
BRANCH  10  13
HETATM   13  C   UNL     1     -45.243  62.359 -48.069  1.00  0.00     0.032 A 
HETATM   14  C   UNL     1     -45.993  61.270 -47.586  1.00  0.00     0.066 A 
HETATM   15  C   UNL     1     -46.863  61.390 -46.493  1.00  0.00     0.070 A 
HETATM   16  C   UNL     1     -46.995  62.620 -45.857  1.00  0.00     0.037 A 
HETATM   17  C   UNL     1     -46.282  63.721 -46.316  1.00  0.00     0.005 A 
HETATM   18  C   UNL     1     -45.425  63.587 -47.412  1.00  0.00     0.029 A 
BRANCH  15  19
HETATM   19  O   UNL     1     -47.627  60.388 -45.957  1.00  0.00    -0.356 OA
HETATM   20  C   UNL     1     -46.996  59.129 -45.767  1.00  0.00     0.210 C 
ENDBRANCH  15  19
ENDBRANCH  10  13
ENDBRANCH   7   8
ENDBRANCH   1   7
BRANCH   3  21
HETATM   21  C   UNL     1     -43.510  55.614 -51.095  1.00  0.00     0.162 C 
BRANCH  21  22
HETATM   22  C   UNL     1     -42.695  54.672 -51.946  1.00  0.00    -0.040 A 
HETATM   23  C   UNL     1     -41.702  53.866 -51.370  1.00  0.00     0.021 A 
HETATM   24  C   UNL     1     -40.919  53.000 -52.153  1.00  0.00    -0.025 A 
HETATM   25  C   UNL     1     -41.140  52.937 -53.547  1.00  0.00    -0.026 A 
HETATM   26  C   UNL     1     -39.917  52.198 -51.581  1.00  0.00     0.012 A 
HETATM   27  C   UNL     1     -42.133  53.747 -54.120  1.00  0.00     0.013 A 
HETATM   28  C   UNL     1     -40.357  52.074 -54.330  1.00  0.00     0.012 A 
HETATM   29  C   UNL     1     -42.897  54.608 -53.330  1.00  0.00     0.010 A 
HETATM   30  C   UNL     1     -39.365  51.284 -53.746  1.00  0.00     0.001 A 
HETATM   31  C   UNL     1     -39.145  51.346 -52.373  1.00  0.00     0.001 A 
ENDBRANCH  21  22
ENDBRANCH   3  21
TORSDOF 6
ENDMDL
MODEL 6
REMARK VINA RESULT:      -8.6      1.372      2.087
REMARK  6 active torsions:
REMARK  status: ('A' for Active; 'I' for Inactive)
REMARK    1  A    between atoms: O_2  and  C_3 
REMARK    2  A    between atoms: C_5  and  N_6 
REMARK    3  A    between atoms: C_8  and  C_9 
REMARK    4  A    between atoms: C_9  and  N_10 
REMARK       I    between atoms: N_10  and  C_11 
REMARK       I    between atoms: C_11  and  N_12 
REMARK    5  A    between atoms: N_12  and  C_13 
REMARK    6  A    between atoms: C_13  and  C_14 
ROOT
HETATM    1  N   UNL     1     -43.956  58.080 -52.154  1.00  0.00    -0.343 N 
HETATM    2  C   UNL     1     -42.685  57.893 -51.679  1.00  0.00     0.316 C 
HETATM    3  N   UNL     1     -42.635  56.876 -50.765  1.00  0.00    -0.339 N 
HETATM    4  O   UNL     1     -41.722  58.567 -52.017  1.00  0.00    -0.248 OA
HETATM    5  H   UNL     1     -44.705  57.667 -51.619  1.00  0.00     0.164 HD
HETATM    6  H   UNL     1     -43.368  56.186 -50.800  1.00  0.00     0.164 HD
ENDROOT
BRANCH   1   7
HETATM    7  C   UNL     1     -44.288  59.173 -53.050  1.00  0.00     0.130 C 
BRANCH   7   8
HETATM    8  C   UNL     1     -44.659  58.675 -54.442  1.00  0.00     0.023 C 
HETATM    9  C   UNL     1     -43.436  58.496 -55.349  1.00  0.00     0.129 C 
HETATM   10  N   UNL     1     -43.987  58.587 -56.701  1.00  0.00    -0.380 N 
HETATM   11  C   UNL     1     -45.355  59.104 -56.680  1.00  0.00     0.123 C 
HETATM   12  C   UNL     1     -45.526  59.631 -55.258  1.00  0.00     0.028 C 
BRANCH  10  13
HETATM   13  C   UNL     1     -43.383  58.056 -57.819  1.00  0.00     0.032 A 
HETATM   14  C   UNL     1     -43.888  56.909 -58.461  1.00  0.00     0.066 A 
HETATM   15  C   UNL     1     -43.286  56.370 -59.607  1.00  0.00     0.070 A 
HETATM   16  C   UNL     1     -42.153  56.982 -60.135  1.00  0.00     0.037 A 
HETATM   17  C   UNL     1     -41.617  58.105 -59.519  1.00  0.00     0.005 A 
HETATM   18  C   UNL     1     -42.224  58.626 -58.373  1.00  0.00     0.029 A 
BRANCH  15  19
HETATM   19  O   UNL     1     -43.708  55.264 -60.294  1.00  0.00    -0.356 OA
HETATM   20  C   UNL     1     -45.013  54.783 -60.002  1.00  0.00     0.210 C 
ENDBRANCH  15  19
ENDBRANCH  10  13
ENDBRANCH   7   8
ENDBRANCH   1   7
BRANCH   3  21
HETATM   21  C   UNL     1     -41.391  56.475 -50.144  1.00  0.00     0.162 C 
BRANCH  21  22
HETATM   22  C   UNL     1     -40.909  55.150 -50.679  1.00  0.00    -0.040 A 
HETATM   23  C   UNL     1     -41.031  54.843 -52.042  1.00  0.00     0.021 A 
HETATM   24  C   UNL     1     -40.607  53.603 -52.552  1.00  0.00    -0.025 A 
HETATM   25  C   UNL     1     -40.042  52.651 -51.674  1.00  0.00    -0.026 A 
HETATM   26  C   UNL     1     -40.735  53.287 -53.915  1.00  0.00     0.012 A 
HETATM   27  C   UNL     1     -39.923  52.961 -50.310  1.00  0.00     0.013 A 
HETATM   28  C   UNL     1     -39.620  51.412 -52.182  1.00  0.00     0.012 A 
HETATM   29  C   UNL     1     -40.357  54.194 -49.818  1.00  0.00     0.010 A 
HETATM   30  C   UNL     1     -39.756  51.114 -53.539  1.00  0.00     0.001 A 
HETATM   31  C   UNL     1     -40.313  52.050 -54.405  1.00  0.00     0.001 A 
ENDBRANCH  21  22
ENDBRANCH   3  21
TORSDOF 6
ENDMDL
MODEL 7
REMARK VINA RESULT:      -8.4      6.100     10.273
REMARK  6 active torsions:
REMARK  status: ('A' for Active; 'I' for Inactive)
REMARK    1  A    between atoms: O_2  and  C_3 
REMARK    2  A    between atoms: C_5  and  N_6 
REMARK    3  A    between atoms: C_8  and  C_9 
REMARK    4  A    between atoms: C_9  and  N_10 
REMARK       I    between atoms: N_10  and  C_11 
REMARK       I    between atoms: C_11  and  N_12 
REMARK    5  A    between atoms: N_12  and  C_13 
REMARK    6  A    between atoms: C_13  and  C_14 
ROOT
HETATM    1  N   UNL     1     -43.889  60.452 -50.223  1.00  0.00    -0.343 N 
HETATM    2  C   UNL     1     -44.999  60.333 -49.430  1.00  0.00     0.316 C 
HETATM    3  N   UNL     1     -44.755  60.770 -48.157  1.00  0.00    -0.339 N 
HETATM    4  O   UNL     1     -46.067  59.874 -49.811  1.00  0.00    -0.248 OA
HETATM    5  H   UNL     1     -43.006  60.580 -49.752  1.00  0.00     0.164 HD
HETATM    6  H   UNL     1     -43.994  61.418 -48.027  1.00  0.00     0.164 HD
ENDROOT
BRANCH   1   7
HETATM    7  C   UNL     1     -43.861  59.952 -51.586  1.00  0.00     0.130 C 
BRANCH   7   8
HETATM    8  C   UNL     1     -42.645  59.070 -51.845  1.00  0.00     0.023 C 
HETATM    9  C   UNL     1     -42.835  57.640 -51.328  1.00  0.00     0.129 C 
HETATM   10  N   UNL     1     -41.469  57.152 -51.138  1.00  0.00    -0.380 N 
HETATM   11  C   UNL     1     -40.504  58.250 -51.200  1.00  0.00     0.123 C 
HETATM   12  C   UNL     1     -41.370  59.505 -51.127  1.00  0.00     0.028 C 
BRANCH  10  13
HETATM   13  C   UNL     1     -41.118  55.821 -51.121  1.00  0.00     0.032 A 
HETATM   14  C   UNL     1     -41.253  55.004 -52.260  1.00  0.00     0.066 A 
HETATM   15  C   UNL     1     -40.887  53.651 -52.254  1.00  0.00     0.070 A 
HETATM   16  C   UNL     1     -40.371  53.087 -51.091  1.00  0.00     0.037 A 
HETATM   17  C   UNL     1     -40.239  53.859 -49.943  1.00  0.00     0.005 A 
HETATM   18  C   UNL     1     -40.616  55.205 -49.962  1.00  0.00     0.029 A 
BRANCH  15  19
HETATM   19  O   UNL     1     -40.981  52.786 -53.311  1.00  0.00    -0.356 OA
HETATM   20  C   UNL     1     -40.207  53.090 -54.463  1.00  0.00     0.210 C 
ENDBRANCH  15  19
ENDBRANCH  10  13
ENDBRANCH   7   8
ENDBRANCH   1   7
BRANCH   3  21
HETATM   21  C   UNL     1     -45.788  60.767 -47.144  1.00  0.00     0.162 C 
BRANCH  21  22
HETATM   22  C   UNL     1     -45.536  61.822 -46.096  1.00  0.00    -0.040 A 
HETATM   23  C   UNL     1     -44.591  61.610 -45.081  1.00  0.00     0.021 A 
HETATM   24  C   UNL     1     -44.361  62.575 -44.084  1.00  0.00    -0.025 A 
HETATM   25  C   UNL     1     -45.093  63.783 -44.109  1.00  0.00    -0.026 A 
HETATM   26  C   UNL     1     -43.423  62.363 -43.061  1.00  0.00     0.012 A 
HETATM   27  C   UNL     1     -46.039  63.991 -45.125  1.00  0.00     0.013 A 
HETATM   28  C   UNL     1     -44.866  64.746 -43.112  1.00  0.00     0.012 A 
HETATM   29  C   UNL     1     -46.262  63.019 -46.102  1.00  0.00     0.010 A 
HETATM   30  C   UNL     1     -43.929  64.518 -42.102  1.00  0.00     0.001 A 
HETATM   31  C   UNL     1     -43.209  63.328 -42.076  1.00  0.00     0.001 A 
ENDBRANCH  21  22
ENDBRANCH   3  21
TORSDOF 6
ENDMDL
MODEL 8
REMARK VINA RESULT:      -8.2      4.018      7.346
REMARK  6 active torsions:
REMARK  status: ('A' for Active; 'I' for Inactive)
REMARK    1  A    between atoms: O_2  and  C_3 
REMARK    2  A    between atoms: C_5  and  N_6 
REMARK    3  A    between atoms: C_8  and  C_9 
REMARK    4  A    between atoms: C_9  and  N_10 
REMARK       I    between atoms: N_10  and  C_11 
REMARK       I    between atoms: C_11  and  N_12 
REMARK    5  A    between atoms: N_12  and  C_13 
REMARK    6  A    between atoms: C_13  and  C_14 
ROOT
HETATM    1  N   UNL     1     -43.830  57.814 -53.626  1.00  0.00    -0.343 N 
HETATM    2  C   UNL     1     -42.572  57.506 -54.074  1.00  0.00     0.316 C 
HETATM    3  N   UNL     1     -42.400  56.155 -54.196  1.00  0.00    -0.339 N 
HETATM    4  O   UNL     1     -41.709  58.339 -54.315  1.00  0.00    -0.248 OA
HETATM    5  H   UNL     1     -44.357  57.064 -53.205  1.00  0.00     0.164 HD
HETATM    6  H   UNL     1     -43.227  55.590 -54.301  1.00  0.00     0.164 HD
ENDROOT
BRANCH   1   7
HETATM    7  C   UNL     1     -44.221  59.176 -53.310  1.00  0.00     0.130 C 
BRANCH   7   8
HETATM    8  C   UNL     1     -44.080  59.479 -51.823  1.00  0.00     0.023 C 
HETATM    9  C   UNL     1     -45.258  60.291 -51.273  1.00  0.00     0.129 C 
HETATM   10  N   UNL     1     -44.708  60.945 -50.086  1.00  0.00    -0.380 N 
HETATM   11  C   UNL     1     -43.250  60.841 -50.054  1.00  0.00     0.123 C 
HETATM   12  C   UNL     1     -42.886  60.355 -51.455  1.00  0.00     0.028 C 
BRANCH  10  13
HETATM   13  C   UNL     1     -45.469  61.403 -49.033  1.00  0.00     0.032 A 
HETATM   14  C   UNL     1     -46.396  62.452 -49.190  1.00  0.00     0.066 A 
HETATM   15  C   UNL     1     -47.183  62.916 -48.127  1.00  0.00     0.070 A 
HETATM   16  C   UNL     1     -47.054  62.327 -46.873  1.00  0.00     0.037 A 
HETATM   17  C   UNL     1     -46.138  61.300 -46.677  1.00  0.00     0.005 A 
HETATM   18  C   UNL     1     -45.354  60.855 -47.745  1.00  0.00     0.029 A 
BRANCH  15  19
HETATM   19  O   UNL     1     -48.107  63.925 -48.188  1.00  0.00    -0.356 OA
HETATM   20  C   UNL     1     -49.022  63.894 -49.274  1.00  0.00     0.210 C 
ENDBRANCH  15  19
ENDBRANCH  10  13
ENDBRANCH   7   8
ENDBRANCH   1   7
BRANCH   3  21
HETATM   21  C   UNL     1     -41.159  55.590 -54.679  1.00  0.00     0.162 C 
BRANCH  21  22
HETATM   22  C   UNL     1     -40.750  54.384 -53.871  1.00  0.00    -0.040 A 
HETATM   23  C   UNL     1     -40.554  53.141 -54.491  1.00  0.00     0.021 A 
HETATM   24  C   UNL     1     -40.194  52.003 -53.748  1.00  0.00    -0.025 A 
HETATM   25  C   UNL     1     -40.023  52.115 -52.350  1.00  0.00    -0.026 A 
HETATM   26  C   UNL     1     -40.006  50.754 -54.364  1.00  0.00     0.012 A 
HETATM   27  C   UNL     1     -40.221  53.360 -51.733  1.00  0.00     0.013 A 
HETATM   28  C   UNL     1     -39.666  50.978 -51.607  1.00  0.00     0.012 A 
HETATM   29  C   UNL     1     -40.586  54.479 -52.484  1.00  0.00     0.010 A 
HETATM   30  C   UNL     1     -39.483  49.745 -52.235  1.00  0.00     0.001 A 
HETATM   31  C   UNL     1     -39.654  49.632 -53.612  1.00  0.00     0.001 A 
ENDBRANCH  21  22
ENDBRANCH   3  21
TORSDOF 6
ENDMDL
MODEL 9
REMARK VINA RESULT:      -8.2      2.090      7.731
REMARK  6 active torsions:
REMARK  status: ('A' for Active; 'I' for Inactive)
REMARK    1  A    between atoms: O_2  and  C_3 
REMARK    2  A    between atoms: C_5  and  N_6 
REMARK    3  A    between atoms: C_8  and  C_9 
REMARK    4  A    between atoms: C_9  and  N_10 
REMARK       I    between atoms: N_10  and  C_11 
REMARK       I    between atoms: C_11  and  N_12 
REMARK    5  A    between atoms: N_12  and  C_13 
REMARK    6  A    between atoms: C_13  and  C_14 
ROOT
HETATM    1  N   UNL     1     -41.584  59.239 -53.942  1.00  0.00    -0.343 N 
HETATM    2  C   UNL     1     -42.494  59.632 -54.887  1.00  0.00     0.316 C 
HETATM    3  N   UNL     1     -41.912  59.773 -56.116  1.00  0.00    -0.339 N 
HETATM    4  O   UNL     1     -43.676  59.846 -54.652  1.00  0.00    -0.248 OA
HETATM    5  H   UNL     1     -40.610  59.355 -54.174  1.00  0.00     0.164 HD
HETATM    6  H   UNL     1     -41.055  59.270 -56.283  1.00  0.00     0.164 HD
ENDROOT
BRANCH   1   7
HETATM    7  C   UNL     1     -41.934  59.128 -52.537  1.00  0.00     0.130 C 
BRANCH   7   8
HETATM    8  C   UNL     1     -42.074  57.676 -52.097  1.00  0.00     0.023 C 
HETATM    9  C   UNL     1     -41.166  56.730 -52.892  1.00  0.00     0.129 C 
HETATM   10  N   UNL     1     -41.818  55.427 -52.760  1.00  0.00    -0.380 N 
HETATM   11  C   UNL     1     -43.173  55.567 -52.226  1.00  0.00     0.123 C 
HETATM   12  C   UNL     1     -43.453  57.064 -52.324  1.00  0.00     0.028 C 
BRANCH  10  13
HETATM   13  C   UNL     1     -41.172  54.221 -52.910  1.00  0.00     0.032 A 
HETATM   14  C   UNL     1     -40.806  53.433 -51.802  1.00  0.00     0.066 A 
HETATM   15  C   UNL     1     -40.159  52.197 -51.947  1.00  0.00     0.070 A 
HETATM   16  C   UNL     1     -39.866  51.725 -53.223  1.00  0.00     0.037 A 
HETATM   17  C   UNL     1     -40.198  52.483 -54.339  1.00  0.00     0.005 A 
HETATM   18  C   UNL     1     -40.835  53.717 -54.177  1.00  0.00     0.029 A 
BRANCH  15  19
HETATM   19  O   UNL     1     -39.769  51.368 -50.930  1.00  0.00    -0.356 OA
HETATM   20  C   UNL     1     -39.486  50.018 -51.274  1.00  0.00     0.210 C 
ENDBRANCH  15  19
ENDBRANCH  10  13
ENDBRANCH   7   8
ENDBRANCH   1   7
BRANCH   3  21
HETATM   21  C   UNL     1     -42.681  60.155 -57.280  1.00  0.00     0.162 C 
BRANCH  21  22
HETATM   22  C   UNL     1     -43.082  58.951 -58.096  1.00  0.00    -0.040 A 
HETATM   23  C   UNL     1     -44.433  58.688 -58.365  1.00  0.00     0.021 A 
HETATM   24  C   UNL     1     -44.824  57.558 -59.105  1.00  0.00    -0.025 A 
HETATM   25  C   UNL     1     -43.835  56.673 -59.590  1.00  0.00    -0.026 A 
HETATM   26  C   UNL     1     -46.177  57.286 -59.368  1.00  0.00     0.012 A 
HETATM   27  C   UNL     1     -42.484  56.939 -59.318  1.00  0.00     0.013 A 
HETATM   28  C   UNL     1     -44.225  55.544 -60.327  1.00  0.00     0.012 A 
HETATM   29  C   UNL     1     -42.113  58.061 -58.574  1.00  0.00     0.010 A 
HETATM   30  C   UNL     1     -45.574  55.288 -60.580  1.00  0.00     0.001 A 
HETATM   31  C   UNL     1     -46.549  56.157 -60.100  1.00  0.00     0.001 A 
ENDBRANCH  21  22
ENDBRANCH   3  21
TORSDOF 6
ENDMDL
MODEL 10
REMARK VINA RESULT:      -8.1      2.832      3.512
REMARK  6 active torsions:
REMARK  status: ('A' for Active; 'I' for Inactive)
REMARK    1  A    between atoms: O_2  and  C_3 
REMARK    2  A    between atoms: C_5  and  N_6 
REMARK    3  A    between atoms: C_8  and  C_9 
REMARK    4  A    between atoms: C_9  and  N_10 
REMARK       I    between atoms: N_10  and  C_11 
REMARK       I    between atoms: C_11  and  N_12 
REMARK    5  A    between atoms: N_12  and  C_13 
REMARK    6  A    between atoms: C_13  and  C_14 
ROOT
HETATM    1  N   UNL     1     -42.270  58.406 -55.352  1.00  0.00    -0.343 N 
HETATM    2  C   UNL     1     -41.495  58.021 -54.290  1.00  0.00     0.316 C 
HETATM    3  N   UNL     1     -41.841  56.776 -53.842  1.00  0.00    -0.339 N 
HETATM    4  O   UNL     1     -40.618  58.715 -53.795  1.00  0.00    -0.248 OA
HETATM    5  H   UNL     1     -43.124  57.890 -55.501  1.00  0.00     0.164 HD
HETATM    6  H   UNL     1     -42.315  56.166 -54.488  1.00  0.00     0.164 HD
ENDROOT
BRANCH   1   7
HETATM    7  C   UNL     1     -42.171  59.732 -55.934  1.00  0.00     0.130 C 
BRANCH   7   8
HETATM    8  C   UNL     1     -42.639  59.754 -57.385  1.00  0.00     0.023 C 
HETATM    9  C   UNL     1     -44.118  59.378 -57.532  1.00  0.00     0.129 C 
HETATM   10  N   UNL     1     -44.222  58.907 -58.913  1.00  0.00    -0.380 N 
HETATM   11  C   UNL     1     -42.899  58.681 -59.495  1.00  0.00     0.123 C 
HETATM   12  C   UNL     1     -41.956  58.738 -58.296  1.00  0.00     0.028 C 
BRANCH  10  13
HETATM   13  C   UNL     1     -45.394  58.887 -59.636  1.00  0.00     0.032 A 
HETATM   14  C   UNL     1     -45.916  57.692 -60.169  1.00  0.00     0.066 A 
HETATM   15  C   UNL     1     -47.115  57.662 -60.896  1.00  0.00     0.070 A 
HETATM   16  C   UNL     1     -47.820  58.844 -61.101  1.00  0.00     0.037 A 
HETATM   17  C   UNL     1     -47.326  60.044 -60.604  1.00  0.00     0.005 A 
HETATM   18  C   UNL     1     -46.125  60.059 -59.889  1.00  0.00     0.029 A 
BRANCH  15  19
HETATM   19  O   UNL     1     -47.696  56.551 -61.446  1.00  0.00    -0.356 OA
HETATM   20  C   UNL     1     -48.785  56.766 -62.332  1.00  0.00     0.210 C 
ENDBRANCH  15  19
ENDBRANCH  10  13
ENDBRANCH   7   8
ENDBRANCH   1   7
BRANCH   3  21
HETATM   21  C   UNL     1     -41.143  56.145 -52.743  1.00  0.00     0.162 C 
BRANCH  21  22
HETATM   22  C   UNL     1     -40.807  54.708 -53.055  1.00  0.00    -0.040 A 
HETATM   23  C   UNL     1     -40.527  53.799 -52.024  1.00  0.00     0.021 A 
HETATM   24  C   UNL     1     -40.190  52.462 -52.300  1.00  0.00    -0.025 A 
HETATM   25  C   UNL     1     -40.138  52.025 -53.643  1.00  0.00    -0.026 A 
HETATM   26  C   UNL     1     -39.899  51.551 -51.271  1.00  0.00     0.012 A 
HETATM   27  C   UNL     1     -40.417  52.938 -54.672  1.00  0.00     0.013 A 
HETATM   28  C   UNL     1     -39.799  50.691 -53.919  1.00  0.00     0.012 A 
HETATM   29  C   UNL     1     -40.741  54.265 -54.382  1.00  0.00     0.010 A 
HETATM   30  C   UNL     1     -39.513  49.799 -52.885  1.00  0.00     0.001 A 
HETATM   31  C   UNL     1     -39.562  50.228 -51.562  1.00  0.00     0.001 A 
ENDBRANCH  21  22
ENDBRANCH   3  21
TORSDOF 6
ENDMDL
