MODEL 1
REMARK VINA RESULT:      -9.0      0.000      0.000
REMARK  2 active torsions:
REMARK  status: ('A' for Active; 'I' for Inactive)
REMARK       I    between atoms: N_8  and  C_9 
REMARK    1  A    between atoms: C_9  and  C_10 
REMARK    2  A    between atoms: N_12  and  C_13 
ROOT
HETATM    1  C   UNL     1     -42.816  56.807 -52.368  1.00  0.00     0.021 C 
HETATM    2  C   UNL     1     -43.262  55.371 -52.114  1.00  0.00     0.087 C 
HETATM    3  C   UNL     1     -42.633  54.792 -50.858  1.00  0.00     0.207 C 
HETATM    4  O   UNL     1     -43.304  54.374 -49.920  1.00  0.00    -0.279 OA
HETATM    5  N   UNL     1     -41.252  54.688 -50.918  1.00  0.00    -0.227 NA
HETATM    6  C   UNL     1     -40.805  53.469 -51.493  1.00  0.00     0.042 A 
HETATM    7  C   UNL     1     -40.853  53.292 -52.891  1.00  0.00     0.059 A 
HETATM    8  N   UNL     1     -41.610  54.211 -53.715  1.00  0.00    -0.309 N 
HETATM    9  C   UNL     1     -41.130  54.561 -55.007  1.00  0.00     0.298 C 
HETATM   10  O   UNL     1     -40.029  54.182 -55.414  1.00  0.00    -0.264 OA
HETATM   11  C   UNL     1     -43.022  54.393 -53.277  1.00  0.00     0.145 C 
HETATM   12  C   UNL     1     -40.199  52.534 -50.655  1.00  0.00     0.026 A 
HETATM   13  C   UNL     1     -39.606  51.403 -51.210  1.00  0.00     0.002 A 
HETATM   14  C   UNL     1     -39.611  51.223 -52.593  1.00  0.00     0.002 A 
HETATM   15  C   UNL     1     -40.230  52.160 -53.430  1.00  0.00     0.031 A 
HETATM   16  H   UNL     1     -40.902  55.431 -51.516  1.00  0.00     0.136 HD
ENDROOT
BRANCH   9  17
HETATM   17  C   UNL     1     -41.949  55.469 -55.859  1.00  0.00     0.239 A 
HETATM   18  N   UNL     1     -42.702  55.021 -56.882  1.00  0.00    -0.140 NA
HETATM   19  N   UNL     1     -43.213  56.151 -57.422  1.00  0.00    -0.225 N 
HETATM   20  C   UNL     1     -42.757  57.232 -56.714  1.00  0.00     0.237 A 
HETATM   21  N   UNL     1     -41.965  56.845 -55.745  1.00  0.00    -0.216 NA
BRANCH  19  22
HETATM   22  C   UNL     1     -44.075  56.131 -58.549  1.00  0.00     0.059 A 
HETATM   23  C   UNL     1     -44.064  55.021 -59.407  1.00  0.00     0.031 A 
HETATM   24  C   UNL     1     -44.902  54.990 -60.523  1.00  0.00     0.002 A 
HETATM   25  C   UNL     1     -45.754  56.060 -60.789  1.00  0.00     0.000 A 
HETATM   26  C   UNL     1     -45.772  57.164 -59.939  1.00  0.00     0.002 A 
HETATM   27  C   UNL     1     -44.935  57.205 -58.821  1.00  0.00     0.031 A 
ENDBRANCH  19  22
ENDBRANCH   9  17
TORSDOF 2
ENDMDL
MODEL 2
REMARK VINA RESULT:      -8.8      3.570      6.962
REMARK  2 active torsions:
REMARK  status: ('A' for Active; 'I' for Inactive)
REMARK       I    between atoms: N_8  and  C_9 
REMARK    1  A    between atoms: C_9  and  C_10 
REMARK    2  A    between atoms: N_12  and  C_13 
ROOT
HETATM    1  C   UNL     1     -40.972  56.458 -50.702  1.00  0.00     0.021 C 
HETATM    2  C   UNL     1     -40.875  57.814 -51.394  1.00  0.00     0.087 C 
HETATM    3  C   UNL     1     -41.688  58.879 -50.679  1.00  0.00     0.207 C 
HETATM    4  O   UNL     1     -41.182  59.907 -50.240  1.00  0.00    -0.279 OA
HETATM    5  N   UNL     1     -43.051  58.629 -50.663  1.00  0.00    -0.227 NA
HETATM    6  C   UNL     1     -43.728  59.130 -51.807  1.00  0.00     0.042 A 
HETATM    7  C   UNL     1     -43.641  58.439 -53.034  1.00  0.00     0.059 A 
HETATM    8  N   UNL     1     -42.651  57.398 -53.214  1.00  0.00    -0.309 N 
HETATM    9  C   UNL     1     -42.967  56.251 -53.993  1.00  0.00     0.298 C 
HETATM   10  O   UNL     1     -44.100  56.065 -54.444  1.00  0.00    -0.264 OA
HETATM   11  C   UNL     1     -41.262  57.820 -52.883  1.00  0.00     0.145 C 
HETATM   12  C   UNL     1     -44.575  60.225 -51.640  1.00  0.00     0.026 A 
HETATM   13  C   UNL     1     -45.373  60.639 -52.702  1.00  0.00     0.002 A 
HETATM   14  C   UNL     1     -45.330  59.949 -53.914  1.00  0.00     0.002 A 
HETATM   15  C   UNL     1     -44.471  58.857 -54.081  1.00  0.00     0.031 A 
HETATM   16  H   UNL     1     -43.191  57.623 -50.667  1.00  0.00     0.136 HD
ENDROOT
BRANCH   9  17
HETATM   17  C   UNL     1     -41.918  55.214 -54.208  1.00  0.00     0.239 A 
HETATM   18  N   UNL     1     -41.867  54.075 -53.491  1.00  0.00    -0.140 NA
HETATM   19  N   UNL     1     -40.750  53.462 -53.945  1.00  0.00    -0.225 N 
HETATM   20  C   UNL     1     -40.171  54.241 -54.912  1.00  0.00     0.237 A 
HETATM   21  N   UNL     1     -40.865  55.338 -55.092  1.00  0.00    -0.216 NA
BRANCH  19  22
HETATM   22  C   UNL     1     -40.313  52.208 -53.441  1.00  0.00     0.059 A 
HETATM   23  C   UNL     1     -40.270  51.098 -54.298  1.00  0.00     0.031 A 
HETATM   24  C   UNL     1     -39.850  49.857 -53.815  1.00  0.00     0.002 A 
HETATM   25  C   UNL     1     -39.470  49.716 -52.482  1.00  0.00     0.000 A 
HETATM   26  C   UNL     1     -39.508  50.816 -51.627  1.00  0.00     0.002 A 
HETATM   27  C   UNL     1     -39.930  52.061 -52.100  1.00  0.00     0.031 A 
ENDBRANCH  19  22
ENDBRANCH   9  17
TORSDOF 2
ENDMDL
MODEL 3
REMARK VINA RESULT:      -8.6      3.716      5.458
REMARK  2 active torsions:
REMARK  status: ('A' for Active; 'I' for Inactive)
REMARK       I    between atoms: N_8  and  C_9 
REMARK    1  A    between atoms: C_9  and  C_10 
REMARK    2  A    between atoms: N_12  and  C_13 
ROOT
HETATM    1  C   UNL     1     -41.085  55.999 -49.957  1.00  0.00     0.021 C 
HETATM    2  C   UNL     1     -41.676  54.596 -50.044  1.00  0.00     0.087 C 
HETATM    3  C   UNL     1     -40.621  53.520 -49.858  1.00  0.00     0.207 C 
HETATM    4  O   UNL     1     -40.688  52.681 -48.965  1.00  0.00    -0.279 OA
HETATM    5  N   UNL     1     -39.646  53.513 -50.843  1.00  0.00    -0.227 NA
HETATM    6  C   UNL     1     -39.995  52.729 -51.974  1.00  0.00     0.042 A 
HETATM    7  C   UNL     1     -40.912  53.231 -52.921  1.00  0.00     0.059 A 
HETATM    8  N   UNL     1     -41.712  54.397 -52.612  1.00  0.00    -0.309 N 
HETATM    9  C   UNL     1     -42.018  55.335 -53.636  1.00  0.00     0.298 C 
HETATM   10  O   UNL     1     -41.537  55.238 -54.769  1.00  0.00    -0.264 OA
HETATM   11  C   UNL     1     -42.463  54.293 -51.331  1.00  0.00     0.145 C 
HETATM   12  C   UNL     1     -39.306  51.534 -52.181  1.00  0.00     0.026 A 
HETATM   13  C   UNL     1     -39.509  50.824 -53.361  1.00  0.00     0.002 A 
HETATM   14  C   UNL     1     -40.386  51.319 -54.327  1.00  0.00     0.002 A 
HETATM   15  C   UNL     1     -41.083  52.513 -54.111  1.00  0.00     0.031 A 
HETATM   16  H   UNL     1     -39.527  54.464 -51.181  1.00  0.00     0.136 HD
ENDROOT
BRANCH   9  17
HETATM   17  C   UNL     1     -42.884  56.504 -53.310  1.00  0.00     0.239 A 
HETATM   18  N   UNL     1     -42.440  57.559 -52.601  1.00  0.00    -0.140 NA
HETATM   19  N   UNL     1     -43.536  58.342 -52.474  1.00  0.00    -0.225 N 
HETATM   20  C   UNL     1     -44.593  57.740 -53.105  1.00  0.00     0.237 A 
HETATM   21  N   UNL     1     -44.224  56.595 -53.626  1.00  0.00    -0.216 NA
BRANCH  19  22
HETATM   22  C   UNL     1     -43.510  59.578 -51.777  1.00  0.00     0.059 A 
HETATM   23  C   UNL     1     -44.610  60.444 -51.867  1.00  0.00     0.031 A 
HETATM   24  C   UNL     1     -44.596  61.666 -51.193  1.00  0.00     0.002 A 
HETATM   25  C   UNL     1     -43.492  62.030 -50.425  1.00  0.00     0.000 A 
HETATM   26  C   UNL     1     -42.398  61.173 -50.329  1.00  0.00     0.002 A 
HETATM   27  C   UNL     1     -42.401  59.949 -51.002  1.00  0.00     0.031 A 
ENDBRANCH  19  22
ENDBRANCH   9  17
TORSDOF 2
ENDMDL
MODEL 4
REMARK VINA RESULT:      -8.6      2.895      7.309
REMARK  2 active torsions:
REMARK  status: ('A' for Active; 'I' for Inactive)
REMARK       I    between atoms: N_8  and  C_9 
REMARK    1  A    between atoms: C_9  and  C_10 
REMARK    2  A    between atoms: N_12  and  C_13 
ROOT
HETATM    1  C   UNL     1     -42.589  57.389 -56.286  1.00  0.00     0.021 C 
HETATM    2  C   UNL     1     -43.999  57.119 -55.772  1.00  0.00     0.087 C 
HETATM    3  C   UNL     1     -44.827  58.390 -55.684  1.00  0.00     0.207 C 
HETATM    4  O   UNL     1     -45.883  58.529 -56.293  1.00  0.00    -0.279 OA
HETATM    5  N   UNL     1     -44.335  59.319 -54.781  1.00  0.00    -0.227 NA
HETATM    6  C   UNL     1     -44.813  59.125 -53.458  1.00  0.00     0.042 A 
HETATM    7  C   UNL     1     -44.269  58.098 -52.658  1.00  0.00     0.059 A 
HETATM    8  N   UNL     1     -43.445  57.069 -53.256  1.00  0.00    -0.309 N 
HETATM    9  C   UNL     1     -42.340  56.541 -52.534  1.00  0.00     0.298 C 
HETATM   10  O   UNL     1     -41.996  57.004 -51.443  1.00  0.00    -0.264 OA
HETATM   11  C   UNL     1     -44.078  56.389 -54.420  1.00  0.00     0.145 C 
HETATM   12  C   UNL     1     -45.716  60.055 -52.944  1.00  0.00     0.026 A 
HETATM   13  C   UNL     1     -46.078  59.986 -51.602  1.00  0.00     0.002 A 
HETATM   14  C   UNL     1     -45.527  59.000 -50.783  1.00  0.00     0.002 A 
HETATM   15  C   UNL     1     -44.628  58.062 -51.305  1.00  0.00     0.031 A 
HETATM   16  H   UNL     1     -43.325  59.218 -54.738  1.00  0.00     0.136 HD
ENDROOT
BRANCH   9  17
HETATM   17  C   UNL     1     -41.534  55.447 -53.147  1.00  0.00     0.239 A 
HETATM   18  N   UNL     1     -41.484  54.205 -52.628  1.00  0.00    -0.140 NA
HETATM   19  N   UNL     1     -40.606  53.559 -53.430  1.00  0.00    -0.225 N 
HETATM   20  C   UNL     1     -40.162  54.422 -54.396  1.00  0.00     0.237 A 
HETATM   21  N   UNL     1     -40.711  55.603 -54.244  1.00  0.00    -0.216 NA
BRANCH  19  22
HETATM   22  C   UNL     1     -40.252  52.200 -53.228  1.00  0.00     0.059 A 
HETATM   23  C   UNL     1     -39.898  51.762 -51.943  1.00  0.00     0.031 A 
HETATM   24  C   UNL     1     -39.540  50.429 -51.731  1.00  0.00     0.002 A 
HETATM   25  C   UNL     1     -39.537  49.527 -52.793  1.00  0.00     0.000 A 
HETATM   26  C   UNL     1     -39.891  49.955 -54.071  1.00  0.00     0.002 A 
HETATM   27  C   UNL     1     -40.247  51.287 -54.294  1.00  0.00     0.031 A 
ENDBRANCH  19  22
ENDBRANCH   9  17
TORSDOF 2
ENDMDL
MODEL 5
REMARK VINA RESULT:      -8.5      1.393      1.974
REMARK  2 active torsions:
REMARK  status: ('A' for Active; 'I' for Inactive)
REMARK       I    between atoms: N_8  and  C_9 
REMARK    1  A    between atoms: C_9  and  C_10 
REMARK    2  A    between atoms: N_12  and  C_13 
ROOT
HETATM    1  C   UNL     1     -43.936  58.374 -53.099  1.00  0.00     0.021 C 
HETATM    2  C   UNL     1     -44.321  56.981 -52.612  1.00  0.00     0.087 C 
HETATM    3  C   UNL     1     -43.951  56.763 -51.155  1.00  0.00     0.207 C 
HETATM    4  O   UNL     1     -44.784  56.475 -50.302  1.00  0.00    -0.279 OA
HETATM    5  N   UNL     1     -42.589  56.819 -50.907  1.00  0.00    -0.227 NA
HETATM    6  C   UNL     1     -41.935  55.570 -51.077  1.00  0.00     0.042 A 
HETATM    7  C   UNL     1     -41.653  55.096 -52.375  1.00  0.00     0.059 A 
HETATM    8  N   UNL     1     -42.270  55.718 -53.527  1.00  0.00    -0.309 N 
HETATM    9  C   UNL     1     -41.538  55.843 -54.740  1.00  0.00     0.298 C 
HETATM   10  O   UNL     1     -40.348  55.524 -54.815  1.00  0.00    -0.264 OA
HETATM   11  C   UNL     1     -43.753  55.815 -53.440  1.00  0.00     0.145 C 
HETATM   12  C   UNL     1     -41.466  54.915 -49.939  1.00  0.00     0.026 A 
HETATM   13  C   UNL     1     -40.683  53.774 -50.081  1.00  0.00     0.002 A 
HETATM   14  C   UNL     1     -40.362  53.305 -51.356  1.00  0.00     0.002 A 
HETATM   15  C   UNL     1     -40.843  53.960 -52.496  1.00  0.00     0.031 A 
HETATM   16  H   UNL     1     -42.168  57.455 -51.578  1.00  0.00     0.136 HD
ENDROOT
BRANCH   9  17
HETATM   17  C   UNL     1     -42.207  56.442 -55.929  1.00  0.00     0.239 A 
HETATM   18  N   UNL     1     -42.954  55.716 -56.784  1.00  0.00    -0.140 NA
HETATM   19  N   UNL     1     -43.308  56.609 -57.736  1.00  0.00    -0.225 N 
HETATM   20  C   UNL     1     -42.772  57.831 -57.427  1.00  0.00     0.237 A 
HETATM   21  N   UNL     1     -42.077  57.760 -56.318  1.00  0.00    -0.216 NA
BRANCH  19  22
HETATM   22  C   UNL     1     -44.110  56.251 -58.851  1.00  0.00     0.059 A 
HETATM   23  C   UNL     1     -45.094  57.143 -59.307  1.00  0.00     0.031 A 
HETATM   24  C   UNL     1     -45.896  56.802 -60.398  1.00  0.00     0.002 A 
HETATM   25  C   UNL     1     -45.721  55.578 -61.041  1.00  0.00     0.000 A 
HETATM   26  C   UNL     1     -44.744  54.690 -60.594  1.00  0.00     0.002 A 
HETATM   27  C   UNL     1     -43.939  55.021 -59.501  1.00  0.00     0.031 A 
ENDBRANCH  19  22
ENDBRANCH   9  17
TORSDOF 2
ENDMDL
MODEL 6
REMARK VINA RESULT:      -8.3     14.519     16.389
REMARK  2 active torsions:
REMARK  status: ('A' for Active; 'I' for Inactive)
REMARK       I    between atoms: N_8  and  C_9 
REMARK    1  A    between atoms: C_9  and  C_10 
REMARK    2  A    between atoms: N_12  and  C_13 
ROOT
HETATM    1  C   UNL     1     -33.882  38.992 -56.974  1.00  0.00     0.021 C 
HETATM    2  C   UNL     1     -33.225  40.197 -56.309  1.00  0.00     0.087 C 
HETATM    3  C   UNL     1     -32.435  39.805 -55.072  1.00  0.00     0.207 C 
HETATM    4  O   UNL     1     -31.235  40.032 -54.960  1.00  0.00    -0.279 OA
HETATM    5  N   UNL     1     -33.211  39.270 -54.056  1.00  0.00    -0.227 NA
HETATM    6  C   UNL     1     -33.753  40.252 -53.185  1.00  0.00     0.042 A 
HETATM    7  C   UNL     1     -34.864  41.018 -53.595  1.00  0.00     0.059 A 
HETATM    8  N   UNL     1     -35.275  41.020 -54.983  1.00  0.00    -0.309 N 
HETATM    9  C   UNL     1     -36.656  41.087 -55.310  1.00  0.00     0.298 C 
HETATM   10  O   UNL     1     -37.532  41.045 -54.441  1.00  0.00    -0.264 OA
HETATM   11  C   UNL     1     -34.179  41.345 -55.937  1.00  0.00     0.145 C 
HETATM   12  C   UNL     1     -33.247  40.327 -51.888  1.00  0.00     0.026 A 
HETATM   13  C   UNL     1     -33.863  41.165 -50.963  1.00  0.00     0.002 A 
HETATM   14  C   UNL     1     -34.984  41.907 -51.335  1.00  0.00     0.002 A 
HETATM   15  C   UNL     1     -35.483  41.835 -52.642  1.00  0.00     0.031 A 
HETATM   16  H   UNL     1     -34.003  38.793 -54.477  1.00  0.00     0.136 HD
ENDROOT
BRANCH   9  17
HETATM   17  C   UNL     1     -37.057  41.138 -56.745  1.00  0.00     0.239 A 
HETATM   18  N   UNL     1     -37.390  40.036 -57.444  1.00  0.00    -0.140 NA
HETATM   19  N   UNL     1     -37.613  40.506 -58.693  1.00  0.00    -0.225 N 
HETATM   20  C   UNL     1     -37.412  41.861 -58.706  1.00  0.00     0.237 A 
HETATM   21  N   UNL     1     -37.057  42.283 -57.516  1.00  0.00    -0.216 NA
BRANCH  19  22
HETATM   22  C   UNL     1     -37.990  39.658 -59.767  1.00  0.00     0.059 A 
HETATM   23  C   UNL     1     -37.238  39.669 -60.952  1.00  0.00     0.031 A 
HETATM   24  C   UNL     1     -37.601  38.846 -62.020  1.00  0.00     0.002 A 
HETATM   25  C   UNL     1     -38.709  38.009 -61.914  1.00  0.00     0.000 A 
HETATM   26  C   UNL     1     -39.458  37.991 -60.739  1.00  0.00     0.002 A 
HETATM   27  C   UNL     1     -39.105  38.813 -59.666  1.00  0.00     0.031 A 
ENDBRANCH  19  22
ENDBRANCH   9  17
TORSDOF 2
ENDMDL
MODEL 7
REMARK VINA RESULT:      -8.3      1.948      3.366
REMARK  2 active torsions:
REMARK  status: ('A' for Active; 'I' for Inactive)
REMARK       I    between atoms: N_8  and  C_9 
REMARK    1  A    between atoms: C_9  and  C_10 
REMARK    2  A    between atoms: N_12  and  C_13 
ROOT
HETATM    1  C   UNL     1     -43.031  53.903 -55.487  1.00  0.00     0.021 C 
HETATM    2  C   UNL     1     -41.647  54.125 -54.885  1.00  0.00     0.087 C 
HETATM    3  C   UNL     1     -41.518  53.504 -53.505  1.00  0.00     0.207 C 
HETATM    4  O   UNL     1     -40.673  52.653 -53.244  1.00  0.00    -0.279 OA
HETATM    5  N   UNL     1     -42.366  54.057 -52.559  1.00  0.00    -0.227 NA
HETATM    6  C   UNL     1     -41.815  55.192 -51.907  1.00  0.00     0.042 A 
HETATM    7  C   UNL     1     -41.784  56.437 -52.570  1.00  0.00     0.059 A 
HETATM    8  N   UNL     1     -42.038  56.510 -53.993  1.00  0.00    -0.309 N 
HETATM    9  C   UNL     1     -42.740  57.625 -54.529  1.00  0.00     0.298 C 
HETATM   10  O   UNL     1     -43.230  58.493 -53.802  1.00  0.00    -0.264 OA
HETATM   11  C   UNL     1     -41.193  55.593 -54.806  1.00  0.00     0.145 C 
HETATM   12  C   UNL     1     -41.447  55.064 -50.568  1.00  0.00     0.026 A 
HETATM   13  C   UNL     1     -41.056  56.194 -49.856  1.00  0.00     0.002 A 
HETATM   14  C   UNL     1     -41.051  57.442 -50.481  1.00  0.00     0.002 A 
HETATM   15  C   UNL     1     -41.412  57.564 -51.828  1.00  0.00     0.031 A 
HETATM   16  H   UNL     1     -43.205  54.379 -53.031  1.00  0.00     0.136 HD
ENDROOT
BRANCH   9  17
HETATM   17  C   UNL     1     -42.948  57.706 -56.003  1.00  0.00     0.239 A 
HETATM   18  N   UNL     1     -43.927  57.031 -56.635  1.00  0.00    -0.140 NA
HETATM   19  N   UNL     1     -43.723  57.322 -57.940  1.00  0.00    -0.225 N 
HETATM   20  C   UNL     1     -42.642  58.156 -58.051  1.00  0.00     0.237 A 
HETATM   21  N   UNL     1     -42.133  58.406 -56.869  1.00  0.00    -0.216 NA
BRANCH  19  22
HETATM   22  C   UNL     1     -44.546  56.800 -58.972  1.00  0.00     0.059 A 
HETATM   23  C   UNL     1     -45.858  57.278 -59.116  1.00  0.00     0.031 A 
HETATM   24  C   UNL     1     -46.682  56.768 -60.122  1.00  0.00     0.002 A 
HETATM   25  C   UNL     1     -46.206  55.786 -60.987  1.00  0.00     0.000 A 
HETATM   26  C   UNL     1     -44.903  55.310 -60.851  1.00  0.00     0.002 A 
HETATM   27  C   UNL     1     -44.072  55.811 -59.846  1.00  0.00     0.031 A 
ENDBRANCH  19  22
ENDBRANCH   9  17
TORSDOF 2
ENDMDL
MODEL 8
REMARK VINA RESULT:      -8.0      1.771      3.176
REMARK  2 active torsions:
REMARK  status: ('A' for Active; 'I' for Inactive)
REMARK       I    between atoms: N_8  and  C_9 
REMARK    1  A    between atoms: C_9  and  C_10 
REMARK    2  A    between atoms: N_12  and  C_13 
ROOT
HETATM    1  C   UNL     1     -42.075  53.616 -55.334  1.00  0.00     0.021 C 
HETATM    2  C   UNL     1     -40.800  53.924 -54.556  1.00  0.00     0.087 C 
HETATM    3  C   UNL     1     -40.628  53.008 -53.357  1.00  0.00     0.207 C 
HETATM    4  O   UNL     1     -39.647  52.286 -53.217  1.00  0.00    -0.279 OA
HETATM    5  N   UNL     1     -41.622  53.143 -52.400  1.00  0.00    -0.227 NA
HETATM    6  C   UNL     1     -41.348  54.156 -51.444  1.00  0.00     0.042 A 
HETATM    7  C   UNL     1     -41.529  55.513 -51.786  1.00  0.00     0.059 A 
HETATM    8  N   UNL     1     -41.711  55.896 -53.170  1.00  0.00    -0.309 N 
HETATM    9  C   UNL     1     -42.589  56.965 -53.498  1.00  0.00     0.298 C 
HETATM   10  O   UNL     1     -43.285  57.519 -52.641  1.00  0.00    -0.264 OA
HETATM   11  C   UNL     1     -40.654  55.381 -54.084  1.00  0.00     0.145 C 
HETATM   12  C   UNL     1     -41.038  53.763 -50.143  1.00  0.00     0.026 A 
HETATM   13  C   UNL     1     -40.923  54.728 -49.147  1.00  0.00     0.002 A 
HETATM   14  C   UNL     1     -41.131  56.073 -49.454  1.00  0.00     0.002 A 
HETATM   15  C   UNL     1     -41.433  56.464 -50.764  1.00  0.00     0.031 A 
HETATM   16  H   UNL     1     -42.481  53.417 -52.868  1.00  0.00     0.136 HD
ENDROOT
BRANCH   9  17
HETATM   17  C   UNL     1     -42.725  57.377 -54.924  1.00  0.00     0.239 A 
HETATM   18  N   UNL     1     -43.351  56.616 -55.842  1.00  0.00    -0.140 NA
HETATM   19  N   UNL     1     -43.191  57.308 -56.993  1.00  0.00    -0.225 N 
HETATM   20  C   UNL     1     -42.484  58.453 -56.734  1.00  0.00     0.237 A 
HETATM   21  N   UNL     1     -42.172  58.521 -55.462  1.00  0.00    -0.216 NA
BRANCH  19  22
HETATM   22  C   UNL     1     -43.705  56.848 -58.233  1.00  0.00     0.059 A 
HETATM   23  C   UNL     1     -44.411  57.736 -59.059  1.00  0.00     0.031 A 
HETATM   24  C   UNL     1     -44.929  57.296 -60.279  1.00  0.00     0.002 A 
HETATM   25  C   UNL     1     -44.744  55.975 -60.683  1.00  0.00     0.000 A 
HETATM   26  C   UNL     1     -44.041  55.090 -59.868  1.00  0.00     0.002 A 
HETATM   27  C   UNL     1     -43.522  55.520 -58.645  1.00  0.00     0.031 A 
ENDBRANCH  19  22
ENDBRANCH   9  17
TORSDOF 2
ENDMDL
MODEL 9
REMARK VINA RESULT:      -8.0     15.688     19.846
REMARK  2 active torsions:
REMARK  status: ('A' for Active; 'I' for Inactive)
REMARK       I    between atoms: N_8  and  C_9 
REMARK    1  A    between atoms: C_9  and  C_10 
REMARK    2  A    between atoms: N_12  and  C_13 
ROOT
HETATM    1  C   UNL     1     -35.834  40.373 -50.673  1.00  0.00     0.021 C 
HETATM    2  C   UNL     1     -34.957  41.413 -51.363  1.00  0.00     0.087 C 
HETATM    3  C   UNL     1     -35.397  41.673 -52.793  1.00  0.00     0.207 C 
HETATM    4  O   UNL     1     -35.729  42.786 -53.187  1.00  0.00    -0.279 OA
HETATM    5  N   UNL     1     -35.289  40.568 -53.624  1.00  0.00    -0.227 NA
HETATM    6  C   UNL     1     -34.009  40.441 -54.226  1.00  0.00     0.042 A 
HETATM    7  C   UNL     1     -32.924  39.949 -53.472  1.00  0.00     0.059 A 
HETATM    8  N   UNL     1     -33.026  39.845 -52.032  1.00  0.00    -0.309 N 
HETATM    9  C   UNL     1     -32.401  38.761 -51.356  1.00  0.00     0.298 C 
HETATM   10  O   UNL     1     -31.853  37.842 -51.971  1.00  0.00    -0.264 OA
HETATM   11  C   UNL     1     -33.450  41.106 -51.363  1.00  0.00     0.145 C 
HETATM   12  C   UNL     1     -33.903  40.680 -55.595  1.00  0.00     0.026 A 
HETATM   13  C   UNL     1     -32.702  40.409 -56.245  1.00  0.00     0.002 A 
HETATM   14  C   UNL     1     -31.625  39.890 -55.526  1.00  0.00     0.002 A 
HETATM   15  C   UNL     1     -31.733  39.660 -54.149  1.00  0.00     0.031 A 
HETATM   16  H   UNL     1     -35.424  39.732 -53.062  1.00  0.00     0.136 HD
ENDROOT
BRANCH   9  17
HETATM   17  C   UNL     1     -32.476  38.698 -49.868  1.00  0.00     0.239 A 
HETATM   18  N   UNL     1     -31.550  39.266 -49.071  1.00  0.00    -0.140 NA
HETATM   19  N   UNL     1     -31.948  38.922 -47.825  1.00  0.00    -0.225 N 
HETATM   20  C   UNL     1     -33.090  38.168 -47.910  1.00  0.00     0.237 A 
HETATM   21  N   UNL     1     -33.438  38.004 -49.163  1.00  0.00    -0.216 NA
BRANCH  19  22
HETATM   22  C   UNL     1     -31.235  39.318 -46.664  1.00  0.00     0.059 A 
HETATM   23  C   UNL     1     -31.417  38.608 -45.467  1.00  0.00     0.031 A 
HETATM   24  C   UNL     1     -30.727  38.991 -44.314  1.00  0.00     0.002 A 
HETATM   25  C   UNL     1     -29.855  40.077 -44.348  1.00  0.00     0.000 A 
HETATM   26  C   UNL     1     -29.669  40.784 -45.534  1.00  0.00     0.002 A 
HETATM   27  C   UNL     1     -30.356  40.411 -46.691  1.00  0.00     0.031 A 
ENDBRANCH  19  22
ENDBRANCH   9  17
TORSDOF 2
ENDMDL
MODEL 10
REMARK VINA RESULT:      -7.9      2.069      2.949
REMARK  2 active torsions:
REMARK  status: ('A' for Active; 'I' for Inactive)
REMARK       I    between atoms: N_8  and  C_9 
REMARK    1  A    between atoms: C_9  and  C_10 
REMARK    2  A    between atoms: N_12  and  C_13 
ROOT
HETATM    1  C   UNL     1     -43.947  58.429 -53.624  1.00  0.00     0.021 C 
HETATM    2  C   UNL     1     -44.333  57.157 -52.875  1.00  0.00     0.087 C 
HETATM    3  C   UNL     1     -44.037  57.258 -51.389  1.00  0.00     0.207 C 
HETATM    4  O   UNL     1     -44.909  57.131 -50.535  1.00  0.00    -0.279 OA
HETATM    5  N   UNL     1     -42.691  57.403 -51.092  1.00  0.00    -0.227 NA
HETATM    6  C   UNL     1     -42.008  56.165 -50.965  1.00  0.00     0.042 A 
HETATM    7  C   UNL     1     -41.649  55.438 -52.120  1.00  0.00     0.059 A 
HETATM    8  N   UNL     1     -42.214  55.790 -53.405  1.00  0.00    -0.309 N 
HETATM    9  C   UNL     1     -41.421  55.680 -54.580  1.00  0.00     0.298 C 
HETATM   10  O   UNL     1     -40.223  55.385 -54.529  1.00  0.00    -0.264 OA
HETATM   11  C   UNL     1     -43.702  55.861 -53.412  1.00  0.00     0.145 C 
HETATM   12  C   UNL     1     -41.589  55.775 -49.694  1.00  0.00     0.026 A 
HETATM   13  C   UNL     1     -40.779  54.651 -49.556  1.00  0.00     0.002 A 
HETATM   14  C   UNL     1     -40.384  53.937 -50.687  1.00  0.00     0.002 A 
HETATM   15  C   UNL     1     -40.814  54.326 -51.961  1.00  0.00     0.031 A 
HETATM   16  H   UNL     1     -42.246  57.897 -51.860  1.00  0.00     0.136 HD
ENDROOT
BRANCH   9  17
HETATM   17  C   UNL     1     -42.036  55.999 -55.900  1.00  0.00     0.239 A 
HETATM   18  N   UNL     1     -41.979  57.227 -56.448  1.00  0.00    -0.140 NA
HETATM   19  N   UNL     1     -42.704  57.104 -57.584  1.00  0.00    -0.225 N 
HETATM   20  C   UNL     1     -43.168  55.819 -57.683  1.00  0.00     0.237 A 
HETATM   21  N   UNL     1     -42.779  55.110 -56.650  1.00  0.00    -0.216 NA
BRANCH  19  22
HETATM   22  C   UNL     1     -42.907  58.188 -58.477  1.00  0.00     0.059 A 
HETATM   23  C   UNL     1     -42.130  59.349 -58.340  1.00  0.00     0.031 A 
HETATM   24  C   UNL     1     -42.323  60.427 -59.207  1.00  0.00     0.002 A 
HETATM   25  C   UNL     1     -43.286  60.354 -60.211  1.00  0.00     0.000 A 
HETATM   26  C   UNL     1     -44.059  59.203 -60.353  1.00  0.00     0.002 A 
HETATM   27  C   UNL     1     -43.875  58.121 -59.490  1.00  0.00     0.031 A 
ENDBRANCH  19  22
ENDBRANCH   9  17
TORSDOF 2
ENDMDL
