MODEL 1
REMARK VINA RESULT:      -8.2      0.000      0.000
REMARK  9 active torsions:
REMARK  status: ('A' for Active; 'I' for Inactive)
REMARK    1  A    between atoms: C_5  and  N_6 
REMARK       I    between atoms: N_6  and  C_7 
REMARK    2  A    between atoms: C_7  and  C_8 
REMARK    3  A    between atoms: C_8  and  S_9 
REMARK    4  A    between atoms: S_9  and  C_10 
REMARK    5  A    between atoms: C_11  and  C_12 
REMARK       I    between atoms: C_12  and  N_13 
REMARK    6  A    between atoms: N_13  and  C_14 
REMARK    7  A    between atoms: C_14  and  C_15 
REMARK    8  A    between atoms: C_15  and  N_16 
REMARK    9  A    between atoms: C_15  and  C_22 
ROOT
HETATM    1  C   UNL     1     -42.057  59.746 -51.899  1.00  0.00     0.016 A 
HETATM    2  C   UNL     1     -41.267  59.219 -52.953  1.00  0.00     0.048 A 
HETATM    3  C   UNL     1     -39.922  58.865 -52.730  1.00  0.00     0.018 A 
HETATM    4  C   UNL     1     -39.328  59.079 -51.491  1.00  0.00     0.001 A 
HETATM    5  C   UNL     1     -40.072  59.646 -50.467  1.00  0.00     0.001 A 
HETATM    6  C   UNL     1     -41.419  59.973 -50.668  1.00  0.00     0.019 A 
ENDROOT
BRANCH   2   7
HETATM    7  C   UNL     1     -41.710  59.099 -54.377  1.00  0.00     0.253 C 
HETATM    8  N   UNL     1     -42.479  58.002 -54.668  1.00  0.00    -0.354 N 
HETATM    9  H   UNL     1     -42.550  57.276 -53.959  1.00  0.00     0.162 HD
HETATM   10  O   UNL     1     -41.550  60.000 -55.196  1.00  0.00    -0.268 OA
BRANCH   8  11
HETATM   11  C   UNL     1     -43.098  57.769 -55.953  1.00  0.00     0.161 C 
BRANCH  11  12
HETATM   12  C   UNL     1     -42.606  56.525 -56.757  1.00  0.00     0.245 C 
BRANCH  12  13
HETATM   13  N   UNL     1     -43.502  56.184 -57.947  1.00  0.00    -0.061 N 
HETATM   14  H   UNL     1     -44.002  55.326 -57.668  1.00  0.00     0.280 HD
HETATM   15  C   UNL     1     -42.880  55.796 -59.275  1.00  0.00     0.236 C 
HETATM   16  C   UNL     1     -43.266  56.913 -60.223  1.00  0.00     0.029 C 
HETATM   17  C   UNL     1     -44.661  57.272 -59.755  1.00  0.00     0.029 C 
HETATM   18  C   UNL     1     -44.524  57.266 -58.246  1.00  0.00     0.236 C 
ENDBRANCH  12  13
BRANCH  12  19
HETATM   19  C   UNL     1     -42.132  55.360 -55.903  1.00  0.00     0.015 A 
HETATM   20  S   UNL     1     -43.194  54.139 -55.322  1.00  0.00    -0.104 SA
HETATM   21  C   UNL     1     -41.945  53.315 -54.510  1.00  0.00     0.050 A 
HETATM   22  C   UNL     1     -40.739  53.958 -54.643  1.00  0.00     0.008 A 
HETATM   23  C   UNL     1     -40.844  55.134 -55.441  1.00  0.00     0.017 A 
ENDBRANCH  12  19
ENDBRANCH  11  12
ENDBRANCH   8  11
ENDBRANCH   2   7
BRANCH   1  24
HETATM   24  S   UNL     1     -43.812  60.107 -52.142  1.00  0.00    -0.120 SA
BRANCH  24  25
HETATM   25  C   UNL     1     -44.649  58.491 -52.360  1.00  0.00     0.182 C 
BRANCH  25  26
HETATM   26  C   UNL     1     -45.189  57.920 -51.054  1.00  0.00     0.231 C 
HETATM   27  N   UNL     1     -44.739  56.721 -50.576  1.00  0.00    -0.327 N 
HETATM   28  H   UNL     1     -45.396  56.317 -49.915  1.00  0.00     0.169 HD
HETATM   29  O   UNL     1     -46.161  58.418 -50.480  1.00  0.00    -0.272 OA
BRANCH  27  30
HETATM   30  C   UNL     1     -43.544  56.009 -50.754  1.00  0.00     0.034 A 
HETATM   31  C   UNL     1     -42.276  56.559 -50.580  1.00  0.00     0.030 A 
HETATM   32  C   UNL     1     -41.134  55.757 -50.710  1.00  0.00     0.009 A 
HETATM   33  C   UNL     1     -41.246  54.396 -51.011  1.00  0.00    -0.062 A 
HETATM   34  C   UNL     1     -40.029  53.523 -51.102  1.00  0.00     0.048 C 
HETATM   35  C   UNL     1     -42.520  53.840 -51.150  1.00  0.00     0.009 A 
HETATM   36  C   UNL     1     -43.658  54.638 -51.011  1.00  0.00     0.030 A 
ENDBRANCH  27  30
ENDBRANCH  25  26
ENDBRANCH  24  25
ENDBRANCH   1  24
TORSDOF 9
ENDMDL
MODEL 2
REMARK VINA RESULT:      -8.1      3.190      8.041
REMARK  9 active torsions:
REMARK  status: ('A' for Active; 'I' for Inactive)
REMARK    1  A    between atoms: C_5  and  N_6 
REMARK       I    between atoms: N_6  and  C_7 
REMARK    2  A    between atoms: C_7  and  C_8 
REMARK    3  A    between atoms: C_8  and  S_9 
REMARK    4  A    between atoms: S_9  and  C_10 
REMARK    5  A    between atoms: C_11  and  C_12 
REMARK       I    between atoms: C_12  and  N_13 
REMARK    6  A    between atoms: N_13  and  C_14 
REMARK    7  A    between atoms: C_14  and  C_15 
REMARK    8  A    between atoms: C_15  and  N_16 
REMARK    9  A    between atoms: C_15  and  C_22 
ROOT
HETATM    1  C   UNL     1     -43.120  57.152 -58.222  1.00  0.00     0.016 A 
HETATM    2  C   UNL     1     -43.041  56.770 -56.858  1.00  0.00     0.048 A 
HETATM    3  C   UNL     1     -43.348  57.692 -55.839  1.00  0.00     0.018 A 
HETATM    4  C   UNL     1     -43.678  59.008 -56.148  1.00  0.00     0.001 A 
HETATM    5  C   UNL     1     -43.704  59.411 -57.475  1.00  0.00     0.001 A 
HETATM    6  C   UNL     1     -43.430  58.494 -58.498  1.00  0.00     0.019 A 
ENDROOT
BRANCH   2   7
HETATM    7  C   UNL     1     -42.532  55.452 -56.366  1.00  0.00     0.253 C 
HETATM    8  N   UNL     1     -41.273  55.469 -55.823  1.00  0.00    -0.354 N 
HETATM    9  H   UNL     1     -40.720  56.314 -55.945  1.00  0.00     0.162 HD
HETATM   10  O   UNL     1     -43.245  54.456 -56.288  1.00  0.00    -0.268 OA
BRANCH   8  11
HETATM   11  C   UNL     1     -40.653  54.328 -55.189  1.00  0.00     0.161 C 
BRANCH  11  12
HETATM   12  C   UNL     1     -40.697  54.277 -53.630  1.00  0.00     0.245 C 
BRANCH  12  13
HETATM   13  N   UNL     1     -40.821  52.858 -53.076  1.00  0.00    -0.061 N 
HETATM   14  H   UNL     1     -41.827  52.732 -52.886  1.00  0.00     0.280 HD
HETATM   15  C   UNL     1     -40.178  52.506 -51.749  1.00  0.00     0.236 C 
HETATM   16  C   UNL     1     -39.095  51.505 -52.098  1.00  0.00     0.029 C 
HETATM   17  C   UNL     1     -39.728  50.718 -53.227  1.00  0.00     0.029 C 
HETATM   18  C   UNL     1     -40.378  51.797 -54.068  1.00  0.00     0.236 C 
ENDBRANCH  12  13
BRANCH  12  19
HETATM   19  C   UNL     1     -41.568  55.341 -52.982  1.00  0.00     0.015 A 
HETATM   20  S   UNL     1     -43.226  55.084 -52.604  1.00  0.00    -0.104 SA
HETATM   21  C   UNL     1     -43.419  56.657 -51.980  1.00  0.00     0.050 A 
HETATM   22  C   UNL     1     -42.261  57.389 -52.075  1.00  0.00     0.008 A 
HETATM   23  C   UNL     1     -41.197  56.636 -52.652  1.00  0.00     0.017 A 
ENDBRANCH  12  19
ENDBRANCH  11  12
ENDBRANCH   8  11
ENDBRANCH   2   7
BRANCH   1  24
HETATM   24  S   UNL     1     -42.829  55.952 -59.543  1.00  0.00    -0.120 SA
BRANCH  24  25
HETATM   25  C   UNL     1     -44.391  55.012 -59.743  1.00  0.00     0.182 C 
BRANCH  25  26
HETATM   26  C   UNL     1     -45.137  55.365 -61.025  1.00  0.00     0.231 C 
HETATM   27  N   UNL     1     -46.191  56.235 -61.004  1.00  0.00    -0.327 N 
HETATM   28  H   UNL     1     -46.781  56.119 -61.823  1.00  0.00     0.169 HD
HETATM   29  O   UNL     1     -44.937  54.757 -62.080  1.00  0.00    -0.272 OA
BRANCH  27  30
HETATM   30  C   UNL     1     -46.552  57.278 -60.140  1.00  0.00     0.034 A 
HETATM   31  C   UNL     1     -46.876  57.100 -58.797  1.00  0.00     0.030 A 
HETATM   32  C   UNL     1     -47.157  58.207 -57.985  1.00  0.00     0.009 A 
HETATM   33  C   UNL     1     -47.115  59.505 -58.506  1.00  0.00    -0.062 A 
HETATM   34  C   UNL     1     -47.368  60.696 -57.629  1.00  0.00     0.048 C 
HETATM   35  C   UNL     1     -46.756  59.683 -59.844  1.00  0.00     0.009 A 
HETATM   36  C   UNL     1     -46.466  58.579 -60.650  1.00  0.00     0.030 A 
ENDBRANCH  27  30
ENDBRANCH  25  26
ENDBRANCH  24  25
ENDBRANCH   1  24
TORSDOF 9
ENDMDL
MODEL 3
REMARK VINA RESULT:      -8.0      1.865      3.274
REMARK  9 active torsions:
REMARK  status: ('A' for Active; 'I' for Inactive)
REMARK    1  A    between atoms: C_5  and  N_6 
REMARK       I    between atoms: N_6  and  C_7 
REMARK    2  A    between atoms: C_7  and  C_8 
REMARK    3  A    between atoms: C_8  and  S_9 
REMARK    4  A    between atoms: S_9  and  C_10 
REMARK    5  A    between atoms: C_11  and  C_12 
REMARK       I    between atoms: C_12  and  N_13 
REMARK    6  A    between atoms: N_13  and  C_14 
REMARK    7  A    between atoms: C_14  and  C_15 
REMARK    8  A    between atoms: C_15  and  N_16 
REMARK    9  A    between atoms: C_15  and  C_22 
ROOT
HETATM    1  C   UNL     1     -42.390  59.649 -52.142  1.00  0.00     0.016 A 
HETATM    2  C   UNL     1     -41.420  59.229 -53.087  1.00  0.00     0.048 A 
HETATM    3  C   UNL     1     -40.111  58.912 -52.674  1.00  0.00     0.018 A 
HETATM    4  C   UNL     1     -39.731  59.058 -51.344  1.00  0.00     0.001 A 
HETATM    5  C   UNL     1     -40.654  59.521 -50.418  1.00  0.00     0.001 A 
HETATM    6  C   UNL     1     -41.967  59.811 -50.812  1.00  0.00     0.019 A 
ENDROOT
BRANCH   2   7
HETATM    7  C   UNL     1     -41.626  59.196 -54.568  1.00  0.00     0.253 C 
HETATM    8  N   UNL     1     -42.020  57.988 -55.084  1.00  0.00    -0.354 N 
HETATM    9  H   UNL     1     -41.980  57.178 -54.469  1.00  0.00     0.162 HD
HETATM   10  O   UNL     1     -41.616  60.210 -55.260  1.00  0.00    -0.268 OA
BRANCH   8  11
HETATM   11  C   UNL     1     -42.382  57.782 -56.468  1.00  0.00     0.161 C 
BRANCH  11  12
HETATM   12  C   UNL     1     -43.906  57.708 -56.795  1.00  0.00     0.245 C 
BRANCH  12  13
HETATM   13  N   UNL     1     -44.260  56.586 -57.770  1.00  0.00    -0.061 N 
HETATM   14  H   UNL     1     -44.945  56.001 -57.267  1.00  0.00     0.280 HD
HETATM   15  C   UNL     1     -43.201  55.585 -58.188  1.00  0.00     0.236 C 
HETATM   16  C   UNL     1     -42.997  55.833 -59.668  1.00  0.00     0.029 C 
HETATM   17  C   UNL     1     -44.396  56.175 -60.138  1.00  0.00     0.029 C 
HETATM   18  C   UNL     1     -44.904  57.096 -59.048  1.00  0.00     0.236 C 
ENDBRANCH  12  13
BRANCH  12  19
HETATM   19  C   UNL     1     -44.574  59.053 -57.031  1.00  0.00     0.015 A 
HETATM   20  S   UNL     1     -43.864  60.290 -57.992  1.00  0.00    -0.104 SA
HETATM   21  C   UNL     1     -45.159  61.363 -57.727  1.00  0.00     0.050 A 
HETATM   22  C   UNL     1     -46.112  60.818 -56.901  1.00  0.00     0.008 A 
HETATM   23  C   UNL     1     -45.777  59.493 -56.499  1.00  0.00     0.017 A 
ENDBRANCH  12  19
ENDBRANCH  11  12
ENDBRANCH   8  11
ENDBRANCH   2   7
BRANCH   1  24
HETATM   24  S   UNL     1     -44.101  59.961 -52.639  1.00  0.00    -0.120 SA
BRANCH  24  25
HETATM   25  C   UNL     1     -44.870  58.319 -52.910  1.00  0.00     0.182 C 
BRANCH  25  26
HETATM   26  C   UNL     1     -44.794  57.417 -51.684  1.00  0.00     0.231 C 
HETATM   27  N   UNL     1     -44.167  56.204 -51.746  1.00  0.00    -0.327 N 
HETATM   28  H   UNL     1     -44.474  55.591 -50.996  1.00  0.00     0.169 HD
HETATM   29  O   UNL     1     -45.434  57.660 -50.658  1.00  0.00    -0.272 OA
BRANCH  27  30
HETATM   30  C   UNL     1     -43.153  55.693 -52.568  1.00  0.00     0.034 A 
HETATM   31  C   UNL     1     -41.800  55.704 -52.236  1.00  0.00     0.030 A 
HETATM   32  C   UNL     1     -40.858  55.108 -53.085  1.00  0.00     0.009 A 
HETATM   33  C   UNL     1     -41.257  54.492 -54.275  1.00  0.00    -0.062 A 
HETATM   34  C   UNL     1     -40.259  53.809 -55.163  1.00  0.00     0.048 C 
HETATM   35  C   UNL     1     -42.618  54.451 -54.589  1.00  0.00     0.009 A 
HETATM   36  C   UNL     1     -43.557  55.037 -53.737  1.00  0.00     0.030 A 
ENDBRANCH  27  30
ENDBRANCH  25  26
ENDBRANCH  24  25
ENDBRANCH   1  24
TORSDOF 9
ENDMDL
MODEL 4
REMARK VINA RESULT:      -7.8      3.084      7.881
REMARK  9 active torsions:
REMARK  status: ('A' for Active; 'I' for Inactive)
REMARK    1  A    between atoms: C_5  and  N_6 
REMARK       I    between atoms: N_6  and  C_7 
REMARK    2  A    between atoms: C_7  and  C_8 
REMARK    3  A    between atoms: C_8  and  S_9 
REMARK    4  A    between atoms: S_9  and  C_10 
REMARK    5  A    between atoms: C_11  and  C_12 
REMARK       I    between atoms: C_12  and  N_13 
REMARK    6  A    between atoms: N_13  and  C_14 
REMARK    7  A    between atoms: C_14  and  C_15 
REMARK    8  A    between atoms: C_15  and  N_16 
REMARK    9  A    between atoms: C_15  and  C_22 
ROOT
HETATM    1  C   UNL     1     -43.208  57.326 -58.700  1.00  0.00     0.016 A 
HETATM    2  C   UNL     1     -43.337  57.342 -57.287  1.00  0.00     0.048 A 
HETATM    3  C   UNL     1     -43.673  58.533 -56.614  1.00  0.00     0.018 A 
HETATM    4  C   UNL     1     -43.828  59.725 -57.315  1.00  0.00     0.001 A 
HETATM    5  C   UNL     1     -43.650  59.735 -58.690  1.00  0.00     0.001 A 
HETATM    6  C   UNL     1     -43.346  58.551 -59.373  1.00  0.00     0.019 A 
ENDROOT
BRANCH   2   7
HETATM    7  C   UNL     1     -43.028  56.189 -56.386  1.00  0.00     0.253 C 
HETATM    8  N   UNL     1     -43.956  55.935 -55.409  1.00  0.00    -0.354 N 
HETATM    9  H   UNL     1     -44.683  56.631 -55.258  1.00  0.00     0.162 HD
HETATM   10  O   UNL     1     -42.102  55.411 -56.602  1.00  0.00    -0.268 OA
BRANCH   8  11
HETATM   11  C   UNL     1     -43.897  54.799 -54.517  1.00  0.00     0.161 C 
BRANCH  11  12
HETATM   12  C   UNL     1     -43.117  54.995 -53.179  1.00  0.00     0.245 C 
BRANCH  12  13
HETATM   13  N   UNL     1     -42.820  56.461 -52.863  1.00  0.00    -0.061 N 
HETATM   14  H   UNL     1     -43.340  56.998 -53.573  1.00  0.00     0.280 HD
HETATM   15  C   UNL     1     -41.407  56.993 -53.003  1.00  0.00     0.236 C 
HETATM   16  C   UNL     1     -40.986  57.348 -51.592  1.00  0.00     0.029 C 
HETATM   17  C   UNL     1     -42.274  57.868 -50.988  1.00  0.00     0.029 C 
HETATM   18  C   UNL     1     -43.306  56.877 -51.486  1.00  0.00     0.236 C 
ENDBRANCH  12  13
BRANCH  12  19
HETATM   19  C   UNL     1     -41.987  54.005 -52.949  1.00  0.00     0.015 A 
HETATM   20  S   UNL     1     -41.425  53.581 -51.380  1.00  0.00    -0.104 SA
HETATM   21  C   UNL     1     -40.237  52.527 -51.993  1.00  0.00     0.050 A 
HETATM   22  C   UNL     1     -40.233  52.505 -53.367  1.00  0.00     0.008 A 
HETATM   23  C   UNL     1     -41.236  53.355 -53.918  1.00  0.00     0.017 A 
ENDBRANCH  12  19
ENDBRANCH  11  12
ENDBRANCH   8  11
ENDBRANCH   2   7
BRANCH   1  24
HETATM   24  S   UNL     1     -42.880  55.785 -59.587  1.00  0.00    -0.120 SA
BRANCH  24  25
HETATM   25  C   UNL     1     -44.497  54.941 -59.777  1.00  0.00     0.182 C 
BRANCH  25  26
HETATM   26  C   UNL     1     -45.205  55.299 -61.078  1.00  0.00     0.231 C 
HETATM   27  N   UNL     1     -46.269  56.157 -61.081  1.00  0.00    -0.327 N 
HETATM   28  H   UNL     1     -46.832  56.044 -61.920  1.00  0.00     0.169 HD
HETATM   29  O   UNL     1     -44.965  54.706 -62.133  1.00  0.00    -0.272 OA
BRANCH  27  30
HETATM   30  C   UNL     1     -46.670  57.186 -60.217  1.00  0.00     0.034 A 
HETATM   31  C   UNL     1     -46.809  57.036 -58.839  1.00  0.00     0.030 A 
HETATM   32  C   UNL     1     -47.146  58.136 -58.039  1.00  0.00     0.009 A 
HETATM   33  C   UNL     1     -47.346  59.399 -58.606  1.00  0.00    -0.062 A 
HETATM   34  C   UNL     1     -47.658  60.590 -57.749  1.00  0.00     0.048 C 
HETATM   35  C   UNL     1     -47.172  59.554 -59.984  1.00  0.00     0.009 A 
HETATM   36  C   UNL     1     -46.826  58.459 -60.779  1.00  0.00     0.030 A 
ENDBRANCH  27  30
ENDBRANCH  25  26
ENDBRANCH  24  25
ENDBRANCH   1  24
TORSDOF 9
ENDMDL
MODEL 5
REMARK VINA RESULT:      -7.7      2.865      7.528
REMARK  9 active torsions:
REMARK  status: ('A' for Active; 'I' for Inactive)
REMARK    1  A    between atoms: C_5  and  N_6 
REMARK       I    between atoms: N_6  and  C_7 
REMARK    2  A    between atoms: C_7  and  C_8 
REMARK    3  A    between atoms: C_8  and  S_9 
REMARK    4  A    between atoms: S_9  and  C_10 
REMARK    5  A    between atoms: C_11  and  C_12 
REMARK       I    between atoms: C_12  and  N_13 
REMARK    6  A    between atoms: N_13  and  C_14 
REMARK    7  A    between atoms: C_14  and  C_15 
REMARK    8  A    between atoms: C_15  and  N_16 
REMARK    9  A    between atoms: C_15  and  C_22 
ROOT
HETATM    1  C   UNL     1     -42.736  57.806 -58.418  1.00  0.00     0.016 A 
HETATM    2  C   UNL     1     -42.914  56.557 -57.770  1.00  0.00     0.048 A 
HETATM    3  C   UNL     1     -43.369  55.436 -58.491  1.00  0.00     0.018 A 
HETATM    4  C   UNL     1     -43.706  55.546 -59.836  1.00  0.00     0.001 A 
HETATM    5  C   UNL     1     -43.590  56.775 -60.470  1.00  0.00     0.001 A 
HETATM    6  C   UNL     1     -43.110  57.889 -59.770  1.00  0.00     0.019 A 
ENDROOT
BRANCH   2   7
HETATM    7  C   UNL     1     -42.766  56.327 -56.300  1.00  0.00     0.253 C 
HETATM    8  N   UNL     1     -41.559  55.814 -55.899  1.00  0.00    -0.354 N 
HETATM    9  H   UNL     1     -40.930  55.473 -56.621  1.00  0.00     0.162 HD
HETATM   10  O   UNL     1     -43.591  56.727 -55.482  1.00  0.00    -0.268 OA
BRANCH   8  11
HETATM   11  C   UNL     1     -41.180  55.631 -54.516  1.00  0.00     0.161 C 
BRANCH  11  12
HETATM   12  C   UNL     1     -41.887  54.476 -53.739  1.00  0.00     0.245 C 
BRANCH  12  13
HETATM   13  N   UNL     1     -42.997  54.965 -52.810  1.00  0.00    -0.061 N 
HETATM   14  H   UNL     1     -43.795  55.169 -53.431  1.00  0.00     0.280 HD
HETATM   15  C   UNL     1     -42.825  56.262 -52.043  1.00  0.00     0.236 C 
HETATM   16  C   UNL     1     -42.773  55.846 -50.587  1.00  0.00     0.029 C 
HETATM   17  C   UNL     1     -43.756  54.694 -50.541  1.00  0.00     0.029 C 
HETATM   18  C   UNL     1     -43.424  53.916 -51.798  1.00  0.00     0.236 C 
ENDBRANCH  12  13
BRANCH  12  19
HETATM   19  C   UNL     1     -40.951  53.414 -53.184  1.00  0.00     0.015 A 
HETATM   20  S   UNL     1     -40.562  51.975 -54.040  1.00  0.00    -0.104 SA
HETATM   21  C   UNL     1     -39.561  51.396 -52.791  1.00  0.00     0.050 A 
HETATM   22  C   UNL     1     -39.532  52.256 -51.720  1.00  0.00     0.008 A 
HETATM   23  C   UNL     1     -40.332  53.415 -51.942  1.00  0.00     0.017 A 
ENDBRANCH  12  19
ENDBRANCH  11  12
ENDBRANCH   8  11
ENDBRANCH   2   7
BRANCH   1  24
HETATM   24  S   UNL     1     -42.055  59.227 -57.531  1.00  0.00    -0.120 SA
BRANCH  24  25
HETATM   25  C   UNL     1     -43.171  60.640 -57.879  1.00  0.00     0.182 C 
BRANCH  25  26
HETATM   26  C   UNL     1     -44.324  60.744 -56.888  1.00  0.00     0.231 C 
HETATM   27  N   UNL     1     -45.594  60.394 -57.252  1.00  0.00    -0.327 N 
HETATM   28  H   UNL     1     -46.284  60.817 -56.638  1.00  0.00     0.169 HD
HETATM   29  O   UNL     1     -44.193  61.305 -55.796  1.00  0.00    -0.272 OA
BRANCH  27  30
HETATM   30  C   UNL     1     -46.103  59.525 -58.227  1.00  0.00     0.034 A 
HETATM   31  C   UNL     1     -46.241  59.858 -59.573  1.00  0.00     0.030 A 
HETATM   32  C   UNL     1     -46.693  58.903 -60.495  1.00  0.00     0.009 A 
HETATM   33  C   UNL     1     -47.009  57.605 -60.083  1.00  0.00    -0.062 A 
HETATM   34  C   UNL     1     -47.446  56.566 -61.073  1.00  0.00     0.048 C 
HETATM   35  C   UNL     1     -46.835  57.263 -58.739  1.00  0.00     0.009 A 
HETATM   36  C   UNL     1     -46.376  58.212 -57.823  1.00  0.00     0.030 A 
ENDBRANCH  27  30
ENDBRANCH  25  26
ENDBRANCH  24  25
ENDBRANCH   1  24
TORSDOF 9
ENDMDL
MODEL 6
REMARK VINA RESULT:      -7.7      2.320      4.323
REMARK  9 active torsions:
REMARK  status: ('A' for Active; 'I' for Inactive)
REMARK    1  A    between atoms: C_5  and  N_6 
REMARK       I    between atoms: N_6  and  C_7 
REMARK    2  A    between atoms: C_7  and  C_8 
REMARK    3  A    between atoms: C_8  and  S_9 
REMARK    4  A    between atoms: S_9  and  C_10 
REMARK    5  A    between atoms: C_11  and  C_12 
REMARK       I    between atoms: C_12  and  N_13 
REMARK    6  A    between atoms: N_13  and  C_14 
REMARK    7  A    between atoms: C_14  and  C_15 
REMARK    8  A    between atoms: C_15  and  N_16 
REMARK    9  A    between atoms: C_15  and  C_22 
ROOT
HETATM    1  C   UNL     1     -41.688  56.684 -54.324  1.00  0.00     0.016 A 
HETATM    2  C   UNL     1     -42.898  56.096 -54.774  1.00  0.00     0.048 A 
HETATM    3  C   UNL     1     -42.990  54.703 -54.958  1.00  0.00     0.018 A 
HETATM    4  C   UNL     1     -41.883  53.885 -54.756  1.00  0.00     0.001 A 
HETATM    5  C   UNL     1     -40.677  54.453 -54.370  1.00  0.00     0.001 A 
HETATM    6  C   UNL     1     -40.583  55.834 -54.155  1.00  0.00     0.019 A 
ENDROOT
BRANCH   2   7
HETATM    7  C   UNL     1     -44.112  56.857 -55.202  1.00  0.00     0.253 C 
HETATM    8  N   UNL     1     -44.184  57.155 -56.538  1.00  0.00    -0.354 N 
HETATM    9  H   UNL     1     -43.352  56.996 -57.101  1.00  0.00     0.162 HD
HETATM   10  O   UNL     1     -45.066  57.054 -54.454  1.00  0.00    -0.268 OA
BRANCH   8  11
HETATM   11  C   UNL     1     -45.327  57.780 -57.165  1.00  0.00     0.161 C 
BRANCH  11  12
HETATM   12  C   UNL     1     -45.042  58.700 -58.392  1.00  0.00     0.245 C 
BRANCH  12  13
HETATM   13  N   UNL     1     -45.295  58.012 -59.734  1.00  0.00    -0.061 N 
HETATM   14  H   UNL     1     -44.790  58.585 -60.427  1.00  0.00     0.280 HD
HETATM   15  C   UNL     1     -46.700  57.954 -60.301  1.00  0.00     0.236 C 
HETATM   16  C   UNL     1     -47.059  56.483 -60.293  1.00  0.00     0.029 C 
HETATM   17  C   UNL     1     -45.738  55.822 -60.628  1.00  0.00     0.029 C 
HETATM   18  C   UNL     1     -44.748  56.596 -59.783  1.00  0.00     0.236 C 
ENDBRANCH  12  13
BRANCH  12  19
HETATM   19  C   UNL     1     -43.778  59.537 -58.283  1.00  0.00     0.015 A 
HETATM   20  S   UNL     1     -43.561  60.744 -57.078  1.00  0.00    -0.104 SA
HETATM   21  C   UNL     1     -42.013  61.164 -57.651  1.00  0.00     0.050 A 
HETATM   22  C   UNL     1     -41.661  60.428 -58.756  1.00  0.00     0.008 A 
HETATM   23  C   UNL     1     -42.674  59.494 -59.122  1.00  0.00     0.017 A 
ENDBRANCH  12  19
ENDBRANCH  11  12
ENDBRANCH   8  11
ENDBRANCH   2   7
BRANCH   1  24
HETATM   24  S   UNL     1     -41.585  58.457 -53.984  1.00  0.00    -0.120 SA
BRANCH  24  25
HETATM   25  C   UNL     1     -40.929  58.622 -52.280  1.00  0.00     0.182 C 
BRANCH  25  26
HETATM   26  C   UNL     1     -42.026  58.667 -51.223  1.00  0.00     0.231 C 
HETATM   27  N   UNL     1     -42.595  57.516 -50.755  1.00  0.00    -0.327 N 
HETATM   28  H   UNL     1     -43.501  57.696 -50.333  1.00  0.00     0.169 HD
HETATM   29  O   UNL     1     -42.559  59.728 -50.885  1.00  0.00    -0.272 OA
BRANCH  27  30
HETATM   30  C   UNL     1     -42.142  56.191 -50.674  1.00  0.00     0.034 A 
HETATM   31  C   UNL     1     -42.836  55.097 -51.187  1.00  0.00     0.030 A 
HETATM   32  C   UNL     1     -42.278  53.813 -51.126  1.00  0.00     0.009 A 
HETATM   33  C   UNL     1     -41.019  53.608 -50.553  1.00  0.00    -0.062 A 
HETATM   34  C   UNL     1     -40.395  52.243 -50.528  1.00  0.00     0.048 C 
HETATM   35  C   UNL     1     -40.310  54.711 -50.070  1.00  0.00     0.009 A 
HETATM   36  C   UNL     1     -40.863  55.992 -50.141  1.00  0.00     0.030 A 
ENDBRANCH  27  30
ENDBRANCH  25  26
ENDBRANCH  24  25
ENDBRANCH   1  24
TORSDOF 9
ENDMDL
MODEL 7
REMARK VINA RESULT:      -7.7      2.574      4.150
REMARK  9 active torsions:
REMARK  status: ('A' for Active; 'I' for Inactive)
REMARK    1  A    between atoms: C_5  and  N_6 
REMARK       I    between atoms: N_6  and  C_7 
REMARK    2  A    between atoms: C_7  and  C_8 
REMARK    3  A    between atoms: C_8  and  S_9 
REMARK    4  A    between atoms: S_9  and  C_10 
REMARK    5  A    between atoms: C_11  and  C_12 
REMARK       I    between atoms: C_12  and  N_13 
REMARK    6  A    between atoms: N_13  and  C_14 
REMARK    7  A    between atoms: C_14  and  C_15 
REMARK    8  A    between atoms: C_15  and  N_16 
REMARK    9  A    between atoms: C_15  and  C_22 
ROOT
HETATM    1  C   UNL     1     -42.569  57.233 -52.727  1.00  0.00     0.016 A 
HETATM    2  C   UNL     1     -42.053  58.375 -53.390  1.00  0.00     0.048 A 
HETATM    3  C   UNL     1     -40.936  59.059 -52.872  1.00  0.00     0.018 A 
HETATM    4  C   UNL     1     -40.355  58.662 -51.672  1.00  0.00     0.001 A 
HETATM    5  C   UNL     1     -40.884  57.581 -50.983  1.00  0.00     0.001 A 
HETATM    6  C   UNL     1     -41.975  56.875 -51.505  1.00  0.00     0.019 A 
ENDROOT
BRANCH   2   7
HETATM    7  C   UNL     1     -42.675  59.025 -54.585  1.00  0.00     0.253 C 
HETATM    8  N   UNL     1     -42.312  58.503 -55.800  1.00  0.00    -0.354 N 
HETATM    9  H   UNL     1     -41.537  57.844 -55.816  1.00  0.00     0.162 HD
HETATM   10  O   UNL     1     -43.579  59.851 -54.492  1.00  0.00    -0.268 OA
BRANCH   8  11
HETATM   11  C   UNL     1     -42.890  58.914 -57.059  1.00  0.00     0.161 C 
BRANCH  11  12
HETATM   12  C   UNL     1     -42.334  58.228 -58.346  1.00  0.00     0.245 C 
BRANCH  12  13
HETATM   13  N   UNL     1     -41.665  59.208 -59.311  1.00  0.00    -0.061 N 
HETATM   14  H   UNL     1     -40.653  59.071 -59.171  1.00  0.00     0.280 HD
HETATM   15  C   UNL     1     -41.836  60.701 -59.111  1.00  0.00     0.236 C 
HETATM   16  C   UNL     1     -42.624  61.165 -60.319  1.00  0.00     0.029 C 
HETATM   17  C   UNL     1     -42.077  60.285 -61.424  1.00  0.00     0.029 C 
HETATM   18  C   UNL     1     -41.998  58.924 -60.765  1.00  0.00     0.236 C 
ENDBRANCH  12  13
BRANCH  12  19
HETATM   19  C   UNL     1     -43.253  57.186 -58.962  1.00  0.00     0.015 A 
HETATM   20  S   UNL     1     -44.941  57.437 -59.169  1.00  0.00    -0.104 SA
HETATM   21  C   UNL     1     -45.178  55.894 -59.848  1.00  0.00     0.050 A 
HETATM   22  C   UNL     1     -44.009  55.174 -59.899  1.00  0.00     0.008 A 
HETATM   23  C   UNL     1     -42.903  55.913 -59.388  1.00  0.00     0.017 A 
ENDBRANCH  12  19
ENDBRANCH  11  12
ENDBRANCH   8  11
ENDBRANCH   2   7
BRANCH   1  24
HETATM   24  S   UNL     1     -43.936  56.284 -53.433  1.00  0.00    -0.120 SA
BRANCH  24  25
HETATM   25  C   UNL     1     -43.214  54.715 -54.051  1.00  0.00     0.182 C 
BRANCH  25  26
HETATM   26  C   UNL     1     -41.949  54.927 -54.873  1.00  0.00     0.231 C 
HETATM   27  N   UNL     1     -40.739  54.478 -54.423  1.00  0.00    -0.327 N 
HETATM   28  H   UNL     1     -39.972  54.963 -54.879  1.00  0.00     0.169 HD
HETATM   29  O   UNL     1     -41.936  55.653 -55.872  1.00  0.00    -0.272 OA
BRANCH  27  30
HETATM   30  C   UNL     1     -40.368  53.451 -53.544  1.00  0.00     0.034 A 
HETATM   31  C   UNL     1     -40.395  53.565 -52.155  1.00  0.00     0.030 A 
HETATM   32  C   UNL     1     -40.076  52.465 -51.349  1.00  0.00     0.009 A 
HETATM   33  C   UNL     1     -39.728  51.237 -51.920  1.00  0.00    -0.062 A 
HETATM   34  C   UNL     1     -39.432  50.042 -51.061  1.00  0.00     0.048 C 
HETATM   35  C   UNL     1     -39.735  51.114 -53.312  1.00  0.00     0.009 A 
HETATM   36  C   UNL     1     -40.063  52.209 -54.115  1.00  0.00     0.030 A 
ENDBRANCH  27  30
ENDBRANCH  25  26
ENDBRANCH  24  25
ENDBRANCH   1  24
TORSDOF 9
ENDMDL
MODEL 8
REMARK VINA RESULT:      -7.7      2.504      6.788
REMARK  9 active torsions:
REMARK  status: ('A' for Active; 'I' for Inactive)
REMARK    1  A    between atoms: C_5  and  N_6 
REMARK       I    between atoms: N_6  and  C_7 
REMARK    2  A    between atoms: C_7  and  C_8 
REMARK    3  A    between atoms: C_8  and  S_9 
REMARK    4  A    between atoms: S_9  and  C_10 
REMARK    5  A    between atoms: C_11  and  C_12 
REMARK       I    between atoms: C_12  and  N_13 
REMARK    6  A    between atoms: N_13  and  C_14 
REMARK    7  A    between atoms: C_14  and  C_15 
REMARK    8  A    between atoms: C_15  and  N_16 
REMARK    9  A    between atoms: C_15  and  C_22 
ROOT
HETATM    1  C   UNL     1     -43.138  56.146 -52.040  1.00  0.00     0.016 A 
HETATM    2  C   UNL     1     -41.878  56.593 -51.565  1.00  0.00     0.048 A 
HETATM    3  C   UNL     1     -40.977  55.690 -50.970  1.00  0.00     0.018 A 
HETATM    4  C   UNL     1     -41.326  54.356 -50.786  1.00  0.00     0.001 A 
HETATM    5  C   UNL     1     -42.576  53.916 -51.195  1.00  0.00     0.001 A 
HETATM    6  C   UNL     1     -43.469  54.799 -51.816  1.00  0.00     0.019 A 
ENDROOT
BRANCH   2   7
HETATM    7  C   UNL     1     -41.435  58.021 -51.529  1.00  0.00     0.253 C 
HETATM    8  N   UNL     1     -42.015  58.797 -50.558  1.00  0.00    -0.354 N 
HETATM    9  H   UNL     1     -42.809  58.407 -50.056  1.00  0.00     0.162 HD
HETATM   10  O   UNL     1     -40.495  58.439 -52.200  1.00  0.00    -0.268 OA
BRANCH   8  11
HETATM   11  C   UNL     1     -41.636  60.166 -50.287  1.00  0.00     0.161 C 
BRANCH  11  12
HETATM   12  C   UNL     1     -42.772  61.234 -50.340  1.00  0.00     0.245 C 
BRANCH  12  13
HETATM   13  N   UNL     1     -44.036  60.808 -49.592  1.00  0.00    -0.061 N 
HETATM   14  H   UNL     1     -43.803  59.896 -49.171  1.00  0.00     0.280 HD
HETATM   15  C   UNL     1     -45.307  60.510 -50.363  1.00  0.00     0.236 C 
HETATM   16  C   UNL     1     -46.281  61.588 -49.934  1.00  0.00     0.029 C 
HETATM   17  C   UNL     1     -45.932  61.781 -48.473  1.00  0.00     0.029 C 
HETATM   18  C   UNL     1     -44.418  61.772 -48.482  1.00  0.00     0.236 C 
ENDBRANCH  12  13
BRANCH  12  19
HETATM   19  C   UNL     1     -42.972  61.888 -51.697  1.00  0.00     0.015 A 
HETATM   20  S   UNL     1     -43.424  63.536 -51.880  1.00  0.00    -0.104 SA
HETATM   21  C   UNL     1     -43.444  63.435 -53.580  1.00  0.00     0.050 A 
HETATM   22  C   UNL     1     -43.141  62.169 -54.019  1.00  0.00     0.008 A 
HETATM   23  C   UNL     1     -42.871  61.279 -52.940  1.00  0.00     0.017 A 
ENDBRANCH  12  19
ENDBRANCH  11  12
ENDBRANCH   8  11
ENDBRANCH   2   7
BRANCH   1  24
HETATM   24  S   UNL     1     -44.263  57.271 -52.898  1.00  0.00    -0.120 SA
BRANCH  24  25
HETATM   25  C   UNL     1     -43.337  57.935 -54.335  1.00  0.00     0.182 C 
BRANCH  25  26
HETATM   26  C   UNL     1     -43.738  57.283 -55.653  1.00  0.00     0.231 C 
HETATM   27  N   UNL     1     -43.086  56.172 -56.111  1.00  0.00    -0.327 N 
HETATM   28  H   UNL     1     -43.218  56.053 -57.111  1.00  0.00     0.169 HD
HETATM   29  O   UNL     1     -44.531  57.823 -56.430  1.00  0.00    -0.272 OA
BRANCH  27  30
HETATM   30  C   UNL     1     -42.367  55.154 -55.469  1.00  0.00     0.034 A 
HETATM   31  C   UNL     1     -42.859  53.868 -55.254  1.00  0.00     0.030 A 
HETATM   32  C   UNL     1     -42.047  52.889 -54.667  1.00  0.00     0.009 A 
HETATM   33  C   UNL     1     -40.732  53.182 -54.291  1.00  0.00    -0.062 A 
HETATM   34  C   UNL     1     -39.842  52.124 -53.708  1.00  0.00     0.048 C 
HETATM   35  C   UNL     1     -40.229  54.462 -54.540  1.00  0.00     0.009 A 
HETATM   36  C   UNL     1     -41.037  55.435 -55.133  1.00  0.00     0.030 A 
ENDBRANCH  27  30
ENDBRANCH  25  26
ENDBRANCH  24  25
ENDBRANCH   1  24
TORSDOF 9
ENDMDL
MODEL 9
REMARK VINA RESULT:      -7.6      2.452      4.347
REMARK  9 active torsions:
REMARK  status: ('A' for Active; 'I' for Inactive)
REMARK    1  A    between atoms: C_5  and  N_6 
REMARK       I    between atoms: N_6  and  C_7 
REMARK    2  A    between atoms: C_7  and  C_8 
REMARK    3  A    between atoms: C_8  and  S_9 
REMARK    4  A    between atoms: S_9  and  C_10 
REMARK    5  A    between atoms: C_11  and  C_12 
REMARK       I    between atoms: C_12  and  N_13 
REMARK    6  A    between atoms: N_13  and  C_14 
REMARK    7  A    between atoms: C_14  and  C_15 
REMARK    8  A    between atoms: C_15  and  N_16 
REMARK    9  A    between atoms: C_15  and  C_22 
ROOT
HETATM    1  C   UNL     1     -42.562  57.141 -52.032  1.00  0.00     0.016 A 
HETATM    2  C   UNL     1     -42.096  58.363 -52.580  1.00  0.00     0.048 A 
HETATM    3  C   UNL     1     -40.982  59.018 -52.021  1.00  0.00     0.018 A 
HETATM    4  C   UNL     1     -40.354  58.509 -50.889  1.00  0.00     0.001 A 
HETATM    5  C   UNL     1     -40.834  57.344 -50.308  1.00  0.00     0.001 A 
HETATM    6  C   UNL     1     -41.922  56.669 -50.874  1.00  0.00     0.019 A 
ENDROOT
BRANCH   2   7
HETATM    7  C   UNL     1     -42.772  59.122 -53.678  1.00  0.00     0.253 C 
HETATM    8  N   UNL     1     -42.407  58.771 -54.952  1.00  0.00    -0.354 N 
HETATM    9  H   UNL     1     -41.601  58.159 -55.059  1.00  0.00     0.162 HD
HETATM   10  O   UNL     1     -43.713  59.884 -53.473  1.00  0.00    -0.268 OA
BRANCH   8  11
HETATM   11  C   UNL     1     -43.028  59.303 -56.144  1.00  0.00     0.161 C 
BRANCH  11  12
HETATM   12  C   UNL     1     -43.796  58.290 -57.050  1.00  0.00     0.245 C 
BRANCH  12  13
HETATM   13  N   UNL     1     -42.871  57.379 -57.856  1.00  0.00    -0.061 N 
HETATM   14  H   UNL     1     -42.243  56.951 -57.159  1.00  0.00     0.280 HD
HETATM   15  C   UNL     1     -41.904  57.980 -58.858  1.00  0.00     0.236 C 
HETATM   16  C   UNL     1     -42.386  57.484 -60.206  1.00  0.00     0.029 C 
HETATM   17  C   UNL     1     -42.869  56.084 -59.885  1.00  0.00     0.029 C 
HETATM   18  C   UNL     1     -43.618  56.274 -58.582  1.00  0.00     0.236 C 
ENDBRANCH  12  13
BRANCH  12  19
HETATM   19  C   UNL     1     -44.992  58.873 -57.786  1.00  0.00     0.015 A 
HETATM   20  S   UNL     1     -44.864  60.211 -58.858  1.00  0.00    -0.104 SA
HETATM   21  C   UNL     1     -46.533  60.215 -59.195  1.00  0.00     0.050 A 
HETATM   22  C   UNL     1     -47.197  59.239 -58.492  1.00  0.00     0.008 A 
HETATM   23  C   UNL     1     -46.315  58.469 -57.681  1.00  0.00     0.017 A 
ENDBRANCH  12  19
ENDBRANCH  11  12
ENDBRANCH   8  11
ENDBRANCH   2   7
BRANCH   1  24
HETATM   24  S   UNL     1     -43.926  56.236 -52.801  1.00  0.00    -0.120 SA
BRANCH  24  25
HETATM   25  C   UNL     1     -43.180  54.782 -53.633  1.00  0.00     0.182 C 
BRANCH  25  26
HETATM   26  C   UNL     1     -41.895  55.119 -54.379  1.00  0.00     0.231 C 
HETATM   27  N   UNL     1     -40.688  54.649 -53.941  1.00  0.00    -0.327 N 
HETATM   28  H   UNL     1     -39.921  55.202 -54.309  1.00  0.00     0.169 HD
HETATM   29  O   UNL     1     -41.870  55.957 -55.284  1.00  0.00    -0.272 OA
BRANCH  27  30
HETATM   30  C   UNL     1     -40.318  53.534 -53.175  1.00  0.00     0.034 A 
HETATM   31  C   UNL     1     -40.291  53.520 -51.782  1.00  0.00     0.030 A 
HETATM   32  C   UNL     1     -39.977  52.341 -51.093  1.00  0.00     0.009 A 
HETATM   33  C   UNL     1     -39.689  51.162 -51.787  1.00  0.00    -0.062 A 
HETATM   34  C   UNL     1     -39.400  49.885 -51.054  1.00  0.00     0.048 C 
HETATM   35  C   UNL     1     -39.751  51.170 -53.183  1.00  0.00     0.009 A 
HETATM   36  C   UNL     1     -40.074  52.343 -53.869  1.00  0.00     0.030 A 
ENDBRANCH  27  30
ENDBRANCH  25  26
ENDBRANCH  24  25
ENDBRANCH   1  24
TORSDOF 9
ENDMDL
MODEL 10
REMARK VINA RESULT:      -7.6      2.709      4.830
REMARK  9 active torsions:
REMARK  status: ('A' for Active; 'I' for Inactive)
REMARK    1  A    between atoms: C_5  and  N_6 
REMARK       I    between atoms: N_6  and  C_7 
REMARK    2  A    between atoms: C_7  and  C_8 
REMARK    3  A    between atoms: C_8  and  S_9 
REMARK    4  A    between atoms: S_9  and  C_10 
REMARK    5  A    between atoms: C_11  and  C_12 
REMARK       I    between atoms: C_12  and  N_13 
REMARK    6  A    between atoms: N_13  and  C_14 
REMARK    7  A    between atoms: C_14  and  C_15 
REMARK    8  A    between atoms: C_15  and  N_16 
REMARK    9  A    between atoms: C_15  and  C_22 
ROOT
HETATM    1  C   UNL     1     -43.170  57.267 -52.460  1.00  0.00     0.016 A 
HETATM    2  C   UNL     1     -43.272  58.344 -53.377  1.00  0.00     0.048 A 
HETATM    3  C   UNL     1     -44.203  59.378 -53.164  1.00  0.00     0.018 A 
HETATM    4  C   UNL     1     -45.078  59.334 -52.083  1.00  0.00     0.001 A 
HETATM    5  C   UNL     1     -45.028  58.258 -51.209  1.00  0.00     0.001 A 
HETATM    6  C   UNL     1     -44.085  57.240 -51.394  1.00  0.00     0.019 A 
ENDROOT
BRANCH   2   7
HETATM    7  C   UNL     1     -42.529  58.438 -54.672  1.00  0.00     0.253 C 
HETATM    8  N   UNL     1     -43.067  57.731 -55.716  1.00  0.00    -0.354 N 
HETATM    9  H   UNL     1     -43.812  57.071 -55.503  1.00  0.00     0.162 HD
HETATM   10  O   UNL     1     -41.604  59.227 -54.847  1.00  0.00    -0.268 OA
BRANCH   8  11
HETATM   11  C   UNL     1     -42.565  57.786 -57.071  1.00  0.00     0.161 C 
BRANCH  11  12
HETATM   12  C   UNL     1     -43.612  58.038 -58.199  1.00  0.00     0.245 C 
BRANCH  12  13
HETATM   13  N   UNL     1     -44.462  56.809 -58.520  1.00  0.00    -0.061 N 
HETATM   14  H   UNL     1     -44.849  56.507 -57.613  1.00  0.00     0.280 HD
HETATM   15  C   UNL     1     -43.801  55.548 -59.042  1.00  0.00     0.236 C 
HETATM   16  C   UNL     1     -44.328  55.392 -60.454  1.00  0.00     0.029 C 
HETATM   17  C   UNL     1     -45.756  55.881 -60.326  1.00  0.00     0.029 C 
HETATM   18  C   UNL     1     -45.613  57.117 -59.461  1.00  0.00     0.236 C 
ENDBRANCH  12  13
BRANCH  12  19
HETATM   19  C   UNL     1     -43.093  58.836 -59.385  1.00  0.00     0.015 A 
HETATM   20  S   UNL     1     -43.692  60.395 -59.793  1.00  0.00    -0.104 SA
HETATM   21  C   UNL     1     -42.665  60.535 -61.143  1.00  0.00     0.050 A 
HETATM   22  C   UNL     1     -41.891  59.413 -61.314  1.00  0.00     0.008 A 
HETATM   23  C   UNL     1     -42.137  58.435 -60.306  1.00  0.00     0.017 A 
ENDBRANCH  12  19
ENDBRANCH  11  12
ENDBRANCH   8  11
ENDBRANCH   2   7
BRANCH   1  24
HETATM   24  S   UNL     1     -41.911  55.985 -52.663  1.00  0.00    -0.120 SA
BRANCH  24  25
HETATM   25  C   UNL     1     -42.669  54.670 -53.692  1.00  0.00     0.182 C 
BRANCH  25  26
HETATM   26  C   UNL     1     -41.808  54.281 -54.888  1.00  0.00     0.231 C 
HETATM   27  N   UNL     1     -40.677  53.532 -54.722  1.00  0.00    -0.327 N 
HETATM   28  H   UNL     1     -40.048  53.633 -55.513  1.00  0.00     0.169 HD
HETATM   29  O   UNL     1     -41.995  54.765 -56.008  1.00  0.00    -0.272 OA
BRANCH  27  30
HETATM   30  C   UNL     1     -40.273  52.617 -53.740  1.00  0.00     0.034 A 
HETATM   31  C   UNL     1     -40.144  52.930 -52.388  1.00  0.00     0.030 A 
HETATM   32  C   UNL     1     -39.802  51.936 -51.461  1.00  0.00     0.009 A 
HETATM   33  C   UNL     1     -39.590  50.617 -51.874  1.00  0.00    -0.062 A 
HETATM   34  C   UNL     1     -39.272  49.539 -50.879  1.00  0.00     0.048 C 
HETATM   35  C   UNL     1     -39.754  50.298 -53.224  1.00  0.00     0.009 A 
HETATM   36  C   UNL     1     -40.104  51.288 -54.145  1.00  0.00     0.030 A 
ENDBRANCH  27  30
ENDBRANCH  25  26
ENDBRANCH  24  25
ENDBRANCH   1  24
TORSDOF 9
ENDMDL
