MODEL 1
REMARK VINA RESULT:      -9.1      0.000      0.000
REMARK  2 active torsions:
REMARK  status: ('A' for Active; 'I' for Inactive)
REMARK    1  A    between atoms: C_7  and  C_8 
REMARK    2  A    between atoms: C_13  and  C_18 
ROOT
HETATM    1  C   UNL     1     -41.494  53.644 -54.085  1.00  0.00    -0.020 A 
HETATM    2  C   UNL     1     -42.656  53.998 -53.380  1.00  0.00     0.015 A 
HETATM    3  C   UNL     1     -43.451  55.084 -53.777  1.00  0.00     0.035 A 
HETATM    4  C   UNL     1     -43.068  55.819 -54.906  1.00  0.00     0.085 A 
HETATM    5  N   UNL     1     -43.665  56.906 -55.495  1.00  0.00    -0.233 NA
HETATM    6  C   UNL     1     -42.917  57.206 -56.538  1.00  0.00     0.111 A 
HETATM    7  N   UNL     1     -41.845  56.346 -56.629  1.00  0.00    -0.342 N 
HETATM    8  H   UNL     1     -41.142  56.363 -57.356  1.00  0.00     0.167 HD
HETATM    9  C   UNL     1     -41.917  55.454 -55.593  1.00  0.00     0.063 A 
HETATM   10  C   UNL     1     -41.100  54.384 -55.213  1.00  0.00     0.044 A 
ENDROOT
BRANCH   6  11
HETATM   11  C   UNL     1     -43.196  58.301 -57.532  1.00  0.00     0.084 C 
HETATM   12  C   UNL     1     -42.404  58.165 -58.831  1.00  0.00     0.188 C 
HETATM   13  O   UNL     1     -42.761  57.008 -59.604  1.00  0.00    -0.350 OA
HETATM   14  C   UNL     1     -44.108  56.806 -59.751  1.00  0.00     0.075 A 
HETATM   15  C   UNL     1     -44.485  55.890 -60.734  1.00  0.00     0.037 A 
HETATM   16  C   UNL     1     -45.075  57.408 -58.939  1.00  0.00    -0.024 A 
HETATM   17  C   UNL     1     -45.832  55.590 -60.931  1.00  0.00     0.003 A 
HETATM   18  C   UNL     1     -46.803  56.202 -60.143  1.00  0.00     0.001 A 
HETATM   19  C   UNL     1     -46.427  57.109 -59.152  1.00  0.00     0.010 A 
HETATM   20  C   UNL     1     -44.686  58.384 -57.863  1.00  0.00     0.056 C 
ENDBRANCH   6  11
BRANCH   1  21
HETATM   21  C   UNL     1     -40.691  52.524 -53.620  1.00  0.00     0.017 A 
HETATM   22  C   UNL     1     -40.053  52.424 -52.395  1.00  0.00     0.036 A 
HETATM   23  C   UNL     1     -39.954  53.325 -51.222  1.00  0.00     0.070 C 
HETATM   24  N   UNL     1     -39.416  51.210 -52.412  1.00  0.00    -0.282 N 
HETATM   25  H   UNL     1     -38.846  50.794 -51.682  1.00  0.00     0.189 HD
HETATM   26  N   UNL     1     -39.574  50.526 -53.554  1.00  0.00    -0.186 NA
HETATM   27  C   UNL     1     -40.345  51.327 -54.291  1.00  0.00     0.153 A 
ENDBRANCH   1  21
TORSDOF 2
ENDMDL
MODEL 2
REMARK VINA RESULT:      -8.4      3.325      5.276
REMARK  2 active torsions:
REMARK  status: ('A' for Active; 'I' for Inactive)
REMARK    1  A    between atoms: C_7  and  C_8 
REMARK    2  A    between atoms: C_13  and  C_18 
ROOT
HETATM    1  C   UNL     1     -40.492  52.697 -53.420  1.00  0.00    -0.020 A 
HETATM    2  C   UNL     1     -39.724  53.087 -54.530  1.00  0.00     0.015 A 
HETATM    3  C   UNL     1     -40.101  54.173 -55.336  1.00  0.00     0.035 A 
HETATM    4  C   UNL     1     -41.268  54.876 -55.012  1.00  0.00     0.085 A 
HETATM    5  N   UNL     1     -41.844  55.960 -55.629  1.00  0.00    -0.233 NA
HETATM    6  C   UNL     1     -42.918  56.247 -54.920  1.00  0.00     0.111 A 
HETATM    7  N   UNL     1     -43.055  55.368 -53.870  1.00  0.00    -0.342 N 
HETATM    8  H   UNL     1     -43.790  55.396 -53.175  1.00  0.00     0.167 HD
HETATM    9  C   UNL     1     -42.014  54.478 -53.911  1.00  0.00     0.063 A 
HETATM   10  C   UNL     1     -41.670  53.394 -53.097  1.00  0.00     0.044 A 
ENDROOT
BRANCH   6  11
HETATM   11  C   UNL     1     -43.855  57.396 -55.176  1.00  0.00     0.084 C 
HETATM   12  C   UNL     1     -45.112  57.366 -54.307  1.00  0.00     0.188 C 
HETATM   13  O   UNL     1     -44.847  57.546 -52.907  1.00  0.00    -0.350 OA
HETATM   14  C   UNL     1     -43.991  58.572 -52.609  1.00  0.00     0.075 A 
HETATM   15  C   UNL     1     -43.954  58.968 -51.271  1.00  0.00     0.037 A 
HETATM   16  C   UNL     1     -43.138  59.166 -53.545  1.00  0.00    -0.024 A 
HETATM   17  C   UNL     1     -43.085  59.980 -50.865  1.00  0.00     0.003 A 
HETATM   18  C   UNL     1     -42.248  60.593 -51.795  1.00  0.00     0.001 A 
HETATM   19  C   UNL     1     -42.275  60.190 -53.130  1.00  0.00     0.010 A 
HETATM   20  C   UNL     1     -43.151  58.740 -54.987  1.00  0.00     0.056 C 
ENDBRANCH   6  11
BRANCH   1  21
HETATM   21  C   UNL     1     -40.072  51.552 -52.629  1.00  0.00     0.017 A 
HETATM   22  C   UNL     1     -39.764  50.291 -53.110  1.00  0.00     0.036 A 
HETATM   23  C   UNL     1     -39.752  49.693 -54.467  1.00  0.00     0.070 C 
HETATM   24  N   UNL     1     -39.437  49.546 -52.005  1.00  0.00    -0.282 N 
HETATM   25  H   UNL     1     -39.157  48.572 -51.970  1.00  0.00     0.189 HD
HETATM   26  N   UNL     1     -39.528  50.218 -50.848  1.00  0.00    -0.186 NA
HETATM   27  C   UNL     1     -39.918  51.436 -51.227  1.00  0.00     0.153 A 
ENDBRANCH   1  21
TORSDOF 2
ENDMDL
MODEL 3
REMARK VINA RESULT:      -8.2     14.962     18.249
REMARK  2 active torsions:
REMARK  status: ('A' for Active; 'I' for Inactive)
REMARK    1  A    between atoms: C_7  and  C_8 
REMARK    2  A    between atoms: C_13  and  C_18 
ROOT
HETATM    1  C   UNL     1     -36.388  40.868 -57.581  1.00  0.00    -0.020 A 
HETATM    2  C   UNL     1     -35.556  41.988 -57.416  1.00  0.00     0.015 A 
HETATM    3  C   UNL     1     -35.236  42.482 -56.142  1.00  0.00     0.035 A 
HETATM    4  C   UNL     1     -35.763  41.832 -55.019  1.00  0.00     0.085 A 
HETATM    5  N   UNL     1     -35.603  42.110 -53.684  1.00  0.00    -0.233 NA
HETATM    6  C   UNL     1     -36.292  41.189 -53.040  1.00  0.00     0.111 A 
HETATM    7  N   UNL     1     -36.902  40.331 -53.928  1.00  0.00    -0.342 N 
HETATM    8  H   UNL     1     -37.469  39.533 -53.674  1.00  0.00     0.167 HD
HETATM    9  C   UNL     1     -36.583  40.726 -55.200  1.00  0.00     0.063 A 
HETATM   10  C   UNL     1     -36.927  40.219 -56.457  1.00  0.00     0.044 A 
ENDROOT
BRANCH   6  11
HETATM   11  C   UNL     1     -36.381  41.046 -51.544  1.00  0.00     0.084 C 
HETATM   12  C   UNL     1     -36.789  39.647 -51.087  1.00  0.00     0.188 C 
HETATM   13  O   UNL     1     -35.817  38.635 -51.394  1.00  0.00    -0.350 OA
HETATM   14  C   UNL     1     -34.524  38.964 -51.084  1.00  0.00     0.075 A 
HETATM   15  C   UNL     1     -33.609  37.911 -51.079  1.00  0.00     0.037 A 
HETATM   16  C   UNL     1     -34.093  40.275 -50.852  1.00  0.00    -0.024 A 
HETATM   17  C   UNL     1     -32.262  38.155 -50.813  1.00  0.00     0.003 A 
HETATM   18  C   UNL     1     -31.828  39.454 -50.557  1.00  0.00     0.001 A 
HETATM   19  C   UNL     1     -32.740  40.510 -50.574  1.00  0.00     0.010 A 
HETATM   20  C   UNL     1     -35.062  41.426 -50.871  1.00  0.00     0.056 C 
ENDBRANCH   6  11
BRANCH   1  21
HETATM   21  C   UNL     1     -36.707  40.408 -58.923  1.00  0.00     0.017 A 
HETATM   22  C   UNL     1     -37.134  41.193 -59.980  1.00  0.00     0.036 A 
HETATM   23  C   UNL     1     -37.403  42.644 -60.128  1.00  0.00     0.070 C 
HETATM   24  N   UNL     1     -37.321  40.328 -61.028  1.00  0.00    -0.282 N 
HETATM   25  H   UNL     1     -37.631  40.546 -61.969  1.00  0.00     0.189 HD
HETATM   26  N   UNL     1     -37.068  39.046 -60.729  1.00  0.00    -0.186 NA
HETATM   27  C   UNL     1     -36.699  39.093 -59.447  1.00  0.00     0.153 A 
ENDBRANCH   1  21
TORSDOF 2
ENDMDL
MODEL 4
REMARK VINA RESULT:      -8.1      2.194      3.432
REMARK  2 active torsions:
REMARK  status: ('A' for Active; 'I' for Inactive)
REMARK    1  A    between atoms: C_7  and  C_8 
REMARK    2  A    between atoms: C_13  and  C_18 
ROOT
HETATM    1  C   UNL     1     -40.392  52.722 -53.269  1.00  0.00    -0.020 A 
HETATM    2  C   UNL     1     -39.853  53.041 -54.527  1.00  0.00     0.015 A 
HETATM    3  C   UNL     1     -40.232  54.206 -55.211  1.00  0.00     0.035 A 
HETATM    4  C   UNL     1     -41.165  55.063 -54.613  1.00  0.00     0.085 A 
HETATM    5  N   UNL     1     -41.691  56.248 -55.066  1.00  0.00    -0.233 NA
HETATM    6  C   UNL     1     -42.510  56.662 -54.120  1.00  0.00     0.111 A 
HETATM    7  N   UNL     1     -42.534  55.767 -53.074  1.00  0.00    -0.342 N 
HETATM    8  H   UNL     1     -43.072  55.875 -52.224  1.00  0.00     0.167 HD
HETATM    9  C   UNL     1     -41.686  54.733 -53.369  1.00  0.00     0.063 A 
HETATM   10  C   UNL     1     -41.336  53.574 -52.670  1.00  0.00     0.044 A 
ENDROOT
BRANCH   6  11
HETATM   11  C   UNL     1     -43.287  57.950 -54.135  1.00  0.00     0.084 C 
HETATM   12  C   UNL     1     -42.406  59.196 -54.195  1.00  0.00     0.188 C 
HETATM   13  O   UNL     1     -41.666  59.319 -55.420  1.00  0.00    -0.350 OA
HETATM   14  C   UNL     1     -42.394  59.099 -56.559  1.00  0.00     0.075 A 
HETATM   15  C   UNL     1     -41.799  59.506 -57.753  1.00  0.00     0.037 A 
HETATM   16  C   UNL     1     -43.632  58.447 -56.573  1.00  0.00    -0.024 A 
HETATM   17  C   UNL     1     -42.448  59.288 -58.968  1.00  0.00     0.003 A 
HETATM   18  C   UNL     1     -43.691  58.660 -58.990  1.00  0.00     0.001 A 
HETATM   19  C   UNL     1     -44.282  58.243 -57.797  1.00  0.00     0.010 A 
HETATM   20  C   UNL     1     -44.281  57.986 -55.297  1.00  0.00     0.056 C 
ENDBRANCH   6  11
BRANCH   1  21
HETATM   21  C   UNL     1     -39.984  51.492 -52.610  1.00  0.00     0.017 A 
HETATM   22  C   UNL     1     -39.790  50.261 -53.215  1.00  0.00     0.036 A 
HETATM   23  C   UNL     1     -39.916  49.783 -54.613  1.00  0.00     0.070 C 
HETATM   24  N   UNL     1     -39.428  49.408 -52.205  1.00  0.00    -0.282 N 
HETATM   25  H   UNL     1     -39.206  48.420 -52.272  1.00  0.00     0.189 HD
HETATM   26  N   UNL     1     -39.391  49.981 -50.994  1.00  0.00    -0.186 NA
HETATM   27  C   UNL     1     -39.733  51.247 -51.239  1.00  0.00     0.153 A 
ENDBRANCH   1  21
TORSDOF 2
ENDMDL
MODEL 5
REMARK VINA RESULT:      -8.0      3.194      4.638
REMARK  2 active torsions:
REMARK  status: ('A' for Active; 'I' for Inactive)
REMARK    1  A    between atoms: C_7  and  C_8 
REMARK    2  A    between atoms: C_13  and  C_18 
ROOT
HETATM    1  C   UNL     1     -40.224  52.648 -52.137  1.00  0.00    -0.020 A 
HETATM    2  C   UNL     1     -39.828  52.864 -50.806  1.00  0.00     0.015 A 
HETATM    3  C   UNL     1     -40.070  54.086 -50.160  1.00  0.00     0.035 A 
HETATM    4  C   UNL     1     -40.726  55.101 -50.867  1.00  0.00     0.085 A 
HETATM    5  N   UNL     1     -41.079  56.367 -50.468  1.00  0.00    -0.233 NA
HETATM    6  C   UNL     1     -41.688  56.912 -51.502  1.00  0.00     0.111 A 
HETATM    7  N   UNL     1     -41.727  56.033 -52.561  1.00  0.00    -0.342 N 
HETATM    8  H   UNL     1     -42.160  56.216 -53.457  1.00  0.00     0.167 HD
HETATM    9  C   UNL     1     -41.112  54.870 -52.180  1.00  0.00     0.063 A 
HETATM   10  C   UNL     1     -40.874  53.668 -52.853  1.00  0.00     0.044 A 
ENDROOT
BRANCH   6  11
HETATM   11  C   UNL     1     -42.306  58.285 -51.532  1.00  0.00     0.084 C 
HETATM   12  C   UNL     1     -41.468  59.316 -52.286  1.00  0.00     0.188 C 
HETATM   13  O   UNL     1     -41.352  59.046 -53.692  1.00  0.00    -0.350 OA
HETATM   14  C   UNL     1     -42.528  58.723 -54.316  1.00  0.00     0.075 A 
HETATM   15  C   UNL     1     -42.510  58.758 -55.710  1.00  0.00     0.037 A 
HETATM   16  C   UNL     1     -43.678  58.310 -53.635  1.00  0.00    -0.024 A 
HETATM   17  C   UNL     1     -43.649  58.408 -56.434  1.00  0.00     0.003 A 
HETATM   18  C   UNL     1     -44.806  58.017 -55.764  1.00  0.00     0.001 A 
HETATM   19  C   UNL     1     -44.822  57.970 -54.370  1.00  0.00     0.010 A 
HETATM   20  C   UNL     1     -43.711  58.249 -52.132  1.00  0.00     0.056 C 
ENDBRANCH   6  11
BRANCH   1  21
HETATM   21  C   UNL     1     -39.931  51.372 -52.770  1.00  0.00     0.017 A 
HETATM   22  C   UNL     1     -39.696  50.170 -52.124  1.00  0.00     0.036 A 
HETATM   23  C   UNL     1     -39.655  49.772 -50.697  1.00  0.00     0.070 C 
HETATM   24  N   UNL     1     -39.455  49.259 -53.120  1.00  0.00    -0.282 N 
HETATM   25  H   UNL     1     -39.243  48.271 -53.025  1.00  0.00     0.189 HD
HETATM   26  N   UNL     1     -39.496  49.778 -54.356  1.00  0.00    -0.186 NA
HETATM   27  C   UNL     1     -39.781  51.064 -54.143  1.00  0.00     0.153 A 
ENDBRANCH   1  21
TORSDOF 2
ENDMDL
MODEL 6
REMARK VINA RESULT:      -7.9      3.677      5.391
REMARK  2 active torsions:
REMARK  status: ('A' for Active; 'I' for Inactive)
REMARK    1  A    between atoms: C_7  and  C_8 
REMARK    2  A    between atoms: C_13  and  C_18 
ROOT
HETATM    1  C   UNL     1     -40.336  52.621 -52.907  1.00  0.00    -0.020 A 
HETATM    2  C   UNL     1     -40.580  53.126 -51.619  1.00  0.00     0.015 A 
HETATM    3  C   UNL     1     -40.936  54.469 -51.415  1.00  0.00     0.035 A 
HETATM    4  C   UNL     1     -41.051  55.310 -52.528  1.00  0.00     0.085 A 
HETATM    5  N   UNL     1     -41.383  56.640 -52.598  1.00  0.00    -0.233 NA
HETATM    6  C   UNL     1     -41.367  56.948 -53.879  1.00  0.00     0.111 A 
HETATM    7  N   UNL     1     -41.021  55.852 -54.637  1.00  0.00    -0.342 N 
HETATM    8  H   UNL     1     -40.960  55.834 -55.647  1.00  0.00     0.167 HD
HETATM    9  C   UNL     1     -40.808  54.793 -53.794  1.00  0.00     0.063 A 
HETATM   10  C   UNL     1     -40.441  53.464 -54.027  1.00  0.00     0.044 A 
ENDROOT
BRANCH   6  11
HETATM   11  C   UNL     1     -41.718  58.290 -54.463  1.00  0.00     0.084 C 
HETATM   12  C   UNL     1     -43.171  58.398 -54.919  1.00  0.00     0.188 C 
HETATM   13  O   UNL     1     -44.119  58.322 -53.843  1.00  0.00    -0.350 OA
HETATM   14  C   UNL     1     -43.820  59.098 -52.755  1.00  0.00     0.075 A 
HETATM   15  C   UNL     1     -44.852  59.287 -51.836  1.00  0.00     0.037 A 
HETATM   16  C   UNL     1     -42.549  59.628 -52.508  1.00  0.00    -0.024 A 
HETATM   17  C   UNL     1     -44.631  60.031 -50.677  1.00  0.00     0.003 A 
HETATM   18  C   UNL     1     -43.375  60.582 -50.435  1.00  0.00     0.001 A 
HETATM   19  C   UNL     1     -42.338  60.384 -51.346  1.00  0.00     0.010 A 
HETATM   20  C   UNL     1     -41.418  59.420 -53.478  1.00  0.00     0.056 C 
ENDBRANCH   6  11
BRANCH   1  21
HETATM   21  C   UNL     1     -39.948  51.229 -53.065  1.00  0.00     0.017 A 
HETATM   22  C   UNL     1     -39.746  50.312 -52.047  1.00  0.00     0.036 A 
HETATM   23  C   UNL     1     -39.833  50.396 -50.569  1.00  0.00     0.070 C 
HETATM   24  N   UNL     1     -39.384  49.145 -52.669  1.00  0.00    -0.282 N 
HETATM   25  H   UNL     1     -39.156  48.254 -52.241  1.00  0.00     0.189 HD
HETATM   26  N   UNL     1     -39.317  49.238 -54.005  1.00  0.00    -0.186 NA
HETATM   27  C   UNL     1     -39.656  50.506 -54.246  1.00  0.00     0.153 A 
ENDBRANCH   1  21
TORSDOF 2
ENDMDL
MODEL 7
REMARK VINA RESULT:      -7.8      1.627      2.339
REMARK  2 active torsions:
REMARK  status: ('A' for Active; 'I' for Inactive)
REMARK    1  A    between atoms: C_7  and  C_8 
REMARK    2  A    between atoms: C_13  and  C_18 
ROOT
HETATM    1  C   UNL     1     -41.792  56.023 -53.936  1.00  0.00    -0.020 A 
HETATM    2  C   UNL     1     -41.881  57.341 -53.456  1.00  0.00     0.015 A 
HETATM    3  C   UNL     1     -42.060  58.427 -54.327  1.00  0.00     0.035 A 
HETATM    4  C   UNL     1     -42.154  58.176 -55.702  1.00  0.00     0.085 A 
HETATM    5  N   UNL     1     -42.330  59.049 -56.747  1.00  0.00    -0.233 NA
HETATM    6  C   UNL     1     -42.369  58.305 -57.834  1.00  0.00     0.111 A 
HETATM    7  N   UNL     1     -42.211  56.974 -57.516  1.00  0.00    -0.342 N 
HETATM    8  H   UNL     1     -42.225  56.209 -58.178  1.00  0.00     0.167 HD
HETATM    9  C   UNL     1     -42.066  56.868 -56.159  1.00  0.00     0.063 A 
HETATM   10  C   UNL     1     -41.877  55.768 -55.316  1.00  0.00     0.044 A 
ENDROOT
BRANCH   6  11
HETATM   11  C   UNL     1     -42.598  58.808 -59.234  1.00  0.00     0.084 C 
HETATM   12  C   UNL     1     -42.043  57.883 -60.315  1.00  0.00     0.188 C 
HETATM   13  O   UNL     1     -42.705  56.610 -60.379  1.00  0.00    -0.350 OA
HETATM   14  C   UNL     1     -44.073  56.670 -60.349  1.00  0.00     0.075 A 
HETATM   15  C   UNL     1     -44.744  55.502 -60.715  1.00  0.00     0.037 A 
HETATM   16  C   UNL     1     -44.790  57.790 -59.916  1.00  0.00    -0.024 A 
HETATM   17  C   UNL     1     -46.137  55.455 -60.678  1.00  0.00     0.003 A 
HETATM   18  C   UNL     1     -46.860  56.573 -60.270  1.00  0.00     0.001 A 
HETATM   19  C   UNL     1     -46.191  57.737 -59.893  1.00  0.00     0.010 A 
HETATM   20  C   UNL     1     -44.084  59.051 -59.500  1.00  0.00     0.056 C 
ENDBRANCH   6  11
BRANCH   1  21
HETATM   21  C   UNL     1     -41.585  54.934 -52.995  1.00  0.00     0.017 A 
HETATM   22  C   UNL     1     -40.879  53.767 -53.232  1.00  0.00     0.036 A 
HETATM   23  C   UNL     1     -40.149  53.241 -54.411  1.00  0.00     0.070 C 
HETATM   24  N   UNL     1     -40.966  53.043 -52.072  1.00  0.00    -0.282 N 
HETATM   25  H   UNL     1     -40.568  52.130 -51.874  1.00  0.00     0.189 HD
HETATM   26  N   UNL     1     -41.686  53.637 -51.110  1.00  0.00    -0.186 NA
HETATM   27  C   UNL     1     -42.067  54.786 -51.673  1.00  0.00     0.153 A 
ENDBRANCH   1  21
TORSDOF 2
ENDMDL
MODEL 8
REMARK VINA RESULT:      -7.7      1.695      2.085
REMARK  2 active torsions:
REMARK  status: ('A' for Active; 'I' for Inactive)
REMARK    1  A    between atoms: C_7  and  C_8 
REMARK    2  A    between atoms: C_13  and  C_18 
ROOT
HETATM    1  C   UNL     1     -41.712  54.760 -53.607  1.00  0.00    -0.020 A 
HETATM    2  C   UNL     1     -42.568  53.850 -54.249  1.00  0.00     0.015 A 
HETATM    3  C   UNL     1     -43.094  54.113 -55.523  1.00  0.00     0.035 A 
HETATM    4  C   UNL     1     -42.746  55.311 -56.159  1.00  0.00     0.085 A 
HETATM    5  N   UNL     1     -43.117  55.797 -57.389  1.00  0.00    -0.233 NA
HETATM    6  C   UNL     1     -42.501  56.955 -57.518  1.00  0.00     0.111 A 
HETATM    7  N   UNL     1     -41.751  57.233 -56.397  1.00  0.00    -0.342 N 
HETATM    8  H   UNL     1     -41.174  58.054 -56.268  1.00  0.00     0.167 HD
HETATM    9  C   UNL     1     -41.897  56.198 -55.511  1.00  0.00     0.063 A 
HETATM   10  C   UNL     1     -41.367  55.968 -54.238  1.00  0.00     0.044 A 
ENDROOT
BRANCH   6  11
HETATM   11  C   UNL     1     -42.556  57.847 -58.729  1.00  0.00     0.084 C 
HETATM   12  C   UNL     1     -42.123  57.154 -60.019  1.00  0.00     0.188 C 
HETATM   13  O   UNL     1     -43.005  56.097 -60.428  1.00  0.00    -0.350 OA
HETATM   14  C   UNL     1     -44.338  56.409 -60.387  1.00  0.00     0.075 A 
HETATM   15  C   UNL     1     -45.192  55.534 -61.058  1.00  0.00     0.037 A 
HETATM   16  C   UNL     1     -44.858  57.491 -59.667  1.00  0.00    -0.024 A 
HETATM   17  C   UNL     1     -46.570  55.749 -61.039  1.00  0.00     0.003 A 
HETATM   18  C   UNL     1     -47.094  56.836 -60.344  1.00  0.00     0.001 A 
HETATM   19  C   UNL     1     -46.243  57.705 -59.663  1.00  0.00     0.010 A 
HETATM   20  C   UNL     1     -43.954  58.435 -58.923  1.00  0.00     0.056 C 
ENDBRANCH   6  11
BRANCH   1  21
HETATM   21  C   UNL     1     -41.210  54.452 -52.278  1.00  0.00     0.017 A 
HETATM   22  C   UNL     1     -41.424  55.192 -51.128  1.00  0.00     0.036 A 
HETATM   23  C   UNL     1     -42.161  56.448 -50.848  1.00  0.00     0.070 C 
HETATM   24  N   UNL     1     -40.753  54.528 -50.133  1.00  0.00    -0.282 N 
HETATM   25  H   UNL     1     -40.685  54.778 -49.152  1.00  0.00     0.189 HD
HETATM   26  N   UNL     1     -40.109  53.428 -50.550  1.00  0.00    -0.186 NA
HETATM   27  C   UNL     1     -40.383  53.384 -51.855  1.00  0.00     0.153 A 
ENDBRANCH   1  21
TORSDOF 2
ENDMDL
MODEL 9
REMARK VINA RESULT:      -7.6      2.344      3.348
REMARK  2 active torsions:
REMARK  status: ('A' for Active; 'I' for Inactive)
REMARK    1  A    between atoms: C_7  and  C_8 
REMARK    2  A    between atoms: C_13  and  C_18 
ROOT
HETATM    1  C   UNL     1     -41.546  53.969 -51.983  1.00  0.00    -0.020 A 
HETATM    2  C   UNL     1     -42.760  53.998 -51.276  1.00  0.00     0.015 A 
HETATM    3  C   UNL     1     -43.607  55.117 -51.322  1.00  0.00     0.035 A 
HETATM    4  C   UNL     1     -43.223  56.218 -52.097  1.00  0.00     0.085 A 
HETATM    5  N   UNL     1     -43.864  57.414 -52.308  1.00  0.00    -0.233 NA
HETATM    6  C   UNL     1     -43.092  58.095 -53.130  1.00  0.00     0.111 A 
HETATM    7  N   UNL     1     -41.963  57.373 -53.445  1.00  0.00    -0.342 N 
HETATM    8  H   UNL     1     -41.230  57.677 -54.073  1.00  0.00     0.167 HD
HETATM    9  C   UNL     1     -42.022  56.171 -52.792  1.00  0.00     0.063 A 
HETATM   10  C   UNL     1     -41.153  55.076 -52.755  1.00  0.00     0.044 A 
ENDROOT
BRANCH   6  11
HETATM   11  C   UNL     1     -43.398  59.455 -53.697  1.00  0.00     0.084 C 
HETATM   12  C   UNL     1     -42.182  60.155 -54.301  1.00  0.00     0.188 C 
HETATM   13  O   UNL     1     -41.658  59.496 -55.464  1.00  0.00    -0.350 OA
HETATM   14  C   UNL     1     -42.597  59.121 -56.387  1.00  0.00     0.075 A 
HETATM   15  C   UNL     1     -42.109  58.765 -57.645  1.00  0.00     0.037 A 
HETATM   16  C   UNL     1     -43.963  59.020 -56.105  1.00  0.00    -0.024 A 
HETATM   17  C   UNL     1     -42.987  58.332 -58.639  1.00  0.00     0.003 A 
HETATM   18  C   UNL     1     -44.352  58.251 -58.374  1.00  0.00     0.001 A 
HETATM   19  C   UNL     1     -44.839  58.595 -57.113  1.00  0.00     0.010 A 
HETATM   20  C   UNL     1     -44.505  59.382 -54.749  1.00  0.00     0.056 C 
ENDBRANCH   6  11
BRANCH   1  21
HETATM   21  C   UNL     1     -40.693  52.796 -51.886  1.00  0.00     0.017 A 
HETATM   22  C   UNL     1     -40.152  52.083 -52.943  1.00  0.00     0.036 A 
HETATM   23  C   UNL     1     -40.235  52.229 -54.417  1.00  0.00     0.070 C 
HETATM   24  N   UNL     1     -39.437  51.063 -52.371  1.00  0.00    -0.282 N 
HETATM   25  H   UNL     1     -38.903  50.337 -52.838  1.00  0.00     0.189 HD
HETATM   26  N   UNL     1     -39.486  51.046 -51.032  1.00  0.00    -0.186 NA
HETATM   27  C   UNL     1     -40.253  52.097 -50.736  1.00  0.00     0.153 A 
ENDBRANCH   1  21
TORSDOF 2
ENDMDL
MODEL 10
REMARK VINA RESULT:      -7.5      1.748      3.188
REMARK  2 active torsions:
REMARK  status: ('A' for Active; 'I' for Inactive)
REMARK    1  A    between atoms: C_7  and  C_8 
REMARK    2  A    between atoms: C_13  and  C_18 
ROOT
HETATM    1  C   UNL     1     -41.422  54.545 -53.726  1.00  0.00    -0.020 A 
HETATM    2  C   UNL     1     -41.008  55.887 -53.737  1.00  0.00     0.015 A 
HETATM    3  C   UNL     1     -41.354  56.752 -54.787  1.00  0.00     0.035 A 
HETATM    4  C   UNL     1     -42.132  56.252 -55.839  1.00  0.00     0.085 A 
HETATM    5  N   UNL     1     -42.601  56.882 -56.966  1.00  0.00    -0.233 NA
HETATM    6  C   UNL     1     -43.296  55.975 -57.622  1.00  0.00     0.111 A 
HETATM    7  N   UNL     1     -43.277  54.772 -56.952  1.00  0.00    -0.342 N 
HETATM    8  H   UNL     1     -43.755  53.930 -57.247  1.00  0.00     0.167 HD
HETATM    9  C   UNL     1     -42.535  54.923 -55.811  1.00  0.00     0.063 A 
HETATM   10  C   UNL     1     -42.195  54.037 -54.784  1.00  0.00     0.044 A 
ENDROOT
BRANCH   6  11
HETATM   11  C   UNL     1     -44.051  56.206 -58.903  1.00  0.00     0.084 C 
HETATM   12  C   UNL     1     -45.242  57.150 -58.749  1.00  0.00     0.188 C 
HETATM   13  O   UNL     1     -44.869  58.496 -58.414  1.00  0.00    -0.350 OA
HETATM   14  C   UNL     1     -43.844  59.013 -59.161  1.00  0.00     0.075 A 
HETATM   15  C   UNL     1     -43.665  60.394 -59.079  1.00  0.00     0.037 A 
HETATM   16  C   UNL     1     -42.965  58.230 -59.916  1.00  0.00    -0.024 A 
HETATM   17  C   UNL     1     -42.622  61.007 -59.774  1.00  0.00     0.003 A 
HETATM   18  C   UNL     1     -41.756  60.238 -60.547  1.00  0.00     0.001 A 
HETATM   19  C   UNL     1     -41.927  58.856 -60.620  1.00  0.00     0.010 A 
HETATM   20  C   UNL     1     -43.132  56.738 -60.002  1.00  0.00     0.056 C 
ENDBRANCH   6  11
BRANCH   1  21
HETATM   21  C   UNL     1     -41.019  53.684 -52.626  1.00  0.00     0.017 A 
HETATM   22  C   UNL     1     -40.271  52.523 -52.723  1.00  0.00     0.036 A 
HETATM   23  C   UNL     1     -39.666  51.795 -53.864  1.00  0.00     0.070 C 
HETATM   24  N   UNL     1     -40.155  52.052 -51.441  1.00  0.00    -0.282 N 
HETATM   25  H   UNL     1     -39.673  51.217 -51.124  1.00  0.00     0.189 HD
HETATM   26  N   UNL     1     -40.784  52.802 -50.525  1.00  0.00    -0.186 NA
HETATM   27  C   UNL     1     -41.313  53.793 -51.246  1.00  0.00     0.153 A 
ENDBRANCH   1  21
TORSDOF 2
ENDMDL
