MODEL 1
REMARK VINA RESULT:      -8.7      0.000      0.000
REMARK  6 active torsions:
REMARK  status: ('A' for Active; 'I' for Inactive)
REMARK    1  A    between atoms: C_2  and  C_3 
REMARK    2  A    between atoms: C_3  and  C_4 
REMARK    3  A    between atoms: C_3  and  C_10 
REMARK    4  A    between atoms: C_10  and  C_11 
REMARK       I    between atoms: C_11  and  N_12 
REMARK    5  A    between atoms: N_12  and  C_13 
REMARK    6  A    between atoms: C_20  and  C_21 
REMARK       I    between atoms: C_21  and  N_22 
ROOT
HETATM    1  C   UNL     1     -42.555  56.507 -56.818  1.00  0.00     0.035 A 
HETATM    2  C   UNL     1     -43.177  55.818 -57.868  1.00  0.00     0.046 A 
HETATM    3  C   UNL     1     -44.084  56.499 -58.710  1.00  0.00     0.030 A 
HETATM    4  C   UNL     1     -44.342  57.842 -58.468  1.00  0.00     0.063 A 
HETATM    5  N   UNL     1     -45.252  58.213 -59.418  1.00  0.00    -0.277 N 
HETATM    6  H   UNL     1     -45.675  59.126 -59.539  1.00  0.00     0.189 HD
HETATM    7  N   UNL     1     -45.597  57.235 -60.272  1.00  0.00    -0.168 NA
HETATM    8  C   UNL     1     -44.878  56.169 -59.849  1.00  0.00     0.156 A 
HETATM    9  C   UNL     1     -43.737  58.562 -57.436  1.00  0.00     0.034 A 
HETATM   10  C   UNL     1     -42.832  57.867 -56.623  1.00  0.00     0.032 A 
ENDROOT
BRANCH   1  11
HETATM   11  N   UNL     1     -41.628  55.912 -55.934  1.00  0.00    -0.327 N 
HETATM   12  C   UNL     1     -41.876  55.452 -54.657  1.00  0.00     0.222 C 
HETATM   13  O   UNL     1     -42.956  55.520 -54.071  1.00  0.00    -0.273 OA
HETATM   14  H   UNL     1     -40.661  55.980 -56.217  1.00  0.00     0.169 HD
BRANCH  12  15
HETATM   15  C   UNL     1     -40.717  54.737 -53.968  1.00  0.00     0.112 C 
BRANCH  15  16
HETATM   16  C   UNL     1     -41.014  53.756 -52.818  1.00  0.00     0.027 C 
BRANCH  16  17
HETATM   17  C   UNL     1     -40.481  54.285 -51.465  1.00  0.00     0.005 C 
HETATM   18  C   UNL     1     -41.212  55.519 -50.952  1.00  0.00     0.006 C 
ENDBRANCH  16  17
BRANCH  16  19
HETATM   19  C   UNL     1     -40.483  52.345 -53.027  1.00  0.00    -0.054 A 
HETATM   20  C   UNL     1     -40.547  51.697 -54.269  1.00  0.00     0.007 A 
HETATM   21  C   UNL     1     -40.065  50.395 -54.417  1.00  0.00     0.001 A 
HETATM   22  C   UNL     1     -39.499  49.730 -53.332  1.00  0.00     0.000 A 
HETATM   23  C   UNL     1     -39.409  50.367 -52.097  1.00  0.00     0.001 A 
HETATM   24  C   UNL     1     -39.895  51.667 -51.946  1.00  0.00     0.007 A 
ENDBRANCH  16  19
ENDBRANCH  15  16
ENDBRANCH  12  15
ENDBRANCH   1  11
BRANCH   8  25
HETATM   25  C   UNL     1     -44.959  54.874 -60.541  1.00  0.00     0.270 C 
HETATM   26  N   UNL     1     -45.118  53.804 -59.702  1.00  0.00    -0.365 N 
HETATM   27  H   UNL     1     -45.178  53.973 -58.705  1.00  0.00     0.159 HD
HETATM   28  H   UNL     1     -45.198  52.877 -60.088  1.00  0.00     0.159 HD
HETATM   29  O   UNL     1     -44.903  54.723 -61.756  1.00  0.00    -0.266 OA
ENDBRANCH   8  25
TORSDOF 6
ENDMDL
MODEL 2
REMARK VINA RESULT:      -8.3      1.911      3.412
REMARK  6 active torsions:
REMARK  status: ('A' for Active; 'I' for Inactive)
REMARK    1  A    between atoms: C_2  and  C_3 
REMARK    2  A    between atoms: C_3  and  C_4 
REMARK    3  A    between atoms: C_3  and  C_10 
REMARK    4  A    between atoms: C_10  and  C_11 
REMARK       I    between atoms: C_11  and  N_12 
REMARK    5  A    between atoms: N_12  and  C_13 
REMARK    6  A    between atoms: C_20  and  C_21 
REMARK       I    between atoms: C_21  and  N_22 
ROOT
HETATM    1  C   UNL     1     -42.770  55.210 -55.514  1.00  0.00     0.035 A 
HETATM    2  C   UNL     1     -42.679  55.479 -56.887  1.00  0.00     0.046 A 
HETATM    3  C   UNL     1     -43.171  56.702 -57.392  1.00  0.00     0.030 A 
HETATM    4  C   UNL     1     -43.744  57.609 -56.510  1.00  0.00     0.063 A 
HETATM    5  N   UNL     1     -44.133  58.668 -57.281  1.00  0.00    -0.277 N 
HETATM    6  H   UNL     1     -44.598  59.514 -56.972  1.00  0.00     0.189 HD
HETATM    7  N   UNL     1     -43.848  58.542 -58.587  1.00  0.00    -0.168 NA
HETATM    8  C   UNL     1     -43.248  57.332 -58.672  1.00  0.00     0.156 A 
HETATM    9  C   UNL     1     -43.847  57.377 -55.137  1.00  0.00     0.034 A 
HETATM   10  C   UNL     1     -43.339  56.162 -54.659  1.00  0.00     0.032 A 
ENDROOT
BRANCH   1  11
HETATM   11  N   UNL     1     -42.295  54.020 -54.919  1.00  0.00    -0.327 N 
HETATM   12  C   UNL     1     -40.978  53.661 -54.717  1.00  0.00     0.222 C 
HETATM   13  O   UNL     1     -39.998  54.321 -55.059  1.00  0.00    -0.273 OA
HETATM   14  H   UNL     1     -42.992  53.303 -54.777  1.00  0.00     0.169 HD
BRANCH  12  15
HETATM   15  C   UNL     1     -40.750  52.370 -53.936  1.00  0.00     0.112 C 
BRANCH  15  16
HETATM   16  C   UNL     1     -39.873  52.401 -52.669  1.00  0.00     0.027 C 
BRANCH  16  17
HETATM   17  C   UNL     1     -39.576  50.976 -52.146  1.00  0.00     0.005 C 
HETATM   18  C   UNL     1     -39.695  49.891 -53.208  1.00  0.00     0.006 C 
ENDBRANCH  16  17
BRANCH  16  19
HETATM   19  C   UNL     1     -40.435  53.229 -51.522  1.00  0.00    -0.054 A 
HETATM   20  C   UNL     1     -41.785  53.600 -51.457  1.00  0.00     0.007 A 
HETATM   21  C   UNL     1     -42.260  54.375 -50.396  1.00  0.00     0.001 A 
HETATM   22  C   UNL     1     -41.395  54.776 -49.381  1.00  0.00     0.000 A 
HETATM   23  C   UNL     1     -40.055  54.398 -49.420  1.00  0.00     0.001 A 
HETATM   24  C   UNL     1     -39.579  53.628 -50.481  1.00  0.00     0.007 A 
ENDBRANCH  16  19
ENDBRANCH  15  16
ENDBRANCH  12  15
ENDBRANCH   1  11
BRANCH   8  25
HETATM   25  C   UNL     1     -42.759  56.812 -59.957  1.00  0.00     0.270 C 
HETATM   26  N   UNL     1     -41.450  57.114 -60.218  1.00  0.00    -0.365 N 
HETATM   27  H   UNL     1     -40.927  57.643 -59.530  1.00  0.00     0.159 HD
HETATM   28  H   UNL     1     -41.024  56.787 -61.070  1.00  0.00     0.159 HD
HETATM   29  O   UNL     1     -43.427  56.156 -60.748  1.00  0.00    -0.266 OA
ENDBRANCH   8  25
TORSDOF 6
ENDMDL
MODEL 3
REMARK VINA RESULT:      -8.1      2.894      8.824
REMARK  6 active torsions:
REMARK  status: ('A' for Active; 'I' for Inactive)
REMARK    1  A    between atoms: C_2  and  C_3 
REMARK    2  A    between atoms: C_3  and  C_4 
REMARK    3  A    between atoms: C_3  and  C_10 
REMARK    4  A    between atoms: C_10  and  C_11 
REMARK       I    between atoms: C_11  and  N_12 
REMARK    5  A    between atoms: N_12  and  C_13 
REMARK    6  A    between atoms: C_20  and  C_21 
REMARK       I    between atoms: C_21  and  N_22 
ROOT
HETATM    1  C   UNL     1     -40.933  54.506 -54.342  1.00  0.00     0.035 A 
HETATM    2  C   UNL     1     -41.114  54.563 -52.953  1.00  0.00     0.046 A 
HETATM    3  C   UNL     1     -40.688  53.484 -52.149  1.00  0.00     0.030 A 
HETATM    4  C   UNL     1     -40.103  52.383 -52.760  1.00  0.00     0.063 A 
HETATM    5  N   UNL     1     -39.816  51.515 -51.745  1.00  0.00    -0.277 N 
HETATM    6  H   UNL     1     -39.389  50.598 -51.823  1.00  0.00     0.189 HD
HETATM    7  N   UNL     1     -40.144  51.959 -50.521  1.00  0.00    -0.168 NA
HETATM    8  C   UNL     1     -40.680  53.180 -50.754  1.00  0.00     0.156 A 
HETATM    9  C   UNL     1     -39.902  52.294 -54.139  1.00  0.00     0.034 A 
HETATM   10  C   UNL     1     -40.322  53.383 -54.914  1.00  0.00     0.032 A 
ENDROOT
BRANCH   1  11
HETATM   11  N   UNL     1     -41.318  55.541 -55.223  1.00  0.00    -0.327 N 
HETATM   12  C   UNL     1     -42.394  55.539 -56.087  1.00  0.00     0.222 C 
HETATM   13  O   UNL     1     -43.179  54.606 -56.247  1.00  0.00    -0.273 OA
HETATM   14  H   UNL     1     -40.641  56.282 -55.336  1.00  0.00     0.169 HD
BRANCH  12  15
HETATM   15  C   UNL     1     -42.650  56.843 -56.837  1.00  0.00     0.112 C 
BRANCH  15  16
HETATM   16  C   UNL     1     -42.576  56.854 -58.376  1.00  0.00     0.027 C 
BRANCH  16  17
HETATM   17  C   UNL     1     -42.086  58.219 -58.913  1.00  0.00     0.005 C 
HETATM   18  C   UNL     1     -41.895  58.257 -60.424  1.00  0.00     0.006 C 
ENDBRANCH  16  17
BRANCH  16  19
HETATM   19  C   UNL     1     -43.877  56.497 -59.082  1.00  0.00    -0.054 A 
HETATM   20  C   UNL     1     -45.038  57.273 -58.950  1.00  0.00     0.007 A 
HETATM   21  C   UNL     1     -46.217  56.904 -59.600  1.00  0.00     0.001 A 
HETATM   22  C   UNL     1     -46.248  55.765 -60.401  1.00  0.00     0.000 A 
HETATM   23  C   UNL     1     -45.098  54.995 -60.559  1.00  0.00     0.001 A 
HETATM   24  C   UNL     1     -43.920  55.360 -59.907  1.00  0.00     0.007 A 
ENDBRANCH  16  19
ENDBRANCH  15  16
ENDBRANCH  12  15
ENDBRANCH   1  11
BRANCH   8  25
HETATM   25  C   UNL     1     -41.162  54.023 -49.650  1.00  0.00     0.270 C 
HETATM   26  N   UNL     1     -40.211  54.304 -48.708  1.00  0.00    -0.365 N 
HETATM   27  H   UNL     1     -39.276  53.937 -48.837  1.00  0.00     0.159 HD
HETATM   28  H   UNL     1     -40.446  54.888 -47.921  1.00  0.00     0.159 HD
HETATM   29  O   UNL     1     -42.303  54.462 -49.549  1.00  0.00    -0.266 OA
ENDBRANCH   8  25
TORSDOF 6
ENDMDL
MODEL 4
REMARK VINA RESULT:      -7.9      4.525      6.531
REMARK  6 active torsions:
REMARK  status: ('A' for Active; 'I' for Inactive)
REMARK    1  A    between atoms: C_2  and  C_3 
REMARK    2  A    between atoms: C_3  and  C_4 
REMARK    3  A    between atoms: C_3  and  C_10 
REMARK    4  A    between atoms: C_10  and  C_11 
REMARK       I    between atoms: C_11  and  N_12 
REMARK    5  A    between atoms: N_12  and  C_13 
REMARK    6  A    between atoms: C_20  and  C_21 
REMARK       I    between atoms: C_21  and  N_22 
ROOT
HETATM    1  C   UNL     1     -41.896  57.673 -51.885  1.00  0.00     0.035 A 
HETATM    2  C   UNL     1     -43.112  58.371 -51.898  1.00  0.00     0.046 A 
HETATM    3  C   UNL     1     -43.194  59.641 -51.287  1.00  0.00     0.030 A 
HETATM    4  C   UNL     1     -42.061  60.166 -50.677  1.00  0.00     0.063 A 
HETATM    5  N   UNL     1     -42.449  61.374 -50.172  1.00  0.00    -0.277 N 
HETATM    6  H   UNL     1     -41.880  62.033 -49.652  1.00  0.00     0.189 HD
HETATM    7  N   UNL     1     -43.731  61.695 -50.413  1.00  0.00    -0.168 NA
HETATM    8  C   UNL     1     -44.204  60.634 -51.107  1.00  0.00     0.156 A 
HETATM    9  C   UNL     1     -40.833  59.502 -50.651  1.00  0.00     0.034 A 
HETATM   10  C   UNL     1     -40.775  58.249 -51.276  1.00  0.00     0.032 A 
ENDROOT
BRANCH   1  11
HETATM   11  N   UNL     1     -41.718  56.404 -52.480  1.00  0.00    -0.327 N 
HETATM   12  C   UNL     1     -42.241  55.203 -52.046  1.00  0.00     0.222 C 
HETATM   13  O   UNL     1     -42.929  55.046 -51.039  1.00  0.00    -0.273 OA
HETATM   14  H   UNL     1     -41.009  56.363 -53.198  1.00  0.00     0.169 HD
BRANCH  12  15
HETATM   15  C   UNL     1     -41.990  54.001 -52.952  1.00  0.00     0.112 C 
BRANCH  15  16
HETATM   16  C   UNL     1     -40.544  53.638 -53.340  1.00  0.00     0.027 C 
BRANCH  16  17
HETATM   17  C   UNL     1     -40.222  54.057 -54.794  1.00  0.00     0.005 C 
HETATM   18  C   UNL     1     -41.430  54.557 -55.575  1.00  0.00     0.006 C 
ENDBRANCH  16  17
BRANCH  16  19
HETATM   19  C   UNL     1     -40.186  52.168 -53.171  1.00  0.00    -0.054 A 
HETATM   20  C   UNL     1     -39.777  51.633 -51.941  1.00  0.00     0.007 A 
HETATM   21  C   UNL     1     -39.440  50.283 -51.830  1.00  0.00     0.001 A 
HETATM   22  C   UNL     1     -39.520  49.447 -52.942  1.00  0.00     0.000 A 
HETATM   23  C   UNL     1     -39.943  49.959 -54.165  1.00  0.00     0.001 A 
HETATM   24  C   UNL     1     -40.277  51.308 -54.279  1.00  0.00     0.007 A 
ENDBRANCH  16  19
ENDBRANCH  15  16
ENDBRANCH  12  15
ENDBRANCH   1  11
BRANCH   8  25
HETATM   25  C   UNL     1     -45.594  60.595 -51.584  1.00  0.00     0.270 C 
HETATM   26  N   UNL     1     -45.730  60.838 -52.924  1.00  0.00    -0.365 N 
HETATM   27  H   UNL     1     -44.896  61.009 -53.473  1.00  0.00     0.159 HD
HETATM   28  H   UNL     1     -46.646  60.818 -53.343  1.00  0.00     0.159 HD
HETATM   29  O   UNL     1     -46.571  60.362 -50.881  1.00  0.00    -0.266 OA
ENDBRANCH   8  25
TORSDOF 6
ENDMDL
MODEL 5
REMARK VINA RESULT:      -7.8      2.342      4.250
REMARK  6 active torsions:
REMARK  status: ('A' for Active; 'I' for Inactive)
REMARK    1  A    between atoms: C_2  and  C_3 
REMARK    2  A    between atoms: C_3  and  C_4 
REMARK    3  A    between atoms: C_3  and  C_10 
REMARK    4  A    between atoms: C_10  and  C_11 
REMARK       I    between atoms: C_11  and  N_12 
REMARK    5  A    between atoms: N_12  and  C_13 
REMARK    6  A    between atoms: C_20  and  C_21 
REMARK       I    between atoms: C_21  and  N_22 
ROOT
HETATM    1  C   UNL     1     -42.765  55.659 -56.891  1.00  0.00     0.035 A 
HETATM    2  C   UNL     1     -42.402  57.012 -56.838  1.00  0.00     0.046 A 
HETATM    3  C   UNL     1     -42.543  57.818 -57.988  1.00  0.00     0.030 A 
HETATM    4  C   UNL     1     -43.034  57.243 -59.153  1.00  0.00     0.063 A 
HETATM    5  N   UNL     1     -43.041  58.248 -60.078  1.00  0.00    -0.277 N 
HETATM    6  H   UNL     1     -43.331  58.188 -61.048  1.00  0.00     0.189 HD
HETATM    7  N   UNL     1     -42.616  59.435 -59.617  1.00  0.00    -0.168 NA
HETATM    8  C   UNL     1     -42.308  59.186 -58.322  1.00  0.00     0.156 A 
HETATM    9  C   UNL     1     -43.411  55.901 -59.241  1.00  0.00     0.034 A 
HETATM   10  C   UNL     1     -43.274  55.126 -58.082  1.00  0.00     0.032 A 
ENDROOT
BRANCH   1  11
HETATM   11  N   UNL     1     -42.669  54.781 -55.789  1.00  0.00    -0.327 N 
HETATM   12  C   UNL     1     -41.513  54.333 -55.183  1.00  0.00     0.222 C 
HETATM   13  O   UNL     1     -40.368  54.611 -55.535  1.00  0.00    -0.273 OA
HETATM   14  H   UNL     1     -43.530  54.320 -55.531  1.00  0.00     0.169 HD
BRANCH  12  15
HETATM   15  C   UNL     1     -41.703  53.485 -53.928  1.00  0.00     0.112 C 
BRANCH  15  16
HETATM   16  C   UNL     1     -40.514  53.283 -52.968  1.00  0.00     0.027 C 
BRANCH  16  17
HETATM   17  C   UNL     1     -40.093  51.797 -52.887  1.00  0.00     0.005 C 
HETATM   18  C   UNL     1     -40.075  51.085 -54.234  1.00  0.00     0.006 C 
ENDBRANCH  16  17
BRANCH  16  19
HETATM   19  C   UNL     1     -40.739  53.798 -51.553  1.00  0.00    -0.054 A 
HETATM   20  C   UNL     1     -41.939  54.409 -51.160  1.00  0.00     0.007 A 
HETATM   21  C   UNL     1     -42.101  54.884 -49.857  1.00  0.00     0.001 A 
HETATM   22  C   UNL     1     -41.074  54.743 -48.928  1.00  0.00     0.000 A 
HETATM   23  C   UNL     1     -39.884  54.121 -49.297  1.00  0.00     0.001 A 
HETATM   24  C   UNL     1     -39.719  53.649 -50.599  1.00  0.00     0.007 A 
ENDBRANCH  16  19
ENDBRANCH  15  16
ENDBRANCH  12  15
ENDBRANCH   1  11
BRANCH   8  25
HETATM   25  C   UNL     1     -41.809  60.251 -57.440  1.00  0.00     0.270 C 
HETATM   26  N   UNL     1     -42.568  60.447 -56.318  1.00  0.00    -0.365 N 
HETATM   27  H   UNL     1     -43.381  59.860 -56.174  1.00  0.00     0.159 HD
HETATM   28  H   UNL     1     -42.294  61.147 -55.648  1.00  0.00     0.159 HD
HETATM   29  O   UNL     1     -40.803  60.921 -57.648  1.00  0.00    -0.266 OA
ENDBRANCH   8  25
TORSDOF 6
ENDMDL
MODEL 6
REMARK VINA RESULT:      -7.6     14.884     17.359
REMARK  6 active torsions:
REMARK  status: ('A' for Active; 'I' for Inactive)
REMARK    1  A    between atoms: C_2  and  C_3 
REMARK    2  A    between atoms: C_3  and  C_4 
REMARK    3  A    between atoms: C_3  and  C_10 
REMARK    4  A    between atoms: C_10  and  C_11 
REMARK       I    between atoms: C_11  and  N_12 
REMARK    5  A    between atoms: N_12  and  C_13 
REMARK    6  A    between atoms: C_20  and  C_21 
REMARK       I    between atoms: C_21  and  N_22 
ROOT
HETATM    1  C   UNL     1     -36.832  41.546 -56.974  1.00  0.00     0.035 A 
HETATM    2  C   UNL     1     -37.453  41.254 -55.752  1.00  0.00     0.046 A 
HETATM    3  C   UNL     1     -36.821  41.617 -54.543  1.00  0.00     0.030 A 
HETATM    4  C   UNL     1     -35.587  42.253 -54.597  1.00  0.00     0.063 A 
HETATM    5  N   UNL     1     -35.229  42.460 -53.295  1.00  0.00    -0.277 N 
HETATM    6  H   UNL     1     -34.378  42.894 -52.954  1.00  0.00     0.189 HD
HETATM    7  N   UNL     1     -36.128  42.033 -52.394  1.00  0.00    -0.168 NA
HETATM    8  C   UNL     1     -37.123  41.513 -53.151  1.00  0.00     0.156 A 
HETATM    9  C   UNL     1     -34.942  42.564 -55.796  1.00  0.00     0.034 A 
HETATM   10  C   UNL     1     -35.596  42.205 -56.981  1.00  0.00     0.032 A 
ENDROOT
BRANCH   1  11
HETATM   11  N   UNL     1     -37.394  41.230 -58.231  1.00  0.00    -0.327 N 
HETATM   12  C   UNL     1     -37.184  40.083 -58.970  1.00  0.00     0.222 C 
HETATM   13  O   UNL     1     -36.438  39.158 -58.655  1.00  0.00    -0.273 OA
HETATM   14  H   UNL     1     -37.867  41.993 -58.693  1.00  0.00     0.169 HD
BRANCH  12  15
HETATM   15  C   UNL     1     -38.018  39.946 -60.240  1.00  0.00     0.112 C 
BRANCH  15  16
HETATM   16  C   UNL     1     -37.996  38.615 -61.016  1.00  0.00     0.027 C 
BRANCH  16  17
HETATM   17  C   UNL     1     -37.017  38.669 -62.213  1.00  0.00     0.005 C 
HETATM   18  C   UNL     1     -35.671  38.011 -61.941  1.00  0.00     0.006 C 
ENDBRANCH  16  17
BRANCH  16  19
HETATM   19  C   UNL     1     -39.352  38.148 -61.524  1.00  0.00    -0.054 A 
HETATM   20  C   UNL     1     -39.593  37.878 -62.879  1.00  0.00     0.007 A 
HETATM   21  C   UNL     1     -40.856  37.467 -63.309  1.00  0.00     0.001 A 
HETATM   22  C   UNL     1     -41.891  37.306 -62.390  1.00  0.00     0.000 A 
HETATM   23  C   UNL     1     -41.662  37.550 -61.038  1.00  0.00     0.001 A 
HETATM   24  C   UNL     1     -40.402  37.965 -60.607  1.00  0.00     0.007 A 
ENDBRANCH  16  19
ENDBRANCH  15  16
ENDBRANCH  12  15
ENDBRANCH   1  11
BRANCH   8  25
HETATM   25  C   UNL     1     -38.329  40.942 -52.536  1.00  0.00     0.270 C 
HETATM   26  N   UNL     1     -39.381  41.813 -52.459  1.00  0.00    -0.365 N 
HETATM   27  H   UNL     1     -39.264  42.749 -52.827  1.00  0.00     0.159 HD
HETATM   28  H   UNL     1     -40.255  41.504 -52.064  1.00  0.00     0.159 HD
HETATM   29  O   UNL     1     -38.428  39.791 -52.123  1.00  0.00    -0.266 OA
ENDBRANCH   8  25
TORSDOF 6
ENDMDL
MODEL 7
REMARK VINA RESULT:      -7.5      2.895      8.303
REMARK  6 active torsions:
REMARK  status: ('A' for Active; 'I' for Inactive)
REMARK    1  A    between atoms: C_2  and  C_3 
REMARK    2  A    between atoms: C_3  and  C_4 
REMARK    3  A    between atoms: C_3  and  C_10 
REMARK    4  A    between atoms: C_10  and  C_11 
REMARK       I    between atoms: C_11  and  N_12 
REMARK    5  A    between atoms: N_12  and  C_13 
REMARK    6  A    between atoms: C_20  and  C_21 
REMARK       I    between atoms: C_21  and  N_22 
ROOT
HETATM    1  C   UNL     1     -41.225  55.192 -53.635  1.00  0.00     0.035 A 
HETATM    2  C   UNL     1     -40.789  53.874 -53.821  1.00  0.00     0.046 A 
HETATM    3  C   UNL     1     -40.442  53.088 -52.699  1.00  0.00     0.030 A 
HETATM    4  C   UNL     1     -40.536  53.651 -51.433  1.00  0.00     0.063 A 
HETATM    5  N   UNL     1     -40.128  52.673 -50.571  1.00  0.00    -0.277 N 
HETATM    6  H   UNL     1     -40.059  52.734 -49.561  1.00  0.00     0.189 HD
HETATM    7  N   UNL     1     -39.792  51.514 -51.160  1.00  0.00    -0.168 NA
HETATM    8  C   UNL     1     -39.987  51.753 -52.478  1.00  0.00     0.156 A 
HETATM    9  C   UNL     1     -40.973  54.959 -51.210  1.00  0.00     0.034 A 
HETATM   10  C   UNL     1     -41.323  55.712 -52.338  1.00  0.00     0.032 A 
ENDROOT
BRANCH   1  11
HETATM   11  N   UNL     1     -41.603  56.047 -54.695  1.00  0.00    -0.327 N 
HETATM   12  C   UNL     1     -42.685  55.895 -55.538  1.00  0.00     0.222 C 
HETATM   13  O   UNL     1     -43.482  54.959 -55.515  1.00  0.00    -0.273 OA
HETATM   14  H   UNL     1     -40.918  56.744 -54.949  1.00  0.00     0.169 HD
BRANCH  12  15
HETATM   15  C   UNL     1     -42.930  57.036 -56.521  1.00  0.00     0.112 C 
BRANCH  15  16
HETATM   16  C   UNL     1     -42.669  56.807 -58.022  1.00  0.00     0.027 C 
BRANCH  16  17
HETATM   17  C   UNL     1     -42.017  58.045 -58.683  1.00  0.00     0.005 C 
HETATM   18  C   UNL     1     -41.685  57.856 -60.157  1.00  0.00     0.006 C 
ENDBRANCH  16  17
BRANCH  16  19
HETATM   19  C   UNL     1     -43.897  56.419 -58.833  1.00  0.00    -0.054 A 
HETATM   20  C   UNL     1     -45.042  57.227 -58.893  1.00  0.00     0.007 A 
HETATM   21  C   UNL     1     -46.156  56.828 -59.634  1.00  0.00     0.001 A 
HETATM   22  C   UNL     1     -46.136  55.625 -60.336  1.00  0.00     0.000 A 
HETATM   23  C   UNL     1     -44.999  54.821 -60.303  1.00  0.00     0.001 A 
HETATM   24  C   UNL     1     -43.887  55.216 -59.560  1.00  0.00     0.007 A 
ENDBRANCH  16  19
ENDBRANCH  15  16
ENDBRANCH  12  15
ENDBRANCH   1  11
BRANCH   8  25
HETATM   25  C   UNL     1     -39.742  50.711 -53.486  1.00  0.00     0.270 C 
HETATM   26  N   UNL     1     -39.584  49.457 -52.962  1.00  0.00    -0.365 N 
HETATM   27  H   UNL     1     -39.655  49.337 -51.959  1.00  0.00     0.159 HD
HETATM   28  H   UNL     1     -39.427  48.676 -53.579  1.00  0.00     0.159 HD
HETATM   29  O   UNL     1     -39.686  50.904 -54.695  1.00  0.00    -0.266 OA
ENDBRANCH   8  25
TORSDOF 6
ENDMDL
MODEL 8
REMARK VINA RESULT:      -7.5      3.185      8.270
REMARK  6 active torsions:
REMARK  status: ('A' for Active; 'I' for Inactive)
REMARK    1  A    between atoms: C_2  and  C_3 
REMARK    2  A    between atoms: C_3  and  C_4 
REMARK    3  A    between atoms: C_3  and  C_10 
REMARK    4  A    between atoms: C_10  and  C_11 
REMARK       I    between atoms: C_11  and  N_12 
REMARK    5  A    between atoms: N_12  and  C_13 
REMARK    6  A    between atoms: C_20  and  C_21 
REMARK       I    between atoms: C_21  and  N_22 
ROOT
HETATM    1  C   UNL     1     -40.899  54.118 -54.287  1.00  0.00     0.035 A 
HETATM    2  C   UNL     1     -41.205  54.332 -52.936  1.00  0.00     0.046 A 
HETATM    3  C   UNL     1     -40.785  53.394 -51.968  1.00  0.00     0.030 A 
HETATM    4  C   UNL     1     -40.080  52.272 -52.385  1.00  0.00     0.063 A 
HETATM    5  N   UNL     1     -39.830  51.558 -51.246  1.00  0.00    -0.277 N 
HETATM    6  H   UNL     1     -39.340  50.673 -51.172  1.00  0.00     0.189 HD
HETATM    7  N   UNL     1     -40.292  52.123 -50.120  1.00  0.00    -0.168 NA
HETATM    8  C   UNL     1     -40.882  53.264 -50.549  1.00  0.00     0.156 A 
HETATM    9  C   UNL     1     -39.752  52.030 -53.720  1.00  0.00     0.034 A 
HETATM   10  C   UNL     1     -40.169  52.982 -54.659  1.00  0.00     0.032 A 
ENDROOT
BRANCH   1  11
HETATM   11  N   UNL     1     -41.268  55.006 -55.321  1.00  0.00    -0.327 N 
HETATM   12  C   UNL     1     -42.444  54.995 -56.045  1.00  0.00     0.222 C 
HETATM   13  O   UNL     1     -43.352  54.176 -55.917  1.00  0.00    -0.273 OA
HETATM   14  H   UNL     1     -40.527  55.601 -55.661  1.00  0.00     0.169 HD
BRANCH  12  15
HETATM   15  C   UNL     1     -42.636  56.150 -57.023  1.00  0.00     0.112 C 
BRANCH  15  16
HETATM   16  C   UNL     1     -43.472  57.371 -56.591  1.00  0.00     0.027 C 
BRANCH  16  17
HETATM   17  C   UNL     1     -43.050  58.649 -57.354  1.00  0.00     0.005 C 
HETATM   18  C   UNL     1     -41.980  58.413 -58.412  1.00  0.00     0.006 C 
ENDBRANCH  16  17
BRANCH  16  19
HETATM   19  C   UNL     1     -43.446  57.670 -55.099  1.00  0.00    -0.054 A 
HETATM   20  C   UNL     1     -42.361  58.309 -54.482  1.00  0.00     0.007 A 
HETATM   21  C   UNL     1     -42.367  58.550 -53.106  1.00  0.00     0.001 A 
HETATM   22  C   UNL     1     -43.461  58.170 -52.333  1.00  0.00     0.000 A 
HETATM   23  C   UNL     1     -44.554  57.552 -52.934  1.00  0.00     0.001 A 
HETATM   24  C   UNL     1     -44.549  57.306 -54.307  1.00  0.00     0.007 A 
ENDBRANCH  16  19
ENDBRANCH  15  16
ENDBRANCH  12  15
ENDBRANCH   1  11
BRANCH   8  25
HETATM   25  C   UNL     1     -41.512  54.197 -49.605  1.00  0.00     0.270 C 
HETATM   26  N   UNL     1     -40.697  54.584 -48.576  1.00  0.00    -0.365 N 
HETATM   27  H   UNL     1     -39.751  54.224 -48.545  1.00  0.00     0.159 HD
HETATM   28  H   UNL     1     -41.040  55.234 -47.887  1.00  0.00     0.159 HD
HETATM   29  O   UNL     1     -42.658  54.623 -49.698  1.00  0.00    -0.266 OA
ENDBRANCH   8  25
TORSDOF 6
ENDMDL
MODEL 9
REMARK VINA RESULT:      -7.5      2.938      8.897
REMARK  6 active torsions:
REMARK  status: ('A' for Active; 'I' for Inactive)
REMARK    1  A    between atoms: C_2  and  C_3 
REMARK    2  A    between atoms: C_3  and  C_4 
REMARK    3  A    between atoms: C_3  and  C_10 
REMARK    4  A    between atoms: C_10  and  C_11 
REMARK       I    between atoms: C_11  and  N_12 
REMARK    5  A    between atoms: N_12  and  C_13 
REMARK    6  A    between atoms: C_20  and  C_21 
REMARK       I    between atoms: C_21  and  N_22 
ROOT
HETATM    1  C   UNL     1     -40.812  54.557 -54.297  1.00  0.00     0.035 A 
HETATM    2  C   UNL     1     -40.999  54.795 -52.929  1.00  0.00     0.046 A 
HETATM    3  C   UNL     1     -40.682  53.784 -51.995  1.00  0.00     0.030 A 
HETATM    4  C   UNL     1     -40.197  52.569 -52.462  1.00  0.00     0.063 A 
HETATM    5  N   UNL     1     -40.001  51.805 -51.346  1.00  0.00    -0.277 N 
HETATM    6  H   UNL     1     -39.661  50.850 -51.308  1.00  0.00     0.189 HD
HETATM    7  N   UNL     1     -40.297  52.419 -50.190  1.00  0.00    -0.168 NA
HETATM    8  C   UNL     1     -40.716  53.648 -50.574  1.00  0.00     0.156 A 
HETATM    9  C   UNL     1     -39.993  52.300 -53.817  1.00  0.00     0.034 A 
HETATM   10  C   UNL     1     -40.303  53.323 -54.722  1.00  0.00     0.032 A 
ENDROOT
BRANCH   1  11
HETATM   11  N   UNL     1     -41.091  55.511 -55.301  1.00  0.00    -0.327 N 
HETATM   12  C   UNL     1     -42.336  55.926 -55.729  1.00  0.00     0.222 C 
HETATM   13  O   UNL     1     -43.412  55.498 -55.316  1.00  0.00    -0.273 OA
HETATM   14  H   UNL     1     -40.297  55.791 -55.859  1.00  0.00     0.169 HD
BRANCH  12  15
HETATM   15  C   UNL     1     -42.346  57.065 -56.745  1.00  0.00     0.112 C 
BRANCH  15  16
HETATM   16  C   UNL     1     -43.003  56.841 -58.121  1.00  0.00     0.027 C 
BRANCH  16  17
HETATM   17  C   UNL     1     -42.212  57.542 -59.251  1.00  0.00     0.005 C 
HETATM   18  C   UNL     1     -42.087  59.049 -59.074  1.00  0.00     0.006 C 
ENDBRANCH  16  17
BRANCH  16  19
HETATM   19  C   UNL     1     -44.460  57.272 -58.213  1.00  0.00    -0.054 A 
HETATM   20  C   UNL     1     -45.277  56.925 -59.298  1.00  0.00     0.007 A 
HETATM   21  C   UNL     1     -46.604  57.354 -59.355  1.00  0.00     0.001 A 
HETATM   22  C   UNL     1     -47.136  58.123 -58.323  1.00  0.00     0.000 A 
HETATM   23  C   UNL     1     -46.344  58.459 -57.228  1.00  0.00     0.001 A 
HETATM   24  C   UNL     1     -45.017  58.034 -57.171  1.00  0.00     0.007 A 
ENDBRANCH  16  19
ENDBRANCH  15  16
ENDBRANCH  12  15
ENDBRANCH   1  11
BRANCH   8  25
HETATM   25  C   UNL     1     -41.127  54.656 -49.586  1.00  0.00     0.270 C 
HETATM   26  N   UNL     1     -40.680  54.406 -48.317  1.00  0.00    -0.365 N 
HETATM   27  H   UNL     1     -40.111  53.584 -48.155  1.00  0.00     0.159 HD
HETATM   28  H   UNL     1     -40.901  55.052 -47.576  1.00  0.00     0.159 HD
HETATM   29  O   UNL     1     -41.801  55.649 -49.836  1.00  0.00    -0.266 OA
ENDBRANCH   8  25
TORSDOF 6
ENDMDL
MODEL 10
REMARK VINA RESULT:      -7.4      2.253      3.237
REMARK  6 active torsions:
REMARK  status: ('A' for Active; 'I' for Inactive)
REMARK    1  A    between atoms: C_2  and  C_3 
REMARK    2  A    between atoms: C_3  and  C_4 
REMARK    3  A    between atoms: C_3  and  C_10 
REMARK    4  A    between atoms: C_10  and  C_11 
REMARK       I    between atoms: C_11  and  N_12 
REMARK    5  A    between atoms: N_12  and  C_13 
REMARK    6  A    between atoms: C_20  and  C_21 
REMARK       I    between atoms: C_21  and  N_22 
ROOT
HETATM    1  C   UNL     1     -43.156  55.979 -57.275  1.00  0.00     0.035 A 
HETATM    2  C   UNL     1     -42.954  57.360 -57.401  1.00  0.00     0.046 A 
HETATM    3  C   UNL     1     -43.145  57.982 -58.654  1.00  0.00     0.030 A 
HETATM    4  C   UNL     1     -43.522  57.201 -59.739  1.00  0.00     0.063 A 
HETATM    5  N   UNL     1     -43.611  58.065 -60.793  1.00  0.00    -0.277 N 
HETATM    6  H   UNL     1     -43.855  57.841 -61.752  1.00  0.00     0.189 HD
HETATM    7  N   UNL     1     -43.343  59.345 -60.490  1.00  0.00    -0.168 NA
HETATM    8  C   UNL     1     -43.057  59.312 -59.168  1.00  0.00     0.156 A 
HETATM    9  C   UNL     1     -43.737  55.824 -59.649  1.00  0.00     0.034 A 
HETATM   10  C   UNL     1     -43.555  55.234 -58.392  1.00  0.00     0.032 A 
ENDROOT
BRANCH   1  11
HETATM   11  N   UNL     1     -43.000  55.274 -56.060  1.00  0.00    -0.327 N 
HETATM   12  C   UNL     1     -43.567  55.586 -54.841  1.00  0.00     0.222 C 
HETATM   13  O   UNL     1     -44.283  56.560 -54.615  1.00  0.00    -0.273 OA
HETATM   14  H   UNL     1     -42.276  54.570 -56.063  1.00  0.00     0.169 HD
BRANCH  12  15
HETATM   15  C   UNL     1     -43.330  54.580 -53.719  1.00  0.00     0.112 C 
BRANCH  15  16
HETATM   16  C   UNL     1     -42.007  54.628 -52.930  1.00  0.00     0.027 C 
BRANCH  16  17
HETATM   17  C   UNL     1     -41.158  55.862 -53.317  1.00  0.00     0.005 C 
HETATM   18  C   UNL     1     -41.292  57.032 -52.350  1.00  0.00     0.006 C 
ENDBRANCH  16  17
BRANCH  16  19
HETATM   19  C   UNL     1     -41.138  53.385 -53.061  1.00  0.00    -0.054 A 
HETATM   20  C   UNL     1     -41.054  52.652 -54.254  1.00  0.00     0.007 A 
HETATM   21  C   UNL     1     -40.259  51.507 -54.330  1.00  0.00     0.001 A 
HETATM   22  C   UNL     1     -39.528  51.088 -53.221  1.00  0.00     0.000 A 
HETATM   23  C   UNL     1     -39.585  51.816 -52.036  1.00  0.00     0.001 A 
HETATM   24  C   UNL     1     -40.382  52.958 -51.957  1.00  0.00     0.007 A 
ENDBRANCH  16  19
ENDBRANCH  15  16
ENDBRANCH  12  15
ENDBRANCH   1  11
BRANCH   8  25
HETATM   25  C   UNL     1     -42.718  60.537 -58.430  1.00  0.00     0.270 C 
HETATM   26  N   UNL     1     -41.404  60.618 -58.058  1.00  0.00    -0.365 N 
HETATM   27  H   UNL     1     -40.779  59.864 -58.317  1.00  0.00     0.159 HD
HETATM   28  H   UNL     1     -41.077  61.430 -57.560  1.00  0.00     0.159 HD
HETATM   29  O   UNL     1     -43.509  61.434 -58.159  1.00  0.00    -0.266 OA
ENDBRANCH   8  25
TORSDOF 6
ENDMDL
