MODEL 1
REMARK VINA RESULT:      -7.9      0.000      0.000
REMARK  7 active torsions:
REMARK  status: ('A' for Active; 'I' for Inactive)
REMARK    1  A    between atoms: C_2  and  O_3 
REMARK    2  A    between atoms: O_3  and  C_4 
REMARK    3  A    between atoms: C_4  and  C_5 
REMARK    4  A    between atoms: C_6  and  C_7 
REMARK    5  A    between atoms: C_18  and  S_19 
REMARK    6  A    between atoms: S_19  and  C_20 
REMARK    7  A    between atoms: C_20  and  C_21 
ROOT
HETATM    1  C   UNL     1     -42.713  56.973 -56.960  1.00  0.00     0.070 A 
HETATM    2  C   UNL     1     -42.246  57.258 -55.539  1.00  0.00     0.203 A 
HETATM    3  N   UNL     1     -42.327  56.057 -54.701  1.00  0.00    -0.082 N 
HETATM    4  C   UNL     1     -42.823  54.854 -55.124  1.00  0.00     0.726 A 
HETATM    5  N   UNL     1     -43.256  54.731 -56.393  1.00  0.00    -0.192 N 
HETATM    6  N   UNL     1     -41.888  55.987 -53.431  1.00  0.00    -0.128 NA
HETATM    7  C   UNL     1     -42.210  54.726 -53.122  1.00  0.00     0.226 A 
HETATM    8  N   UNL     1     -42.767  53.992 -54.142  1.00  0.00    -0.035 NA
HETATM    9  C   UNL     1     -43.178  55.756 -57.332  1.00  0.00     0.037 A 
HETATM   10  C   UNL     1     -43.584  55.388 -58.738  1.00  0.00     0.070 C 
HETATM   11  H   UNL     1     -43.592  53.824 -56.711  1.00  0.00     0.184 HD
ENDROOT
BRANCH   7  12
HETATM   12  S   UNL     1     -41.943  54.117 -51.516  1.00  0.00    -0.083 SA
BRANCH  12  13
HETATM   13  C   UNL     1     -40.181  53.713 -51.611  1.00  0.00     0.121 C 
BRANCH  13  14
HETATM   14  C   UNL     1     -39.972  52.235 -51.843  1.00  0.00    -0.047 A 
HETATM   15  C   UNL     1     -39.906  51.720 -53.147  1.00  0.00     0.031 A 
HETATM   16  C   UNL     1     -39.740  50.351 -53.354  1.00  0.00     0.034 A 
HETATM   17 CL   UNL     1     -39.655  49.734 -54.958  1.00  0.00    -0.084 Cl
HETATM   18  C   UNL     1     -39.645  49.477 -52.272  1.00  0.00     0.024 A 
HETATM   19  C   UNL     1     -39.715  49.978 -50.972  1.00  0.00     0.002 A 
HETATM   20  C   UNL     1     -39.877  51.347 -50.759  1.00  0.00     0.008 A 
ENDBRANCH  13  14
ENDBRANCH  12  13
ENDBRANCH   7  12
BRANCH   2  21
HETATM   21  C   UNL     1     -43.020  58.402 -54.882  1.00  0.00    -0.028 A 
HETATM   22  C   UNL     1     -44.400  58.309 -54.624  1.00  0.00     0.011 A 
HETATM   23  C   UNL     1     -45.081  59.368 -54.020  1.00  0.00     0.024 A 
HETATM   24  C   UNL     1     -44.392  60.527 -53.670  1.00  0.00     0.034 A 
HETATM   25 CL   UNL     1     -45.233  61.829 -52.924  1.00  0.00    -0.084 Cl
HETATM   26  C   UNL     1     -43.028  60.639 -53.921  1.00  0.00     0.024 A 
HETATM   27  C   UNL     1     -42.344  59.582 -54.526  1.00  0.00     0.011 A 
ENDBRANCH   2  21
BRANCH   1  28
HETATM   28  C   UNL     1     -42.565  58.132 -57.863  1.00  0.00     0.293 C 
HETATM   29  O   UNL     1     -41.487  58.496 -58.301  1.00  0.00    -0.259 OA
BRANCH  28  30
HETATM   30  O   UNL     1     -43.758  58.755 -58.026  1.00  0.00    -0.318 OA
BRANCH  30  31
HETATM   31  C   UNL     1     -43.691  60.119 -58.467  1.00  0.00     0.174 C 
HETATM   32  C   UNL     1     -44.289  61.049 -57.428  1.00  0.00     0.034 C 
ENDBRANCH  30  31
ENDBRANCH  28  30
ENDBRANCH   1  28
TORSDOF 7
ENDMDL
MODEL 2
REMARK VINA RESULT:      -7.8      1.369      1.917
REMARK  7 active torsions:
REMARK  status: ('A' for Active; 'I' for Inactive)
REMARK    1  A    between atoms: C_2  and  O_3 
REMARK    2  A    between atoms: O_3  and  C_4 
REMARK    3  A    between atoms: C_4  and  C_5 
REMARK    4  A    between atoms: C_6  and  C_7 
REMARK    5  A    between atoms: C_18  and  S_19 
REMARK    6  A    between atoms: S_19  and  C_20 
REMARK    7  A    between atoms: C_20  and  C_21 
ROOT
HETATM    1  C   UNL     1     -42.970  57.203 -58.221  1.00  0.00     0.070 A 
HETATM    2  C   UNL     1     -42.453  57.472 -56.815  1.00  0.00     0.203 A 
HETATM    3  N   UNL     1     -42.580  56.284 -55.965  1.00  0.00    -0.082 N 
HETATM    4  C   UNL     1     -43.153  55.107 -56.364  1.00  0.00     0.726 A 
HETATM    5  N   UNL     1     -43.625  54.999 -57.621  1.00  0.00    -0.192 N 
HETATM    6  N   UNL     1     -42.115  56.198 -54.705  1.00  0.00    -0.128 NA
HETATM    7  C   UNL     1     -42.499  54.960 -54.377  1.00  0.00     0.226 A 
HETATM    8  N   UNL     1     -43.121  54.251 -55.376  1.00  0.00    -0.035 NA
HETATM    9  C   UNL     1     -43.513  56.011 -58.571  1.00  0.00     0.037 A 
HETATM   10  C   UNL     1     -43.973  55.656 -59.964  1.00  0.00     0.070 C 
HETATM   11  H   UNL     1     -44.019  54.111 -57.923  1.00  0.00     0.184 HD
ENDROOT
BRANCH   7  12
HETATM   12  S   UNL     1     -42.227  54.348 -52.773  1.00  0.00    -0.083 SA
BRANCH  12  13
HETATM   13  C   UNL     1     -40.453  53.998 -52.856  1.00  0.00     0.121 C 
BRANCH  13  14
HETATM   14  C   UNL     1     -40.196  52.515 -52.995  1.00  0.00    -0.047 A 
HETATM   15  C   UNL     1     -39.831  51.747 -51.879  1.00  0.00     0.031 A 
HETATM   16  C   UNL     1     -39.569  50.384 -52.020  1.00  0.00     0.034 A 
HETATM   17 CL   UNL     1     -39.127  49.454 -50.642  1.00  0.00    -0.084 Cl
HETATM   18  C   UNL     1     -39.659  49.771 -53.268  1.00  0.00     0.024 A 
HETATM   19  C   UNL     1     -40.016  50.526 -54.384  1.00  0.00     0.002 A 
HETATM   20  C   UNL     1     -40.284  51.889 -54.249  1.00  0.00     0.008 A 
ENDBRANCH  13  14
ENDBRANCH  12  13
ENDBRANCH   7  12
BRANCH   2  21
HETATM   21  C   UNL     1     -43.144  58.662 -56.149  1.00  0.00    -0.028 A 
HETATM   22  C   UNL     1     -42.434  59.819 -55.781  1.00  0.00     0.011 A 
HETATM   23  C   UNL     1     -43.092  60.892 -55.176  1.00  0.00     0.024 A 
HETATM   24  C   UNL     1     -44.461  60.820 -54.933  1.00  0.00     0.034 A 
HETATM   25 CL   UNL     1     -45.269  62.144 -54.190  1.00  0.00    -0.084 Cl
HETATM   26  C   UNL     1     -45.180  59.682 -55.287  1.00  0.00     0.024 A 
HETATM   27  C   UNL     1     -44.525  58.606 -55.891  1.00  0.00     0.011 A 
ENDBRANCH   2  21
BRANCH   1  28
HETATM   28  C   UNL     1     -42.781  58.344 -59.138  1.00  0.00     0.293 C 
HETATM   29  O   UNL     1     -41.687  58.672 -59.568  1.00  0.00    -0.259 OA
BRANCH  28  30
HETATM   30  O   UNL     1     -43.954  58.997 -59.324  1.00  0.00    -0.318 OA
BRANCH  30  31
HETATM   31  C   UNL     1     -43.844  60.367 -59.739  1.00  0.00     0.174 C 
HETATM   32  C   UNL     1     -44.404  61.296 -58.678  1.00  0.00     0.034 C 
ENDBRANCH  30  31
ENDBRANCH  28  30
ENDBRANCH   1  28
TORSDOF 7
ENDMDL
MODEL 3
REMARK VINA RESULT:      -7.6      1.565      2.187
REMARK  7 active torsions:
REMARK  status: ('A' for Active; 'I' for Inactive)
REMARK    1  A    between atoms: C_2  and  O_3 
REMARK    2  A    between atoms: O_3  and  C_4 
REMARK    3  A    between atoms: C_4  and  C_5 
REMARK    4  A    between atoms: C_6  and  C_7 
REMARK    5  A    between atoms: C_18  and  S_19 
REMARK    6  A    between atoms: S_19  and  C_20 
REMARK    7  A    between atoms: C_20  and  C_21 
ROOT
HETATM    1  C   UNL     1     -42.192  58.893 -57.384  1.00  0.00     0.070 A 
HETATM    2  C   UNL     1     -42.060  58.697 -55.880  1.00  0.00     0.203 A 
HETATM    3  N   UNL     1     -42.215  57.285 -55.512  1.00  0.00    -0.082 N 
HETATM    4  C   UNL     1     -42.510  56.285 -56.399  1.00  0.00     0.726 A 
HETATM    5  N   UNL     1     -42.656  56.585 -57.703  1.00  0.00    -0.192 N 
HETATM    6  N   UNL     1     -42.049  56.803 -54.268  1.00  0.00    -0.128 NA
HETATM    7  C   UNL     1     -42.323  55.508 -54.460  1.00  0.00     0.226 A 
HETATM    8  N   UNL     1     -42.591  55.147 -55.759  1.00  0.00    -0.035 NA
HETATM    9  C   UNL     1     -42.467  57.864 -58.222  1.00  0.00     0.037 A 
HETATM   10  C   UNL     1     -42.536  57.978 -59.725  1.00  0.00     0.070 C 
HETATM   11  H   UNL     1     -42.841  55.832 -58.362  1.00  0.00     0.184 HD
ENDROOT
BRANCH   7  12
HETATM   12  S   UNL     1     -42.351  54.403 -53.118  1.00  0.00    -0.083 SA
BRANCH  12  13
HETATM   13  C   UNL     1     -40.580  54.073 -52.933  1.00  0.00     0.121 C 
BRANCH  13  14
HETATM   14  C   UNL     1     -40.286  52.596 -53.054  1.00  0.00    -0.047 A 
HETATM   15  C   UNL     1     -39.923  51.847 -51.924  1.00  0.00     0.031 A 
HETATM   16  C   UNL     1     -39.626  50.489 -52.048  1.00  0.00     0.034 A 
HETATM   17 CL   UNL     1     -39.188  49.582 -50.653  1.00  0.00    -0.084 Cl
HETATM   18  C   UNL     1     -39.679  49.863 -53.291  1.00  0.00     0.024 A 
HETATM   19  C   UNL     1     -40.033  50.599 -54.421  1.00  0.00     0.002 A 
HETATM   20  C   UNL     1     -40.335  51.957 -54.304  1.00  0.00     0.008 A 
ENDBRANCH  13  14
ENDBRANCH  12  13
ENDBRANCH   7  12
BRANCH   2  21
HETATM   21  C   UNL     1     -43.046  59.551 -55.084  1.00  0.00    -0.028 A 
HETATM   22  C   UNL     1     -42.608  60.511 -54.152  1.00  0.00     0.011 A 
HETATM   23  C   UNL     1     -43.532  61.280 -53.440  1.00  0.00     0.024 A 
HETATM   24  C   UNL     1     -44.897  61.097 -53.650  1.00  0.00     0.034 A 
HETATM   25 CL   UNL     1     -46.031  62.046 -52.773  1.00  0.00    -0.084 Cl
HETATM   26  C   UNL     1     -45.348  60.149 -54.564  1.00  0.00     0.024 A 
HETATM   27  C   UNL     1     -44.427  59.378 -55.277  1.00  0.00     0.011 A 
ENDBRANCH   2  21
BRANCH   1  28
HETATM   28  C   UNL     1     -41.955  60.286 -57.810  1.00  0.00     0.293 C 
HETATM   29  O   UNL     1     -40.880  60.848 -57.668  1.00  0.00    -0.259 OA
BRANCH  28  30
HETATM   30  O   UNL     1     -43.105  60.842 -58.264  1.00  0.00    -0.318 OA
BRANCH  30  31
HETATM   31  C   UNL     1     -43.163  62.275 -58.219  1.00  0.00     0.174 C 
HETATM   32  C   UNL     1     -43.773  62.747 -56.912  1.00  0.00     0.034 C 
ENDBRANCH  30  31
ENDBRANCH  28  30
ENDBRANCH   1  28
TORSDOF 7
ENDMDL
MODEL 4
REMARK VINA RESULT:      -7.5      2.945      4.704
REMARK  7 active torsions:
REMARK  status: ('A' for Active; 'I' for Inactive)
REMARK    1  A    between atoms: C_2  and  O_3 
REMARK    2  A    between atoms: O_3  and  C_4 
REMARK    3  A    between atoms: C_4  and  C_5 
REMARK    4  A    between atoms: C_6  and  C_7 
REMARK    5  A    between atoms: C_18  and  S_19 
REMARK    6  A    between atoms: S_19  and  C_20 
REMARK    7  A    between atoms: C_20  and  C_21 
ROOT
HETATM    1  C   UNL     1     -43.249  59.079 -51.643  1.00  0.00     0.070 A 
HETATM    2  C   UNL     1     -43.464  57.581 -51.808  1.00  0.00     0.203 A 
HETATM    3  N   UNL     1     -42.550  56.814 -50.954  1.00  0.00    -0.082 N 
HETATM    4  C   UNL     1     -41.583  57.372 -50.164  1.00  0.00     0.726 A 
HETATM    5  N   UNL     1     -41.449  58.712 -50.135  1.00  0.00    -0.192 N 
HETATM    6  N   UNL     1     -42.581  55.476 -50.819  1.00  0.00    -0.128 NA
HETATM    7  C   UNL     1     -41.559  55.284 -49.978  1.00  0.00     0.226 A 
HETATM    8  N   UNL     1     -40.934  56.425 -49.537  1.00  0.00    -0.035 NA
HETATM    9  C   UNL     1     -42.286  59.581 -50.830  1.00  0.00     0.037 A 
HETATM   10  C   UNL     1     -42.071  61.050 -50.565  1.00  0.00     0.070 C 
HETATM   11  H   UNL     1     -40.751  59.122 -49.519  1.00  0.00     0.184 HD
ENDROOT
BRANCH   7  12
HETATM   12  S   UNL     1     -41.079  53.674 -49.527  1.00  0.00    -0.083 SA
BRANCH  12  13
HETATM   13  C   UNL     1     -39.592  53.484 -50.542  1.00  0.00     0.121 C 
BRANCH  13  14
HETATM   14  C   UNL     1     -39.937  52.994 -51.929  1.00  0.00    -0.047 A 
HETATM   15  C   UNL     1     -39.581  51.699 -52.337  1.00  0.00     0.031 A 
HETATM   16  C   UNL     1     -39.878  51.263 -53.628  1.00  0.00     0.034 A 
HETATM   17 CL   UNL     1     -39.440  49.671 -54.113  1.00  0.00    -0.084 Cl
HETATM   18  C   UNL     1     -40.525  52.106 -54.529  1.00  0.00     0.024 A 
HETATM   19  C   UNL     1     -40.879  53.396 -54.135  1.00  0.00     0.002 A 
HETATM   20  C   UNL     1     -40.588  53.837 -52.844  1.00  0.00     0.008 A 
ENDBRANCH  13  14
ENDBRANCH  12  13
ENDBRANCH   7  12
BRANCH   2  21
HETATM   21  C   UNL     1     -43.325  57.121 -53.259  1.00  0.00    -0.028 A 
HETATM   22  C   UNL     1     -44.411  56.576 -53.969  1.00  0.00     0.011 A 
HETATM   23  C   UNL     1     -44.256  56.166 -55.296  1.00  0.00     0.024 A 
HETATM   24  C   UNL     1     -43.019  56.294 -55.922  1.00  0.00     0.034 A 
HETATM   25 CL   UNL     1     -42.832  55.790 -57.556  1.00  0.00    -0.084 Cl
HETATM   26  C   UNL     1     -41.932  56.827 -55.235  1.00  0.00     0.024 A 
HETATM   27  C   UNL     1     -42.084  57.237 -53.908  1.00  0.00     0.011 A 
ENDBRANCH   2  21
BRANCH   1  28
HETATM   28  C   UNL     1     -44.207  59.892 -52.417  1.00  0.00     0.293 C 
HETATM   29  O   UNL     1     -45.400  59.926 -52.166  1.00  0.00    -0.259 OA
BRANCH  28  30
HETATM   30  O   UNL     1     -43.583  60.479 -53.468  1.00  0.00    -0.318 OA
BRANCH  30  31
HETATM   31  C   UNL     1     -44.441  60.938 -54.523  1.00  0.00     0.174 C 
HETATM   32  C   UNL     1     -44.555  59.892 -55.616  1.00  0.00     0.034 C 
ENDBRANCH  30  31
ENDBRANCH  28  30
ENDBRANCH   1  28
TORSDOF 7
ENDMDL
MODEL 5
REMARK VINA RESULT:      -7.5      2.071      2.881
REMARK  7 active torsions:
REMARK  status: ('A' for Active; 'I' for Inactive)
REMARK    1  A    between atoms: C_2  and  O_3 
REMARK    2  A    between atoms: O_3  and  C_4 
REMARK    3  A    between atoms: C_4  and  C_5 
REMARK    4  A    between atoms: C_6  and  C_7 
REMARK    5  A    between atoms: C_18  and  S_19 
REMARK    6  A    between atoms: S_19  and  C_20 
REMARK    7  A    between atoms: C_20  and  C_21 
ROOT
HETATM    1  C   UNL     1     -42.328  59.761 -57.766  1.00  0.00     0.070 A 
HETATM    2  C   UNL     1     -42.080  58.999 -56.472  1.00  0.00     0.203 A 
HETATM    3  N   UNL     1     -42.419  57.579 -56.618  1.00  0.00    -0.082 N 
HETATM    4  C   UNL     1     -42.952  57.026 -57.749  1.00  0.00     0.726 A 
HETATM    5  N   UNL     1     -43.177  57.809 -58.821  1.00  0.00    -0.192 N 
HETATM    6  N   UNL     1     -42.208  56.648 -55.669  1.00  0.00    -0.128 NA
HETATM    7  C   UNL     1     -42.699  55.560 -56.271  1.00  0.00     0.226 A 
HETATM    8  N   UNL     1     -43.147  55.747 -57.557  1.00  0.00    -0.035 NA
HETATM    9  C   UNL     1     -42.843  59.160 -58.867  1.00  0.00     0.037 A 
HETATM   10  C   UNL     1     -43.041  59.839 -60.200  1.00  0.00     0.070 C 
HETATM   11  H   UNL     1     -43.543  57.385 -59.671  1.00  0.00     0.184 HD
ENDROOT
BRANCH   7  12
HETATM   12  S   UNL     1     -42.767  54.041 -55.427  1.00  0.00    -0.083 SA
BRANCH  12  13
HETATM   13  C   UNL     1     -42.055  54.523 -53.834  1.00  0.00     0.121 C 
BRANCH  13  14
HETATM   14  C   UNL     1     -41.109  53.464 -53.317  1.00  0.00    -0.047 A 
HETATM   15  C   UNL     1     -40.807  52.337 -54.097  1.00  0.00     0.031 A 
HETATM   16  C   UNL     1     -39.955  51.349 -53.602  1.00  0.00     0.034 A 
HETATM   17 CL   UNL     1     -39.588  49.975 -54.570  1.00  0.00    -0.084 Cl
HETATM   18  C   UNL     1     -39.399  51.465 -52.329  1.00  0.00     0.024 A 
HETATM   19  C   UNL     1     -39.698  52.579 -51.545  1.00  0.00     0.002 A 
HETATM   20  C   UNL     1     -40.547  53.572 -52.035  1.00  0.00     0.008 A 
ENDBRANCH  13  14
ENDBRANCH  12  13
ENDBRANCH   7  12
BRANCH   2  21
HETATM   21  C   UNL     1     -42.837  59.593 -55.283  1.00  0.00    -0.028 A 
HETATM   22  C   UNL     1     -44.243  59.624 -55.243  1.00  0.00     0.011 A 
HETATM   23  C   UNL     1     -44.908  60.170 -54.142  1.00  0.00     0.024 A 
HETATM   24  C   UNL     1     -44.177  60.690 -53.076  1.00  0.00     0.034 A 
HETATM   25 CL   UNL     1     -44.999  61.360 -51.722  1.00  0.00    -0.084 Cl
HETATM   26  C   UNL     1     -42.785  60.671 -53.101  1.00  0.00     0.024 A 
HETATM   27  C   UNL     1     -42.118  60.127 -54.201  1.00  0.00     0.011 A 
ENDBRANCH   2  21
BRANCH   1  28
HETATM   28  C   UNL     1     -41.919  61.178 -57.694  1.00  0.00     0.293 C 
HETATM   29  O   UNL     1     -42.697  62.078 -57.426  1.00  0.00    -0.259 OA
BRANCH  28  30
HETATM   30  O   UNL     1     -40.621  61.311 -58.062  1.00  0.00    -0.318 OA
BRANCH  30  31
HETATM   31  C   UNL     1     -40.252  62.597 -58.582  1.00  0.00     0.174 C 
HETATM   32  C   UNL     1     -40.266  62.586 -60.100  1.00  0.00     0.034 C 
ENDBRANCH  30  31
ENDBRANCH  28  30
ENDBRANCH   1  28
TORSDOF 7
ENDMDL
MODEL 6
REMARK VINA RESULT:      -7.4      3.188      5.065
REMARK  7 active torsions:
REMARK  status: ('A' for Active; 'I' for Inactive)
REMARK    1  A    between atoms: C_2  and  O_3 
REMARK    2  A    between atoms: O_3  and  C_4 
REMARK    3  A    between atoms: C_4  and  C_5 
REMARK    4  A    between atoms: C_6  and  C_7 
REMARK    5  A    between atoms: C_18  and  S_19 
REMARK    6  A    between atoms: S_19  and  C_20 
REMARK    7  A    between atoms: C_20  and  C_21 
ROOT
HETATM    1  C   UNL     1     -42.881  57.314 -57.264  1.00  0.00     0.070 A 
HETATM    2  C   UNL     1     -43.271  56.822 -55.877  1.00  0.00     0.203 A 
HETATM    3  N   UNL     1     -43.055  57.860 -54.863  1.00  0.00    -0.082 N 
HETATM    4  C   UNL     1     -42.509  59.087 -55.121  1.00  0.00     0.726 A 
HETATM    5  N   UNL     1     -42.152  59.397 -56.382  1.00  0.00    -0.192 N 
HETATM    6  N   UNL     1     -43.403  57.741 -53.569  1.00  0.00    -0.128 NA
HETATM    7  C   UNL     1     -42.978  58.912 -53.084  1.00  0.00     0.226 A 
HETATM    8  N   UNL     1     -42.442  59.775 -54.010  1.00  0.00    -0.035 NA
HETATM    9  C   UNL     1     -42.360  58.549 -57.467  1.00  0.00     0.037 A 
HETATM   10  C   UNL     1     -42.024  59.124 -58.821  1.00  0.00     0.070 C 
HETATM   11  H   UNL     1     -41.778  60.324 -56.573  1.00  0.00     0.184 HD
ENDROOT
BRANCH   7  12
HETATM   12  S   UNL     1     -43.097  59.259 -51.385  1.00  0.00    -0.083 SA
BRANCH  12  13
HETATM   13  C   UNL     1     -41.699  58.294 -50.759  1.00  0.00     0.121 C 
BRANCH  13  14
HETATM   14  C   UNL     1     -41.978  56.811 -50.843  1.00  0.00    -0.047 A 
HETATM   15  C   UNL     1     -40.928  55.897 -51.016  1.00  0.00     0.031 A 
HETATM   16  C   UNL     1     -41.196  54.532 -51.120  1.00  0.00     0.034 A 
HETATM   17 CL   UNL     1     -39.898  53.421 -51.327  1.00  0.00    -0.084 Cl
HETATM   18  C   UNL     1     -42.506  54.060 -51.060  1.00  0.00     0.024 A 
HETATM   19  C   UNL     1     -43.557  54.961 -50.893  1.00  0.00     0.002 A 
HETATM   20  C   UNL     1     -43.295  56.328 -50.784  1.00  0.00     0.008 A 
ENDBRANCH  13  14
ENDBRANCH  12  13
ENDBRANCH   7  12
BRANCH   2  21
HETATM   21  C   UNL     1     -42.534  55.544 -55.475  1.00  0.00    -0.028 A 
HETATM   22  C   UNL     1     -43.220  54.339 -55.235  1.00  0.00     0.011 A 
HETATM   23  C   UNL     1     -42.521  53.186 -54.871  1.00  0.00     0.024 A 
HETATM   24  C   UNL     1     -41.134  53.225 -54.744  1.00  0.00     0.034 A 
HETATM   25 CL   UNL     1     -40.276  51.803 -54.298  1.00  0.00    -0.084 Cl
HETATM   26  C   UNL     1     -40.439  54.409 -54.973  1.00  0.00     0.024 A 
HETATM   27  C   UNL     1     -41.136  55.564 -55.336  1.00  0.00     0.011 A 
ENDBRANCH   2  21
BRANCH   1  28
HETATM   28  C   UNL     1     -43.164  56.333 -58.329  1.00  0.00     0.293 C 
HETATM   29  O   UNL     1     -42.321  55.563 -58.761  1.00  0.00    -0.259 OA
BRANCH  28  30
HETATM   30  O   UNL     1     -44.426  56.497 -58.796  1.00  0.00    -0.318 OA
BRANCH  30  31
HETATM   31  C   UNL     1     -44.544  56.686 -60.214  1.00  0.00     0.174 C 
HETATM   32  C   UNL     1     -45.050  55.423 -60.884  1.00  0.00     0.034 C 
ENDBRANCH  30  31
ENDBRANCH  28  30
ENDBRANCH   1  28
TORSDOF 7
ENDMDL
MODEL 7
REMARK VINA RESULT:      -7.4      3.450      8.544
REMARK  7 active torsions:
REMARK  status: ('A' for Active; 'I' for Inactive)
REMARK    1  A    between atoms: C_2  and  O_3 
REMARK    2  A    between atoms: O_3  and  C_4 
REMARK    3  A    between atoms: C_4  and  C_5 
REMARK    4  A    between atoms: C_6  and  C_7 
REMARK    5  A    between atoms: C_18  and  S_19 
REMARK    6  A    between atoms: S_19  and  C_20 
REMARK    7  A    between atoms: C_20  and  C_21 
ROOT
HETATM    1  C   UNL     1     -42.656  57.243 -52.689  1.00  0.00     0.070 A 
HETATM    2  C   UNL     1     -42.073  56.932 -54.060  1.00  0.00     0.203 A 
HETATM    3  N   UNL     1     -43.037  57.219 -55.127  1.00  0.00    -0.082 N 
HETATM    4  C   UNL     1     -44.319  57.647 -54.913  1.00  0.00     0.726 A 
HETATM    5  N   UNL     1     -44.745  57.841 -53.651  1.00  0.00    -0.192 N 
HETATM    6  N   UNL     1     -42.762  57.134 -56.442  1.00  0.00    -0.128 NA
HETATM    7  C   UNL     1     -43.947  57.461 -56.969  1.00  0.00     0.226 A 
HETATM    8  N   UNL     1     -44.923  57.803 -56.063  1.00  0.00    -0.035 NA
HETATM    9  C   UNL     1     -43.929  57.683 -52.533  1.00  0.00     0.037 A 
HETATM   10  C   UNL     1     -44.542  58.080 -51.213  1.00  0.00     0.070 C 
HETATM   11  H   UNL     1     -45.689  58.191 -53.500  1.00  0.00     0.184 HD
ENDROOT
BRANCH   7  12
HETATM   12  S   UNL     1     -44.189  57.417 -58.690  1.00  0.00    -0.083 SA
BRANCH  12  13
HETATM   13  C   UNL     1     -42.473  57.513 -59.261  1.00  0.00     0.121 C 
BRANCH  13  14
HETATM   14  C   UNL     1     -42.128  58.912 -59.715  1.00  0.00    -0.047 A 
HETATM   15  C   UNL     1     -41.770  59.897 -58.781  1.00  0.00     0.031 A 
HETATM   16  C   UNL     1     -41.479  61.193 -59.205  1.00  0.00     0.034 A 
HETATM   17 CL   UNL     1     -41.037  62.389 -58.050  1.00  0.00    -0.084 Cl
HETATM   18  C   UNL     1     -41.545  61.529 -60.556  1.00  0.00     0.024 A 
HETATM   19  C   UNL     1     -41.904  60.559 -61.491  1.00  0.00     0.002 A 
HETATM   20  C   UNL     1     -42.193  59.259 -61.074  1.00  0.00     0.008 A 
ENDBRANCH  13  14
ENDBRANCH  12  13
ENDBRANCH   7  12
BRANCH   2  21
HETATM   21  C   UNL     1     -41.583  55.488 -54.180  1.00  0.00    -0.028 A 
HETATM   22  C   UNL     1     -40.289  55.181 -54.640  1.00  0.00     0.011 A 
HETATM   23  C   UNL     1     -39.868  53.853 -54.737  1.00  0.00     0.024 A 
HETATM   24  C   UNL     1     -40.733  52.822 -54.378  1.00  0.00     0.034 A 
HETATM   25 CL   UNL     1     -40.210  51.188 -54.497  1.00  0.00    -0.084 Cl
HETATM   26  C   UNL     1     -42.018  53.106 -53.925  1.00  0.00     0.024 A 
HETATM   27  C   UNL     1     -42.443  54.433 -53.828  1.00  0.00     0.011 A 
ENDBRANCH   2  21
BRANCH   1  28
HETATM   28  C   UNL     1     -41.690  57.051 -51.590  1.00  0.00     0.293 C 
HETATM   29  O   UNL     1     -40.690  57.738 -51.462  1.00  0.00    -0.259 OA
BRANCH  28  30
HETATM   30  O   UNL     1     -42.030  55.970 -50.848  1.00  0.00    -0.318 OA
BRANCH  30  31
HETATM   31  C   UNL     1     -40.977  55.405 -50.053  1.00  0.00     0.174 C 
HETATM   32  C   UNL     1     -40.470  54.115 -50.670  1.00  0.00     0.034 C 
ENDBRANCH  30  31
ENDBRANCH  28  30
ENDBRANCH   1  28
TORSDOF 7
ENDMDL
MODEL 8
REMARK VINA RESULT:      -7.4      4.102      7.891
REMARK  7 active torsions:
REMARK  status: ('A' for Active; 'I' for Inactive)
REMARK    1  A    between atoms: C_2  and  O_3 
REMARK    2  A    between atoms: O_3  and  C_4 
REMARK    3  A    between atoms: C_4  and  C_5 
REMARK    4  A    between atoms: C_6  and  C_7 
REMARK    5  A    between atoms: C_18  and  S_19 
REMARK    6  A    between atoms: S_19  and  C_20 
REMARK    7  A    between atoms: C_20  and  C_21 
ROOT
HETATM    1  C   UNL     1     -42.428  54.680 -53.607  1.00  0.00     0.070 A 
HETATM    2  C   UNL     1     -43.337  55.873 -53.866  1.00  0.00     0.203 A 
HETATM    3  N   UNL     1     -43.294  56.279 -55.275  1.00  0.00    -0.082 N 
HETATM    4  C   UNL     1     -42.489  55.703 -56.219  1.00  0.00     0.726 A 
HETATM    5  N   UNL     1     -41.685  54.683 -55.864  1.00  0.00    -0.192 N 
HETATM    6  N   UNL     1     -44.068  57.239 -55.812  1.00  0.00    -0.128 NA
HETATM    7  C   UNL     1     -43.633  57.237 -57.076  1.00  0.00     0.226 A 
HETATM    8  N   UNL     1     -42.678  56.294 -57.371  1.00  0.00    -0.035 NA
HETATM    9  C   UNL     1     -41.663  54.133 -54.584  1.00  0.00     0.037 A 
HETATM   10  C   UNL     1     -40.802  52.907 -54.412  1.00  0.00     0.070 C 
HETATM   11  H   UNL     1     -41.114  54.236 -56.578  1.00  0.00     0.184 HD
ENDROOT
BRANCH   7  12
HETATM   12  S   UNL     1     -44.249  58.390 -58.223  1.00  0.00    -0.083 SA
BRANCH  12  13
HETATM   13  C   UNL     1     -42.909  58.384 -59.440  1.00  0.00     0.121 C 
BRANCH  13  14
HETATM   14  C   UNL     1     -42.186  59.711 -59.462  1.00  0.00    -0.047 A 
HETATM   15  C   UNL     1     -41.961  60.380 -60.675  1.00  0.00     0.031 A 
HETATM   16  C   UNL     1     -41.269  61.591 -60.690  1.00  0.00     0.034 A 
HETATM   17 CL   UNL     1     -41.005  62.403 -62.184  1.00  0.00    -0.084 Cl
HETATM   18  C   UNL     1     -40.788  62.148 -59.507  1.00  0.00     0.024 A 
HETATM   19  C   UNL     1     -41.002  61.489 -58.297  1.00  0.00     0.002 A 
HETATM   20  C   UNL     1     -41.697  60.278 -58.274  1.00  0.00     0.008 A 
ENDBRANCH  13  14
ENDBRANCH  12  13
ENDBRANCH   7  12
BRANCH   2  21
HETATM   21  C   UNL     1     -43.009  57.070 -52.972  1.00  0.00    -0.028 A 
HETATM   22  C   UNL     1     -43.953  57.603 -52.075  1.00  0.00     0.011 A 
HETATM   23  C   UNL     1     -43.625  58.695 -51.269  1.00  0.00     0.024 A 
HETATM   24  C   UNL     1     -42.357  59.264 -51.352  1.00  0.00     0.034 A 
HETATM   25 CL   UNL     1     -41.956  60.608 -50.356  1.00  0.00    -0.084 Cl
HETATM   26  C   UNL     1     -41.412  58.753 -52.236  1.00  0.00     0.024 A 
HETATM   27  C   UNL     1     -41.736  57.662 -53.045  1.00  0.00     0.011 A 
ENDBRANCH   2  21
BRANCH   1  28
HETATM   28  C   UNL     1     -42.506  54.181 -52.220  1.00  0.00     0.293 C 
HETATM   29  O   UNL     1     -43.544  53.782 -51.718  1.00  0.00    -0.259 OA
BRANCH  28  30
HETATM   30  O   UNL     1     -41.312  54.334 -51.598  1.00  0.00    -0.318 OA
BRANCH  30  31
HETATM   31  C   UNL     1     -41.366  54.443 -50.167  1.00  0.00     0.174 C 
HETATM   32  C   UNL     1     -41.382  55.899 -49.739  1.00  0.00     0.034 C 
ENDBRANCH  30  31
ENDBRANCH  28  30
ENDBRANCH   1  28
TORSDOF 7
ENDMDL
MODEL 9
REMARK VINA RESULT:      -7.4      3.719      8.526
REMARK  7 active torsions:
REMARK  status: ('A' for Active; 'I' for Inactive)
REMARK    1  A    between atoms: C_2  and  O_3 
REMARK    2  A    between atoms: O_3  and  C_4 
REMARK    3  A    between atoms: C_4  and  C_5 
REMARK    4  A    between atoms: C_6  and  C_7 
REMARK    5  A    between atoms: C_18  and  S_19 
REMARK    6  A    between atoms: S_19  and  C_20 
REMARK    7  A    between atoms: C_20  and  C_21 
ROOT
HETATM    1  C   UNL     1     -42.691  57.226 -52.751  1.00  0.00     0.070 A 
HETATM    2  C   UNL     1     -42.079  56.898 -54.105  1.00  0.00     0.203 A 
HETATM    3  N   UNL     1     -43.023  57.169 -55.196  1.00  0.00    -0.082 N 
HETATM    4  C   UNL     1     -44.309  57.595 -55.013  1.00  0.00     0.726 A 
HETATM    5  N   UNL     1     -44.761  57.805 -53.762  1.00  0.00    -0.192 N 
HETATM    6  N   UNL     1     -42.722  57.066 -56.503  1.00  0.00    -0.128 NA
HETATM    7  C   UNL     1     -43.896  57.383 -57.058  1.00  0.00     0.226 A 
HETATM    8  N   UNL     1     -44.890  57.734 -56.177  1.00  0.00    -0.035 NA
HETATM    9  C   UNL     1     -43.968  57.665 -52.627  1.00  0.00     0.037 A 
HETATM   10  C   UNL     1     -44.608  58.078 -51.325  1.00  0.00     0.070 C 
HETATM   11  H   UNL     1     -45.708  58.155 -53.635  1.00  0.00     0.184 HD
ENDROOT
BRANCH   7  12
HETATM   12  S   UNL     1     -44.104  57.314 -58.783  1.00  0.00    -0.083 SA
BRANCH  12  13
HETATM   13  C   UNL     1     -42.396  57.571 -59.325  1.00  0.00     0.121 C 
BRANCH  13  14
HETATM   14  C   UNL     1     -42.107  59.040 -59.537  1.00  0.00    -0.047 A 
HETATM   15  C   UNL     1     -42.171  59.601 -60.822  1.00  0.00     0.031 A 
HETATM   16  C   UNL     1     -41.876  60.950 -61.014  1.00  0.00     0.034 A 
HETATM   17 CL   UNL     1     -41.965  61.626 -62.594  1.00  0.00    -0.084 Cl
HETATM   18  C   UNL     1     -41.509  61.756 -59.938  1.00  0.00     0.024 A 
HETATM   19  C   UNL     1     -41.437  61.207 -58.658  1.00  0.00     0.002 A 
HETATM   20  C   UNL     1     -41.734  59.858 -58.458  1.00  0.00     0.008 A 
ENDBRANCH  13  14
ENDBRANCH  12  13
ENDBRANCH   7  12
BRANCH   2  21
HETATM   21  C   UNL     1     -41.584  55.454 -54.196  1.00  0.00    -0.028 A 
HETATM   22  C   UNL     1     -40.286  55.144 -54.643  1.00  0.00     0.011 A 
HETATM   23  C   UNL     1     -39.860  53.816 -54.713  1.00  0.00     0.024 A 
HETATM   24  C   UNL     1     -40.723  52.788 -54.339  1.00  0.00     0.034 A 
HETATM   25 CL   UNL     1     -40.193  51.154 -54.424  1.00  0.00    -0.084 Cl
HETATM   26  C   UNL     1     -42.011  53.076 -53.898  1.00  0.00     0.024 A 
HETATM   27  C   UNL     1     -42.441  54.403 -53.828  1.00  0.00     0.011 A 
ENDBRANCH   2  21
BRANCH   1  28
HETATM   28  C   UNL     1     -41.746  57.053 -51.630  1.00  0.00     0.293 C 
HETATM   29  O   UNL     1     -40.718  57.701 -51.525  1.00  0.00    -0.259 OA
BRANCH  28  30
HETATM   30  O   UNL     1     -42.142  56.029 -50.836  1.00  0.00    -0.318 OA
BRANCH  30  31
HETATM   31  C   UNL     1     -41.123  55.460 -50.000  1.00  0.00     0.174 C 
HETATM   32  C   UNL     1     -40.519  54.230 -50.650  1.00  0.00     0.034 C 
ENDBRANCH  30  31
ENDBRANCH  28  30
ENDBRANCH   1  28
TORSDOF 7
ENDMDL
MODEL 10
REMARK VINA RESULT:      -7.4      3.854      8.785
REMARK  7 active torsions:
REMARK  status: ('A' for Active; 'I' for Inactive)
REMARK    1  A    between atoms: C_2  and  O_3 
REMARK    2  A    between atoms: O_3  and  C_4 
REMARK    3  A    between atoms: C_4  and  C_5 
REMARK    4  A    between atoms: C_6  and  C_7 
REMARK    5  A    between atoms: C_18  and  S_19 
REMARK    6  A    between atoms: S_19  and  C_20 
REMARK    7  A    between atoms: C_20  and  C_21 
ROOT
HETATM    1  C   UNL     1     -42.789  57.302 -53.225  1.00  0.00     0.070 A 
HETATM    2  C   UNL     1     -42.074  56.893 -54.504  1.00  0.00     0.203 A 
HETATM    3  N   UNL     1     -42.907  57.148 -55.685  1.00  0.00    -0.082 N 
HETATM    4  C   UNL     1     -44.188  57.626 -55.635  1.00  0.00     0.726 A 
HETATM    5  N   UNL     1     -44.740  57.906 -54.439  1.00  0.00    -0.192 N 
HETATM    6  N   UNL     1     -42.497  56.977 -56.954  1.00  0.00    -0.128 NA
HETATM    7  C   UNL     1     -43.606  57.310 -57.625  1.00  0.00     0.226 A 
HETATM    8  N   UNL     1     -44.659  57.734 -56.851  1.00  0.00    -0.035 NA
HETATM    9  C   UNL     1     -44.054  57.789 -53.232  1.00  0.00     0.037 A 
HETATM   10  C   UNL     1     -44.790  58.281 -52.011  1.00  0.00     0.070 C 
HETATM   11  H   UNL     1     -45.680  58.294 -54.411  1.00  0.00     0.184 HD
ENDROOT
BRANCH   7  12
HETATM   12  S   UNL     1     -43.664  57.172 -59.357  1.00  0.00    -0.083 SA
BRANCH  12  13
HETATM   13  C   UNL     1     -45.166  56.180 -59.553  1.00  0.00     0.121 C 
BRANCH  13  14
HETATM   14  C   UNL     1     -46.220  56.935 -60.329  1.00  0.00    -0.047 A 
HETATM   15  C   UNL     1     -46.306  58.334 -60.239  1.00  0.00     0.031 A 
HETATM   16  C   UNL     1     -47.299  59.021 -60.936  1.00  0.00     0.034 A 
HETATM   17 CL   UNL     1     -47.389  60.736 -60.822  1.00  0.00    -0.084 Cl
HETATM   18  C   UNL     1     -48.220  58.332 -61.723  1.00  0.00     0.024 A 
HETATM   19  C   UNL     1     -48.146  56.943 -61.814  1.00  0.00     0.002 A 
HETATM   20  C   UNL     1     -47.152  56.249 -61.122  1.00  0.00     0.008 A 
ENDBRANCH  13  14
ENDBRANCH  12  13
ENDBRANCH   7  12
BRANCH   2  21
HETATM   21  C   UNL     1     -41.628  55.431 -54.491  1.00  0.00    -0.028 A 
HETATM   22  C   UNL     1     -42.541  54.381 -54.281  1.00  0.00     0.011 A 
HETATM   23  C   UNL     1     -42.106  53.054 -54.277  1.00  0.00     0.024 A 
HETATM   24  C   UNL     1     -40.759  52.764 -54.480  1.00  0.00     0.034 A 
HETATM   25 CL   UNL     1     -40.227  51.128 -54.476  1.00  0.00    -0.084 Cl
HETATM   26  C   UNL     1     -39.840  53.789 -54.685  1.00  0.00     0.024 A 
HETATM   27  C   UNL     1     -40.272  55.117 -54.689  1.00  0.00     0.011 A 
ENDBRANCH   2  21
BRANCH   1  28
HETATM   28  C   UNL     1     -41.954  57.146 -52.018  1.00  0.00     0.293 C 
HETATM   29  O   UNL     1     -40.962  57.825 -51.807  1.00  0.00    -0.259 OA
BRANCH  28  30
HETATM   30  O   UNL     1     -42.391  56.100 -51.275  1.00  0.00    -0.318 OA
BRANCH  30  31
HETATM   31  C   UNL     1     -41.434  55.541 -50.363  1.00  0.00     0.174 C 
HETATM   32  C   UNL     1     -40.751  54.332 -50.974  1.00  0.00     0.034 C 
ENDBRANCH  30  31
ENDBRANCH  28  30
ENDBRANCH   1  28
TORSDOF 7
ENDMDL
