MODEL 1
REMARK VINA RESULT:      -7.0      0.000      0.000
REMARK  9 active torsions:
REMARK  status: ('A' for Active; 'I' for Inactive)
REMARK    1  A    between atoms: C_2  and  C_3 
REMARK    2  A    between atoms: C_7  and  C_8 
REMARK    3  A    between atoms: C_8  and  C_9 
REMARK       I    between atoms: C_9  and  N_10 
REMARK    4  A    between atoms: N_10  and  C_11 
REMARK    5  A    between atoms: C_11  and  C_12 
REMARK    6  A    between atoms: C_12  and  C_13 
REMARK    7  A    between atoms: C_21  and  C_22 
REMARK    8  A    between atoms: C_32  and  C_33 
REMARK    9  A    between atoms: C_33  and  O_34 
ROOT
HETATM    1  C   UNL     1     -43.754  61.497 -51.478  1.00  0.00     0.051 C 
HETATM    2  N   UNL     1     -42.515  61.207 -50.941  1.00  0.00    -0.228 NA
HETATM    3  C   UNL     1     -42.112  59.989 -50.936  1.00  0.00     0.170 C 
HETATM    4  N   UNL     1     -42.829  58.805 -51.628  1.00  0.00    -0.318 N 
HETATM    5  C   UNL     1     -42.193  57.694 -51.441  1.00  0.00     0.011 C 
HETATM    6  C   UNL     1     -43.958  59.210 -52.503  1.00  0.00     0.166 C 
HETATM    7  S   UNL     1     -40.634  59.502 -50.174  1.00  0.00    -0.086 SA
HETATM    8  C   UNL     1     -40.996  57.761 -50.517  1.00  0.00     0.135 C 
HETATM    9  C   UNL     1     -44.492  60.571 -52.129  1.00  0.00     0.069 C 
ENDROOT
BRANCH   5  10
HETATM   10  C   UNL     1     -42.550  56.440 -52.186  1.00  0.00     0.156 C 
BRANCH  10  11
HETATM   11  C   UNL     1     -41.625  56.164 -53.348  1.00  0.00     0.222 C 
HETATM   12  N   UNL     1     -41.889  55.015 -54.051  1.00  0.00    -0.361 N 
HETATM   13  H   UNL     1     -42.657  54.410 -53.771  1.00  0.00     0.162 HD
HETATM   14  O   UNL     1     -40.712  56.938 -53.615  1.00  0.00    -0.273 OA
BRANCH  12  15
HETATM   15  C   UNL     1     -41.111  54.619 -55.216  1.00  0.00     0.124 C 
BRANCH  15  16
HETATM   16  C   UNL     1     -40.178  53.448 -54.892  1.00  0.00     0.053 C 
BRANCH  16  17
HETATM   17  C   UNL     1     -40.782  52.480 -53.861  1.00  0.00     0.189 C 
HETATM   18  N   UNL     1     -39.887  52.473 -52.613  1.00  0.00    -0.071 N 
HETATM   19  H   UNL     1     -39.128  53.155 -52.735  1.00  0.00     0.279 HD
HETATM   20  C   UNL     1     -40.607  52.857 -51.350  1.00  0.00     0.270 C 
HETATM   21  C   UNL     1     -39.232  51.103 -52.512  1.00  0.00     0.235 C 
HETATM   22  C   UNL     1     -39.430  50.496 -53.884  1.00  0.00     0.030 C 
HETATM   23  C   UNL     1     -40.793  51.016 -54.295  1.00  0.00     0.035 C 
ENDBRANCH  16  17
ENDBRANCH  15  16
ENDBRANCH  12  15
ENDBRANCH  10  11
ENDBRANCH   5  10
BRANCH   6  24
HETATM   24  C   UNL     1     -43.501  59.118 -53.968  1.00  0.00    -0.024 A 
HETATM   25  C   UNL     1     -44.041  58.191 -54.891  1.00  0.00    -0.053 A 
HETATM   26  C   UNL     1     -45.227  57.298 -54.618  1.00  0.00     0.049 C 
HETATM   27  C   UNL     1     -43.528  58.149 -56.206  1.00  0.00     0.014 A 
HETATM   28  C   UNL     1     -42.486  58.981 -56.620  1.00  0.00    -0.061 A 
HETATM   29  C   UNL     1     -41.988  58.943 -58.037  1.00  0.00     0.048 C 
HETATM   30  C   UNL     1     -41.977  59.915 -55.724  1.00  0.00     0.007 A 
HETATM   31  C   UNL     1     -42.479  59.988 -54.424  1.00  0.00     0.011 A 
ENDBRANCH   6  24
BRANCH   9  32
HETATM   32  C   UNL     1     -45.925  60.743 -52.487  1.00  0.00     0.293 C 
HETATM   33  O   UNL     1     -46.826  60.571 -51.686  1.00  0.00    -0.259 OA
BRANCH  32  34
HETATM   34  O   UNL     1     -46.044  61.311 -53.707  1.00  0.00    -0.323 OA
HETATM   35  C   UNL     1     -46.921  62.441 -53.767  1.00  0.00     0.213 C 
ENDBRANCH  32  34
ENDBRANCH   9  32
BRANCH   1  36
HETATM   36  C   UNL     1     -44.157  62.953 -51.265  1.00  0.00     0.056 C 
HETATM   37  C   UNL     1     -43.136  63.756 -50.463  1.00  0.00     0.011 C 
ENDBRANCH   1  36
TORSDOF 9
ENDMDL
MODEL 2
REMARK VINA RESULT:      -6.7      2.698      5.256
REMARK  9 active torsions:
REMARK  status: ('A' for Active; 'I' for Inactive)
REMARK    1  A    between atoms: C_2  and  C_3 
REMARK    2  A    between atoms: C_7  and  C_8 
REMARK    3  A    between atoms: C_8  and  C_9 
REMARK       I    between atoms: C_9  and  N_10 
REMARK    4  A    between atoms: N_10  and  C_11 
REMARK    5  A    between atoms: C_11  and  C_12 
REMARK    6  A    between atoms: C_12  and  C_13 
REMARK    7  A    between atoms: C_21  and  C_22 
REMARK    8  A    between atoms: C_32  and  C_33 
REMARK    9  A    between atoms: C_33  and  O_34 
ROOT
HETATM    1  C   UNL     1     -41.947  60.151 -57.181  1.00  0.00     0.051 C 
HETATM    2  N   UNL     1     -41.914  60.805 -55.965  1.00  0.00    -0.228 NA
HETATM    3  C   UNL     1     -42.690  60.403 -55.025  1.00  0.00     0.170 C 
HETATM    4  N   UNL     1     -43.571  59.132 -55.072  1.00  0.00    -0.318 N 
HETATM    5  C   UNL     1     -44.255  58.991 -53.983  1.00  0.00     0.011 C 
HETATM    6  C   UNL     1     -43.307  58.256 -56.242  1.00  0.00     0.166 C 
HETATM    7  S   UNL     1     -42.819  61.231 -53.509  1.00  0.00    -0.086 SA
HETATM    8  C   UNL     1     -44.149  60.121 -52.982  1.00  0.00     0.135 C 
HETATM    9  C   UNL     1     -42.656  59.017 -57.372  1.00  0.00     0.069 C 
ENDROOT
BRANCH   5  10
HETATM   10  C   UNL     1     -45.014  57.731 -53.679  1.00  0.00     0.156 C 
BRANCH  10  11
HETATM   11  C   UNL     1     -44.725  57.190 -52.299  1.00  0.00     0.222 C 
HETATM   12  N   UNL     1     -43.890  56.101 -52.257  1.00  0.00    -0.361 N 
HETATM   13  H   UNL     1     -43.521  55.707 -53.119  1.00  0.00     0.162 HD
HETATM   14  O   UNL     1     -45.220  57.714 -51.308  1.00  0.00    -0.273 OA
BRANCH  12  15
HETATM   15  C   UNL     1     -43.488  55.476 -51.005  1.00  0.00     0.124 C 
BRANCH  15  16
HETATM   16  C   UNL     1     -42.839  54.111 -51.246  1.00  0.00     0.053 C 
BRANCH  16  17
HETATM   17  C   UNL     1     -41.315  54.136 -51.035  1.00  0.00     0.189 C 
HETATM   18  N   UNL     1     -40.911  52.888 -50.236  1.00  0.00    -0.071 N 
HETATM   19  H   UNL     1     -41.741  52.303 -50.076  1.00  0.00     0.279 HD
HETATM   20  C   UNL     1     -39.904  52.019 -50.937  1.00  0.00     0.270 C 
HETATM   21  C   UNL     1     -40.428  53.344 -48.866  1.00  0.00     0.235 C 
HETATM   22  C   UNL     1     -40.932  54.767 -48.750  1.00  0.00     0.030 C 
HETATM   23  C   UNL     1     -40.813  55.288 -50.169  1.00  0.00     0.035 C 
ENDBRANCH  16  17
ENDBRANCH  15  16
ENDBRANCH  12  15
ENDBRANCH  10  11
ENDBRANCH   5  10
BRANCH   6  24
HETATM   24  C   UNL     1     -42.485  57.045 -55.772  1.00  0.00    -0.024 A 
HETATM   25  C   UNL     1     -42.676  55.736 -56.277  1.00  0.00    -0.053 A 
HETATM   26  C   UNL     1     -43.578  55.385 -57.435  1.00  0.00     0.049 C 
HETATM   27  C   UNL     1     -41.904  54.676 -55.755  1.00  0.00     0.014 A 
HETATM   28  C   UNL     1     -40.968  54.874 -54.737  1.00  0.00    -0.061 A 
HETATM   29  C   UNL     1     -40.131  53.735 -54.229  1.00  0.00     0.048 C 
HETATM   30  C   UNL     1     -40.756  56.165 -54.263  1.00  0.00     0.007 A 
HETATM   31  C   UNL     1     -41.494  57.232 -54.776  1.00  0.00     0.011 A 
ENDBRANCH   6  24
BRANCH   9  32
HETATM   32  C   UNL     1     -42.947  58.424 -58.704  1.00  0.00     0.293 C 
HETATM   33  O   UNL     1     -43.980  58.647 -59.309  1.00  0.00    -0.259 OA
BRANCH  32  34
HETATM   34  O   UNL     1     -41.846  57.821 -59.204  1.00  0.00    -0.323 OA
HETATM   35  C   UNL     1     -42.086  56.942 -60.309  1.00  0.00     0.213 C 
ENDBRANCH  32  34
ENDBRANCH   9  32
BRANCH   1  36
HETATM   36  C   UNL     1     -41.092  60.842 -58.239  1.00  0.00     0.056 C 
HETATM   37  C   UNL     1     -41.277  62.356 -58.277  1.00  0.00     0.011 C 
ENDBRANCH   1  36
TORSDOF 9
ENDMDL
MODEL 3
REMARK VINA RESULT:      -6.6      1.876      2.291
REMARK  9 active torsions:
REMARK  status: ('A' for Active; 'I' for Inactive)
REMARK    1  A    between atoms: C_2  and  C_3 
REMARK    2  A    between atoms: C_7  and  C_8 
REMARK    3  A    between atoms: C_8  and  C_9 
REMARK       I    between atoms: C_9  and  N_10 
REMARK    4  A    between atoms: N_10  and  C_11 
REMARK    5  A    between atoms: C_11  and  C_12 
REMARK    6  A    between atoms: C_12  and  C_13 
REMARK    7  A    between atoms: C_21  and  C_22 
REMARK    8  A    between atoms: C_32  and  C_33 
REMARK    9  A    between atoms: C_33  and  O_34 
ROOT
HETATM    1  C   UNL     1     -43.838  60.731 -49.904  1.00  0.00     0.051 C 
HETATM    2  N   UNL     1     -42.464  60.636 -49.813  1.00  0.00    -0.228 NA
HETATM    3  C   UNL     1     -41.825  60.006 -50.731  1.00  0.00     0.170 C 
HETATM    4  N   UNL     1     -42.443  59.461 -52.040  1.00  0.00    -0.318 N 
HETATM    5  C   UNL     1     -41.558  58.860 -52.767  1.00  0.00     0.011 C 
HETATM    6  C   UNL     1     -43.842  59.900 -52.277  1.00  0.00     0.166 C 
HETATM    7  S   UNL     1     -40.119  59.719 -50.646  1.00  0.00    -0.086 SA
HETATM    8  C   UNL     1     -40.183  58.713 -52.151  1.00  0.00     0.135 C 
HETATM    9  C   UNL     1     -44.520  60.315 -50.994  1.00  0.00     0.069 C 
ENDROOT
BRANCH   5  10
HETATM   10  C   UNL     1     -41.842  58.439 -54.180  1.00  0.00     0.156 C 
BRANCH  10  11
HETATM   11  C   UNL     1     -42.195  56.975 -54.297  1.00  0.00     0.222 C 
HETATM   12  N   UNL     1     -41.652  56.323 -55.376  1.00  0.00    -0.361 N 
HETATM   13  H   UNL     1     -41.067  56.828 -56.036  1.00  0.00     0.162 HD
HETATM   14  O   UNL     1     -42.920  56.441 -53.464  1.00  0.00    -0.273 OA
BRANCH  12  15
HETATM   15  C   UNL     1     -41.871  54.904 -55.618  1.00  0.00     0.124 C 
BRANCH  15  16
HETATM   16  C   UNL     1     -40.761  54.053 -54.993  1.00  0.00     0.053 C 
BRANCH  16  17
HETATM   17  C   UNL     1     -41.300  53.038 -53.971  1.00  0.00     0.189 C 
HETATM   18  N   UNL     1     -40.785  53.426 -52.577  1.00  0.00    -0.071 N 
HETATM   19  H   UNL     1     -40.249  54.302 -52.644  1.00  0.00     0.279 HD
HETATM   20  C   UNL     1     -41.879  53.671 -51.575  1.00  0.00     0.270 C 
HETATM   21  C   UNL     1     -39.811  52.351 -52.120  1.00  0.00     0.235 C 
HETATM   22  C   UNL     1     -39.473  51.594 -53.386  1.00  0.00     0.030 C 
HETATM   23  C   UNL     1     -40.779  51.615 -54.156  1.00  0.00     0.035 C 
ENDBRANCH  16  17
ENDBRANCH  15  16
ENDBRANCH  12  15
ENDBRANCH  10  11
ENDBRANCH   5  10
BRANCH   6  24
HETATM   24  C   UNL     1     -43.836  61.004 -53.346  1.00  0.00    -0.024 A 
HETATM   25  C   UNL     1     -44.402  60.840 -54.633  1.00  0.00    -0.053 A 
HETATM   26  C   UNL     1     -45.218  59.647 -55.066  1.00  0.00     0.049 C 
HETATM   27  C   UNL     1     -44.311  61.895 -55.566  1.00  0.00     0.014 A 
HETATM   28  C   UNL     1     -43.657  63.093 -55.267  1.00  0.00    -0.061 A 
HETATM   29  C   UNL     1     -43.611  64.214 -56.265  1.00  0.00     0.048 C 
HETATM   30  C   UNL     1     -43.129  63.268 -53.992  1.00  0.00     0.007 A 
HETATM   31  C   UNL     1     -43.222  62.246 -53.046  1.00  0.00     0.011 A 
ENDBRANCH   6  24
BRANCH   9  32
HETATM   32  C   UNL     1     -45.996  60.144 -51.043  1.00  0.00     0.293 C 
HETATM   33  O   UNL     1     -46.543  59.093 -50.760  1.00  0.00    -0.259 OA
BRANCH  32  34
HETATM   34  O   UNL     1     -46.606  61.336 -51.218  1.00  0.00    -0.323 OA
HETATM   35  C   UNL     1     -47.340  61.468 -52.440  1.00  0.00     0.213 C 
ENDBRANCH  32  34
ENDBRANCH   9  32
BRANCH   1  36
HETATM   36  C   UNL     1     -44.463  61.365 -48.664  1.00  0.00     0.056 C 
HETATM   37  C   UNL     1     -44.481  62.891 -48.705  1.00  0.00     0.011 C 
ENDBRANCH   1  36
TORSDOF 9
ENDMDL
MODEL 4
REMARK VINA RESULT:      -6.6      3.423      8.121
REMARK  9 active torsions:
REMARK  status: ('A' for Active; 'I' for Inactive)
REMARK    1  A    between atoms: C_2  and  C_3 
REMARK    2  A    between atoms: C_7  and  C_8 
REMARK    3  A    between atoms: C_8  and  C_9 
REMARK       I    between atoms: C_9  and  N_10 
REMARK    4  A    between atoms: N_10  and  C_11 
REMARK    5  A    between atoms: C_11  and  C_12 
REMARK    6  A    between atoms: C_12  and  C_13 
REMARK    7  A    between atoms: C_21  and  C_22 
REMARK    8  A    between atoms: C_32  and  C_33 
REMARK    9  A    between atoms: C_33  and  O_34 
ROOT
HETATM    1  C   UNL     1     -43.307  57.233 -55.873  1.00  0.00     0.051 C 
HETATM    2  N   UNL     1     -43.881  58.484 -55.985  1.00  0.00    -0.228 NA
HETATM    3  C   UNL     1     -44.459  58.994 -54.958  1.00  0.00     0.170 C 
HETATM    4  N   UNL     1     -44.444  58.394 -53.532  1.00  0.00    -0.318 N 
HETATM    5  C   UNL     1     -45.124  59.123 -52.707  1.00  0.00     0.011 C 
HETATM    6  C   UNL     1     -43.516  57.247 -53.367  1.00  0.00     0.166 C 
HETATM    7  S   UNL     1     -45.318  60.496 -55.027  1.00  0.00    -0.086 SA
HETATM    8  C   UNL     1     -45.865  60.295 -53.312  1.00  0.00     0.135 C 
HETATM    9  C   UNL     1     -43.204  56.589 -54.689  1.00  0.00     0.069 C 
ENDROOT
BRANCH   5  10
HETATM   10  C   UNL     1     -45.085  58.890 -51.224  1.00  0.00     0.156 C 
BRANCH  10  11
HETATM   11  C   UNL     1     -44.374  59.993 -50.474  1.00  0.00     0.222 C 
HETATM   12  N   UNL     1     -44.942  60.352 -49.277  1.00  0.00    -0.361 N 
HETATM   13  H   UNL     1     -45.790  59.892 -48.956  1.00  0.00     0.162 HD
HETATM   14  O   UNL     1     -43.361  60.507 -50.936  1.00  0.00    -0.273 OA
BRANCH  12  15
HETATM   15  C   UNL     1     -44.365  61.377 -48.419  1.00  0.00     0.124 C 
BRANCH  15  16
HETATM   16  C   UNL     1     -45.442  62.320 -47.875  1.00  0.00     0.053 C 
BRANCH  16  17
HETATM   17  C   UNL     1     -45.737  62.081 -46.384  1.00  0.00     0.189 C 
HETATM   18  N   UNL     1     -45.038  60.785 -45.947  1.00  0.00    -0.071 N 
HETATM   19  H   UNL     1     -44.493  60.410 -46.736  1.00  0.00     0.279 HD
HETATM   20  C   UNL     1     -44.072  60.971 -44.811  1.00  0.00     0.270 C 
HETATM   21  C   UNL     1     -46.113  59.755 -45.631  1.00  0.00     0.235 C 
HETATM   22  C   UNL     1     -47.366  60.321 -46.263  1.00  0.00     0.030 C 
HETATM   23  C   UNL     1     -47.206  61.816 -46.062  1.00  0.00     0.035 C 
ENDBRANCH  16  17
ENDBRANCH  15  16
ENDBRANCH  12  15
ENDBRANCH  10  11
ENDBRANCH   5  10
BRANCH   6  24
HETATM   24  C   UNL     1     -42.264  57.733 -52.620  1.00  0.00    -0.024 A 
HETATM   25  C   UNL     1     -41.892  57.257 -51.339  1.00  0.00    -0.053 A 
HETATM   26  C   UNL     1     -42.566  56.114 -50.619  1.00  0.00     0.049 C 
HETATM   27  C   UNL     1     -40.748  57.792 -50.710  1.00  0.00     0.014 A 
HETATM   28  C   UNL     1     -39.980  58.797 -51.302  1.00  0.00    -0.061 A 
HETATM   29  C   UNL     1     -38.744  59.320 -50.627  1.00  0.00     0.048 C 
HETATM   30  C   UNL     1     -40.324  59.242 -52.575  1.00  0.00     0.007 A 
HETATM   31  C   UNL     1     -41.441  58.716 -53.225  1.00  0.00     0.011 A 
ENDBRANCH   6  24
BRANCH   9  32
HETATM   32  C   UNL     1     -42.850  55.153 -54.545  1.00  0.00     0.293 C 
HETATM   33  O   UNL     1     -43.586  54.256 -54.916  1.00  0.00    -0.259 OA
BRANCH  32  34
HETATM   34  O   UNL     1     -41.559  55.017 -54.171  1.00  0.00    -0.323 OA
HETATM   35  C   UNL     1     -40.712  54.381 -55.134  1.00  0.00     0.213 C 
ENDBRANCH  32  34
ENDBRANCH   9  32
BRANCH   1  36
HETATM   36  C   UNL     1     -42.804  56.699 -57.211  1.00  0.00     0.056 C 
HETATM   37  C   UNL     1     -42.270  57.788 -58.138  1.00  0.00     0.011 C 
ENDBRANCH   1  36
TORSDOF 9
ENDMDL
MODEL 5
REMARK VINA RESULT:      -6.5      2.597      8.084
REMARK  9 active torsions:
REMARK  status: ('A' for Active; 'I' for Inactive)
REMARK    1  A    between atoms: C_2  and  C_3 
REMARK    2  A    between atoms: C_7  and  C_8 
REMARK    3  A    between atoms: C_8  and  C_9 
REMARK       I    between atoms: C_9  and  N_10 
REMARK    4  A    between atoms: N_10  and  C_11 
REMARK    5  A    between atoms: C_11  and  C_12 
REMARK    6  A    between atoms: C_12  and  C_13 
REMARK    7  A    between atoms: C_21  and  C_22 
REMARK    8  A    between atoms: C_32  and  C_33 
REMARK    9  A    between atoms: C_33  and  O_34 
ROOT
HETATM    1  C   UNL     1     -42.262  54.134 -54.239  1.00  0.00     0.051 C 
HETATM    2  N   UNL     1     -42.159  54.728 -55.481  1.00  0.00    -0.228 NA
HETATM    3  C   UNL     1     -42.798  55.820 -55.700  1.00  0.00     0.170 C 
HETATM    4  N   UNL     1     -43.569  56.635 -54.636  1.00  0.00    -0.318 N 
HETATM    5  C   UNL     1     -44.123  57.683 -55.153  1.00  0.00     0.011 C 
HETATM    6  C   UNL     1     -43.355  56.167 -53.242  1.00  0.00     0.166 C 
HETATM    7  S   UNL     1     -42.839  56.575 -57.258  1.00  0.00    -0.086 SA
HETATM    8  C   UNL     1     -44.010  57.819 -56.657  1.00  0.00     0.135 C 
HETATM    9  C   UNL     1     -42.890  54.731 -53.203  1.00  0.00     0.069 C 
ENDROOT
BRANCH   5  10
HETATM   10  C   UNL     1     -44.739  58.758 -54.305  1.00  0.00     0.156 C 
BRANCH  10  11
HETATM   11  C   UNL     1     -43.810  59.926 -54.071  1.00  0.00     0.222 C 
HETATM   12  N   UNL     1     -44.200  60.800 -53.087  1.00  0.00    -0.361 N 
HETATM   13  H   UNL     1     -45.067  60.644 -52.579  1.00  0.00     0.162 HD
HETATM   14  O   UNL     1     -42.787  60.051 -54.735  1.00  0.00    -0.273 OA
BRANCH  12  15
HETATM   15  C   UNL     1     -43.403  61.961 -52.717  1.00  0.00     0.124 C 
BRANCH  15  16
HETATM   16  C   UNL     1     -43.374  62.158 -51.199  1.00  0.00     0.053 C 
BRANCH  16  17
HETATM   17  C   UNL     1     -44.653  61.649 -50.513  1.00  0.00     0.189 C 
HETATM   18  N   UNL     1     -45.668  62.801 -50.451  1.00  0.00    -0.071 N 
HETATM   19  H   UNL     1     -45.278  63.623 -50.930  1.00  0.00     0.279 HD
HETATM   20  C   UNL     1     -46.975  62.493 -51.127  1.00  0.00     0.270 C 
HETATM   21  C   UNL     1     -45.849  63.190 -48.991  1.00  0.00     0.235 C 
HETATM   22  C   UNL     1     -44.667  62.556 -48.289  1.00  0.00     0.030 C 
HETATM   23  C   UNL     1     -44.475  61.257 -49.048  1.00  0.00     0.035 C 
ENDBRANCH  16  17
ENDBRANCH  15  16
ENDBRANCH  12  15
ENDBRANCH  10  11
ENDBRANCH   5  10
BRANCH   6  24
HETATM   24  C   UNL     1     -42.390  57.138 -52.542  1.00  0.00    -0.024 A 
HETATM   25  C   UNL     1     -42.756  57.917 -51.418  1.00  0.00    -0.053 A 
HETATM   26  C   UNL     1     -44.058  57.784 -50.668  1.00  0.00     0.049 C 
HETATM   27  C   UNL     1     -41.816  58.814 -50.866  1.00  0.00     0.014 A 
HETATM   28  C   UNL     1     -40.539  58.976 -51.410  1.00  0.00    -0.061 A 
HETATM   29  C   UNL     1     -39.546  59.908 -50.778  1.00  0.00     0.048 C 
HETATM   30  C   UNL     1     -40.168  58.187 -52.494  1.00  0.00     0.007 A 
HETATM   31  C   UNL     1     -41.073  57.280 -53.046  1.00  0.00     0.011 A 
ENDBRANCH   6  24
BRANCH   9  32
HETATM   32  C   UNL     1     -43.265  54.042 -51.940  1.00  0.00     0.293 C 
HETATM   33  O   UNL     1     -44.399  53.658 -51.715  1.00  0.00    -0.259 OA
BRANCH  32  34
HETATM   34  O   UNL     1     -42.162  53.726 -51.227  1.00  0.00    -0.323 OA
HETATM   35  C   UNL     1     -41.972  54.492 -50.032  1.00  0.00     0.213 C 
ENDBRANCH  32  34
ENDBRANCH   9  32
BRANCH   1  36
HETATM   36  C   UNL     1     -41.581  52.769 -54.186  1.00  0.00     0.056 C 
HETATM   37  C   UNL     1     -40.069  52.852 -53.996  1.00  0.00     0.011 C 
ENDBRANCH   1  36
TORSDOF 9
ENDMDL
MODEL 6
REMARK VINA RESULT:      -6.5      3.708      6.137
REMARK  9 active torsions:
REMARK  status: ('A' for Active; 'I' for Inactive)
REMARK    1  A    between atoms: C_2  and  C_3 
REMARK    2  A    between atoms: C_7  and  C_8 
REMARK    3  A    between atoms: C_8  and  C_9 
REMARK       I    between atoms: C_9  and  N_10 
REMARK    4  A    between atoms: N_10  and  C_11 
REMARK    5  A    between atoms: C_11  and  C_12 
REMARK    6  A    between atoms: C_12  and  C_13 
REMARK    7  A    between atoms: C_21  and  C_22 
REMARK    8  A    between atoms: C_32  and  C_33 
REMARK    9  A    between atoms: C_33  and  O_34 
ROOT
HETATM    1  C   UNL     1     -42.123  59.780 -60.296  1.00  0.00     0.051 C 
HETATM    2  N   UNL     1     -42.563  58.507 -60.601  1.00  0.00    -0.228 NA
HETATM    3  C   UNL     1     -42.859  57.708 -59.641  1.00  0.00     0.170 C 
HETATM    4  N   UNL     1     -42.917  58.090 -58.143  1.00  0.00    -0.318 N 
HETATM    5  C   UNL     1     -43.231  57.072 -57.408  1.00  0.00     0.011 C 
HETATM    6  C   UNL     1     -42.798  59.547 -57.884  1.00  0.00     0.166 C 
HETATM    7  S   UNL     1     -43.297  56.054 -59.911  1.00  0.00    -0.086 SA
HETATM    8  C   UNL     1     -43.349  55.746 -58.127  1.00  0.00     0.135 C 
HETATM    9  C   UNL     1     -42.131  60.263 -59.034  1.00  0.00     0.069 C 
ENDROOT
BRANCH   5  10
HETATM   10  C   UNL     1     -43.573  57.218 -55.953  1.00  0.00     0.156 C 
BRANCH  10  11
HETATM   11  C   UNL     1     -42.780  56.285 -55.067  1.00  0.00     0.222 C 
HETATM   12  N   UNL     1     -41.430  56.247 -55.313  1.00  0.00    -0.361 N 
HETATM   13  H   UNL     1     -41.030  56.813 -56.057  1.00  0.00     0.162 HD
HETATM   14  O   UNL     1     -43.339  55.626 -54.198  1.00  0.00    -0.273 OA
BRANCH  12  15
HETATM   15  C   UNL     1     -40.520  55.422 -54.531  1.00  0.00     0.124 C 
BRANCH  15  16
HETATM   16  C   UNL     1     -40.473  53.986 -55.060  1.00  0.00     0.053 C 
BRANCH  16  17
HETATM   17  C   UNL     1     -41.120  52.980 -54.094  1.00  0.00     0.189 C 
HETATM   18  N   UNL     1     -40.679  53.322 -52.662  1.00  0.00    -0.071 N 
HETATM   19  H   UNL     1     -40.102  54.173 -52.679  1.00  0.00     0.279 HD
HETATM   20  C   UNL     1     -41.822  53.599 -51.727  1.00  0.00     0.270 C 
HETATM   21  C   UNL     1     -39.784  52.196 -52.165  1.00  0.00     0.235 C 
HETATM   22  C   UNL     1     -39.399  51.445 -53.421  1.00  0.00     0.030 C 
HETATM   23  C   UNL     1     -40.651  51.538 -54.272  1.00  0.00     0.035 C 
ENDBRANCH  16  17
ENDBRANCH  15  16
ENDBRANCH  12  15
ENDBRANCH  10  11
ENDBRANCH   5  10
BRANCH   6  24
HETATM   24  C   UNL     1     -44.192  60.102 -57.550  1.00  0.00    -0.024 A 
HETATM   25  C   UNL     1     -44.509  60.704 -56.308  1.00  0.00    -0.053 A 
HETATM   26  C   UNL     1     -43.504  61.027 -55.230  1.00  0.00     0.049 C 
HETATM   27  C   UNL     1     -45.829  61.146 -56.074  1.00  0.00     0.014 A 
HETATM   28  C   UNL     1     -46.842  60.988 -57.022  1.00  0.00    -0.061 A 
HETATM   29  C   UNL     1     -48.228  61.504 -56.760  1.00  0.00     0.048 C 
HETATM   30  C   UNL     1     -46.524  60.425 -58.254  1.00  0.00     0.007 A 
HETATM   31  C   UNL     1     -45.223  59.997 -58.517  1.00  0.00     0.011 A 
ENDBRANCH   6  24
BRANCH   9  32
HETATM   32  C   UNL     1     -41.431  61.503 -58.607  1.00  0.00     0.293 C 
HETATM   33  O   UNL     1     -40.303  61.494 -58.147  1.00  0.00    -0.259 OA
BRANCH  32  34
HETATM   34  O   UNL     1     -42.118  62.597 -59.005  1.00  0.00    -0.323 OA
HETATM   35  C   UNL     1     -42.542  63.463 -57.947  1.00  0.00     0.213 C 
ENDBRANCH  32  34
ENDBRANCH   9  32
BRANCH   1  36
HETATM   36  C   UNL     1     -41.661  60.550 -61.530  1.00  0.00     0.056 C 
HETATM   37  C   UNL     1     -42.804  61.207 -62.299  1.00  0.00     0.011 C 
ENDBRANCH   1  36
TORSDOF 9
ENDMDL
MODEL 7
REMARK VINA RESULT:      -6.4      3.236      8.801
REMARK  9 active torsions:
REMARK  status: ('A' for Active; 'I' for Inactive)
REMARK    1  A    between atoms: C_2  and  C_3 
REMARK    2  A    between atoms: C_7  and  C_8 
REMARK    3  A    between atoms: C_8  and  C_9 
REMARK       I    between atoms: C_9  and  N_10 
REMARK    4  A    between atoms: N_10  and  C_11 
REMARK    5  A    between atoms: C_11  and  C_12 
REMARK    6  A    between atoms: C_12  and  C_13 
REMARK    7  A    between atoms: C_21  and  C_22 
REMARK    8  A    between atoms: C_32  and  C_33 
REMARK    9  A    between atoms: C_33  and  O_34 
ROOT
HETATM    1  C   UNL     1     -43.136  56.070 -54.951  1.00  0.00     0.051 C 
HETATM    2  N   UNL     1     -43.683  57.245 -55.425  1.00  0.00    -0.228 NA
HETATM    3  C   UNL     1     -44.235  58.051 -54.592  1.00  0.00     0.170 C 
HETATM    4  N   UNL     1     -44.213  57.901 -53.052  1.00  0.00    -0.318 N 
HETATM    5  C   UNL     1     -44.864  58.858 -52.475  1.00  0.00     0.011 C 
HETATM    6  C   UNL     1     -43.308  56.831 -52.561  1.00  0.00     0.166 C 
HETATM    7  S   UNL     1     -45.061  59.488 -55.097  1.00  0.00    -0.086 SA
HETATM    8  C   UNL     1     -45.588  59.817 -53.396  1.00  0.00     0.135 C 
HETATM    9  C   UNL     1     -43.030  55.803 -53.631  1.00  0.00     0.069 C 
ENDROOT
BRANCH   5  10
HETATM   10  C   UNL     1     -44.810  59.075 -50.990  1.00  0.00     0.156 C 
BRANCH  10  11
HETATM   11  C   UNL     1     -44.231  60.418 -50.613  1.00  0.00     0.222 C 
HETATM   12  N   UNL     1     -45.150  61.387 -50.297  1.00  0.00    -0.361 N 
HETATM   13  H   UNL     1     -46.145  61.180 -50.338  1.00  0.00     0.162 HD
HETATM   14  O   UNL     1     -43.017  60.592 -50.601  1.00  0.00    -0.273 OA
BRANCH  12  15
HETATM   15  C   UNL     1     -44.758  62.727 -49.885  1.00  0.00     0.124 C 
BRANCH  15  16
HETATM   16  C   UNL     1     -45.090  62.977 -48.411  1.00  0.00     0.053 C 
BRANCH  16  17
HETATM   17  C   UNL     1     -46.541  62.607 -48.061  1.00  0.00     0.189 C 
HETATM   18  N   UNL     1     -47.327  63.901 -47.801  1.00  0.00    -0.071 N 
HETATM   19  H   UNL     1     -46.717  64.710 -47.974  1.00  0.00     0.279 HD
HETATM   20  C   UNL     1     -48.526  64.071 -48.692  1.00  0.00     0.270 C 
HETATM   21  C   UNL     1     -47.694  63.938 -46.324  1.00  0.00     0.235 C 
HETATM   22  C   UNL     1     -46.790  62.902 -45.691  1.00  0.00     0.030 C 
HETATM   23  C   UNL     1     -46.701  61.828 -46.758  1.00  0.00     0.035 C 
ENDBRANCH  16  17
ENDBRANCH  15  16
ENDBRANCH  12  15
ENDBRANCH  10  11
ENDBRANCH   5  10
BRANCH   6  24
HETATM   24  C   UNL     1     -42.035  57.484 -52.001  1.00  0.00    -0.024 A 
HETATM   25  C   UNL     1     -41.462  57.122 -50.757  1.00  0.00    -0.053 A 
HETATM   26  C   UNL     1     -41.916  55.960 -49.908  1.00  0.00     0.049 C 
HETATM   27  C   UNL     1     -40.315  57.807 -50.301  1.00  0.00     0.014 A 
HETATM   28  C   UNL     1     -39.737  58.849 -51.030  1.00  0.00    -0.061 A 
HETATM   29  C   UNL     1     -38.493  59.533 -50.541  1.00  0.00     0.048 C 
HETATM   30  C   UNL     1     -40.280  59.183 -52.267  1.00  0.00     0.007 A 
HETATM   31  C   UNL     1     -41.403  58.509 -52.747  1.00  0.00     0.011 A 
ENDBRANCH   6  24
BRANCH   9  32
HETATM   32  C   UNL     1     -42.706  54.465 -53.070  1.00  0.00     0.293 C 
HETATM   33  O   UNL     1     -43.563  53.701 -52.661  1.00  0.00    -0.259 OA
BRANCH  32  34
HETATM   34  O   UNL     1     -41.408  54.161 -53.288  1.00  0.00    -0.323 OA
HETATM   35  C   UNL     1     -40.846  53.212 -52.375  1.00  0.00     0.213 C 
ENDBRANCH  32  34
ENDBRANCH   9  32
BRANCH   1  36
HETATM   36  C   UNL     1     -42.664  55.150 -56.075  1.00  0.00     0.056 C 
HETATM   37  C   UNL     1     -43.048  55.646 -57.467  1.00  0.00     0.011 C 
ENDBRANCH   1  36
TORSDOF 9
ENDMDL
MODEL 8
REMARK VINA RESULT:      -6.3      4.435      6.648
REMARK  9 active torsions:
REMARK  status: ('A' for Active; 'I' for Inactive)
REMARK    1  A    between atoms: C_2  and  C_3 
REMARK    2  A    between atoms: C_7  and  C_8 
REMARK    3  A    between atoms: C_8  and  C_9 
REMARK       I    between atoms: C_9  and  N_10 
REMARK    4  A    between atoms: N_10  and  C_11 
REMARK    5  A    between atoms: C_11  and  C_12 
REMARK    6  A    between atoms: C_12  and  C_13 
REMARK    7  A    between atoms: C_21  and  C_22 
REMARK    8  A    between atoms: C_32  and  C_33 
REMARK    9  A    between atoms: C_33  and  O_34 
ROOT
HETATM    1  C   UNL     1     -46.494  59.740 -60.073  1.00  0.00     0.051 C 
HETATM    2  N   UNL     1     -46.913  58.447 -60.315  1.00  0.00    -0.228 NA
HETATM    3  C   UNL     1     -46.066  57.490 -60.201  1.00  0.00     0.170 C 
HETATM    4  N   UNL     1     -44.623  57.630 -59.660  1.00  0.00    -0.318 N 
HETATM    5  C   UNL     1     -44.001  56.496 -59.675  1.00  0.00     0.011 C 
HETATM    6  C   UNL     1     -44.326  58.958 -59.067  1.00  0.00     0.166 C 
HETATM    7  S   UNL     1     -46.456  55.851 -60.605  1.00  0.00    -0.086 SA
HETATM    8  C   UNL     1     -44.744  55.340 -60.311  1.00  0.00     0.135 C 
HETATM    9  C   UNL     1     -45.267  60.021 -59.581  1.00  0.00     0.069 C 
ENDROOT
BRANCH   5  10
HETATM   10  C   UNL     1     -42.673  56.309 -58.999  1.00  0.00     0.156 C 
BRANCH  10  11
HETATM   11  C   UNL     1     -42.794  55.685 -57.629  1.00  0.00     0.222 C 
HETATM   12  N   UNL     1     -41.901  56.144 -56.693  1.00  0.00    -0.361 N 
HETATM   13  H   UNL     1     -41.212  56.848 -56.946  1.00  0.00     0.162 HD
HETATM   14  O   UNL     1     -43.645  54.832 -57.406  1.00  0.00    -0.273 OA
BRANCH  12  15
HETATM   15  C   UNL     1     -41.902  55.668 -55.317  1.00  0.00     0.124 C 
BRANCH  15  16
HETATM   16  C   UNL     1     -40.980  54.458 -55.144  1.00  0.00     0.053 C 
BRANCH  16  17
HETATM   17  C   UNL     1     -41.571  53.394 -54.205  1.00  0.00     0.189 C 
HETATM   18  N   UNL     1     -41.267  53.796 -52.754  1.00  0.00    -0.071 N 
HETATM   19  H   UNL     1     -40.789  54.707 -52.747  1.00  0.00     0.279 HD
HETATM   20  C   UNL     1     -42.494  53.951 -51.899  1.00  0.00     0.270 C 
HETATM   21  C   UNL     1     -40.286  52.784 -52.182  1.00  0.00     0.235 C 
HETATM   22  C   UNL     1     -39.737  52.070 -53.398  1.00  0.00     0.030 C 
HETATM   23  C   UNL     1     -40.933  52.012 -54.329  1.00  0.00     0.035 C 
ENDBRANCH  16  17
ENDBRANCH  15  16
ENDBRANCH  12  15
ENDBRANCH  10  11
ENDBRANCH   5  10
BRANCH   6  24
HETATM   24  C   UNL     1     -44.338  58.826 -57.536  1.00  0.00    -0.024 A 
HETATM   25  C   UNL     1     -43.277  59.274 -56.711  1.00  0.00    -0.053 A 
HETATM   26  C   UNL     1     -42.092  60.073 -57.194  1.00  0.00     0.049 C 
HETATM   27  C   UNL     1     -43.356  59.071 -55.316  1.00  0.00     0.014 A 
HETATM   28  C   UNL     1     -44.440  58.420 -54.723  1.00  0.00    -0.061 A 
HETATM   29  C   UNL     1     -44.516  58.254 -53.232  1.00  0.00     0.048 C 
HETATM   30  C   UNL     1     -45.498  58.009 -55.528  1.00  0.00     0.007 A 
HETATM   31  C   UNL     1     -45.451  58.214 -56.908  1.00  0.00     0.011 A 
ENDBRANCH   6  24
BRANCH   9  32
HETATM   32  C   UNL     1     -44.666  61.380 -59.554  1.00  0.00     0.293 C 
HETATM   33  O   UNL     1     -44.753  62.116 -58.588  1.00  0.00    -0.259 OA
BRANCH  32  34
HETATM   34  O   UNL     1     -43.860  61.564 -60.623  1.00  0.00    -0.323 OA
HETATM   35  C   UNL     1     -44.177  62.701 -61.433  1.00  0.00     0.213 C 
ENDBRANCH  32  34
ENDBRANCH   9  32
BRANCH   1  36
HETATM   36  C   UNL     1     -47.567  60.774 -60.403  1.00  0.00     0.056 C 
HETATM   37  C   UNL     1     -48.603  60.275 -61.406  1.00  0.00     0.011 C 
ENDBRANCH   1  36
TORSDOF 9
ENDMDL
MODEL 9
REMARK VINA RESULT:      -6.2      2.820      7.705
REMARK  9 active torsions:
REMARK  status: ('A' for Active; 'I' for Inactive)
REMARK    1  A    between atoms: C_2  and  C_3 
REMARK    2  A    between atoms: C_7  and  C_8 
REMARK    3  A    between atoms: C_8  and  C_9 
REMARK       I    between atoms: C_9  and  N_10 
REMARK    4  A    between atoms: N_10  and  C_11 
REMARK    5  A    between atoms: C_11  and  C_12 
REMARK    6  A    between atoms: C_12  and  C_13 
REMARK    7  A    between atoms: C_21  and  C_22 
REMARK    8  A    between atoms: C_32  and  C_33 
REMARK    9  A    between atoms: C_33  and  O_34 
ROOT
HETATM    1  C   UNL     1     -41.591  54.094 -53.655  1.00  0.00     0.051 C 
HETATM    2  N   UNL     1     -41.440  54.571 -54.941  1.00  0.00    -0.228 NA
HETATM    3  C   UNL     1     -42.289  55.423 -55.390  1.00  0.00     0.170 C 
HETATM    4  N   UNL     1     -43.405  56.098 -54.558  1.00  0.00    -0.318 N 
HETATM    5  C   UNL     1     -44.114  56.901 -55.283  1.00  0.00     0.011 C 
HETATM    6  C   UNL     1     -43.311  55.842 -53.098  1.00  0.00     0.166 C 
HETATM    7  S   UNL     1     -42.263  55.985 -57.028  1.00  0.00    -0.086 SA
HETATM    8  C   UNL     1     -43.793  56.917 -56.763  1.00  0.00     0.135 C 
HETATM    9  C   UNL     1     -42.511  54.597 -52.802  1.00  0.00     0.069 C 
ENDROOT
BRANCH   5  10
HETATM   10  C   UNL     1     -45.112  57.846 -54.679  1.00  0.00     0.156 C 
BRANCH  10  11
HETATM   11  C   UNL     1     -44.713  59.296 -54.826  1.00  0.00     0.222 C 
HETATM   12  N   UNL     1     -43.377  59.518 -55.050  1.00  0.00    -0.361 N 
HETATM   13  H   UNL     1     -42.729  58.736 -55.095  1.00  0.00     0.162 HD
HETATM   14  O   UNL     1     -45.554  60.184 -54.746  1.00  0.00    -0.273 OA
BRANCH  12  15
HETATM   15  C   UNL     1     -42.833  60.855 -55.243  1.00  0.00     0.124 C 
BRANCH  15  16
HETATM   16  C   UNL     1     -42.929  61.291 -56.708  1.00  0.00     0.053 C 
BRANCH  16  17
HETATM   17  C   UNL     1     -41.671  60.931 -57.515  1.00  0.00     0.189 C 
HETATM   18  N   UNL     1     -41.514  61.947 -58.656  1.00  0.00    -0.071 N 
HETATM   19  H   UNL     1     -42.252  62.660 -58.581  1.00  0.00     0.279 HD
HETATM   20  C   UNL     1     -40.204  62.686 -58.634  1.00  0.00     0.270 C 
HETATM   21  C   UNL     1     -41.744  61.217 -59.971  1.00  0.00     0.235 C 
HETATM   22  C   UNL     1     -42.414  59.922 -59.564  1.00  0.00     0.030 C 
HETATM   23  C   UNL     1     -41.745  59.591 -58.244  1.00  0.00     0.035 C 
ENDBRANCH  16  17
ENDBRANCH  15  16
ENDBRANCH  12  15
ENDBRANCH  10  11
ENDBRANCH   5  10
BRANCH   6  24
HETATM   24  C   UNL     1     -42.751  57.100 -52.415  1.00  0.00    -0.024 A 
HETATM   25  C   UNL     1     -43.520  57.922 -51.556  1.00  0.00    -0.053 A 
HETATM   26  C   UNL     1     -44.911  57.593 -51.072  1.00  0.00     0.049 C 
HETATM   27  C   UNL     1     -42.935  59.083 -51.007  1.00  0.00     0.014 A 
HETATM   28  C   UNL     1     -41.624  59.462 -51.303  1.00  0.00    -0.061 A 
HETATM   29  C   UNL     1     -41.014  60.681 -50.672  1.00  0.00     0.048 C 
HETATM   30  C   UNL     1     -40.857  58.638 -52.121  1.00  0.00     0.007 A 
HETATM   31  C   UNL     1     -41.407  57.476 -52.662  1.00  0.00     0.011 A 
ENDBRANCH   6  24
BRANCH   9  32
HETATM   32  C   UNL     1     -42.901  53.957 -51.518  1.00  0.00     0.293 C 
HETATM   33  O   UNL     1     -44.030  53.551 -51.305  1.00  0.00    -0.259 OA
BRANCH  32  34
HETATM   34  O   UNL     1     -41.810  53.706 -50.762  1.00  0.00    -0.323 OA
HETATM   35  C   UNL     1     -41.521  54.695 -49.768  1.00  0.00     0.213 C 
ENDBRANCH  32  34
ENDBRANCH   9  32
BRANCH   1  36
HETATM   36  C   UNL     1     -40.605  52.976 -53.325  1.00  0.00     0.056 C 
HETATM   37  C   UNL     1     -40.678  51.797 -54.292  1.00  0.00     0.011 C 
ENDBRANCH   1  36
TORSDOF 9
ENDMDL
MODEL 10
REMARK VINA RESULT:      -6.1      2.081      2.834
REMARK  9 active torsions:
REMARK  status: ('A' for Active; 'I' for Inactive)
REMARK    1  A    between atoms: C_2  and  C_3 
REMARK    2  A    between atoms: C_7  and  C_8 
REMARK    3  A    between atoms: C_8  and  C_9 
REMARK       I    between atoms: C_9  and  N_10 
REMARK    4  A    between atoms: N_10  and  C_11 
REMARK    5  A    between atoms: C_11  and  C_12 
REMARK    6  A    between atoms: C_12  and  C_13 
REMARK    7  A    between atoms: C_21  and  C_22 
REMARK    8  A    between atoms: C_32  and  C_33 
REMARK    9  A    between atoms: C_33  and  O_34 
ROOT
HETATM    1  C   UNL     1     -43.637  62.396 -54.515  1.00  0.00     0.051 C 
HETATM    2  N   UNL     1     -42.784  61.816 -53.598  1.00  0.00    -0.228 NA
HETATM    3  C   UNL     1     -42.973  60.590 -53.265  1.00  0.00     0.170 C 
HETATM    4  N   UNL     1     -43.995  59.632 -53.921  1.00  0.00    -0.318 N 
HETATM    5  C   UNL     1     -43.967  58.463 -53.368  1.00  0.00     0.011 C 
HETATM    6  C   UNL     1     -44.637  60.176 -55.144  1.00  0.00     0.166 C 
HETATM    7  S   UNL     1     -42.041  59.808 -52.032  1.00  0.00    -0.086 SA
HETATM    8  C   UNL     1     -43.065  58.321 -52.161  1.00  0.00     0.135 C 
HETATM    9  C   UNL     1     -44.571  61.684 -55.183  1.00  0.00     0.069 C 
ENDROOT
BRANCH   5  10
HETATM   10  C   UNL     1     -44.694  57.288 -53.956  1.00  0.00     0.156 C 
BRANCH  10  11
HETATM   11  C   UNL     1     -43.813  56.071 -54.116  1.00  0.00     0.222 C 
HETATM   12  N   UNL     1     -43.875  55.161 -53.091  1.00  0.00    -0.361 N 
HETATM   13  H   UNL     1     -44.476  55.335 -52.289  1.00  0.00     0.162 HD
HETATM   14  O   UNL     1     -43.105  55.941 -55.108  1.00  0.00    -0.273 OA
BRANCH  12  15
HETATM   15  C   UNL     1     -43.111  53.922 -53.103  1.00  0.00     0.124 C 
BRANCH  15  16
HETATM   16  C   UNL     1     -42.082  53.889 -51.969  1.00  0.00     0.053 C 
BRANCH  16  17
HETATM   17  C   UNL     1     -40.634  53.889 -52.486  1.00  0.00     0.189 C 
HETATM   18  N   UNL     1     -40.617  53.284 -53.898  1.00  0.00    -0.071 N 
HETATM   19  H   UNL     1     -41.581  53.072 -54.188  1.00  0.00     0.279 HD
HETATM   20  C   UNL     1     -40.048  54.202 -54.943  1.00  0.00     0.270 C 
HETATM   21  C   UNL     1     -39.879  51.955 -53.830  1.00  0.00     0.235 C 
HETATM   22  C   UNL     1     -39.839  51.627 -52.353  1.00  0.00     0.030 C 
HETATM   23  C   UNL     1     -39.681  52.988 -51.704  1.00  0.00     0.035 C 
ENDBRANCH  16  17
ENDBRANCH  15  16
ENDBRANCH  12  15
ENDBRANCH  10  11
ENDBRANCH   5  10
BRANCH   6  24
HETATM   24  C   UNL     1     -43.998  59.508 -56.372  1.00  0.00    -0.024 A 
HETATM   25  C   UNL     1     -44.712  58.655 -57.249  1.00  0.00    -0.053 A 
HETATM   26  C   UNL     1     -46.201  58.422 -57.196  1.00  0.00     0.049 C 
HETATM   27  C   UNL     1     -44.031  58.051 -58.328  1.00  0.00     0.014 A 
HETATM   28  C   UNL     1     -42.666  58.249 -58.546  1.00  0.00    -0.061 A 
HETATM   29  C   UNL     1     -41.977  57.625 -59.726  1.00  0.00     0.048 C 
HETATM   30  C   UNL     1     -41.971  59.112 -57.705  1.00  0.00     0.007 A 
HETATM   31  C   UNL     1     -42.626  59.736 -56.642  1.00  0.00     0.011 A 
ENDBRANCH   6  24
BRANCH   9  32
HETATM   32  C   UNL     1     -45.680  62.286 -55.969  1.00  0.00     0.293 C 
HETATM   33  O   UNL     1     -45.521  62.735 -57.090  1.00  0.00    -0.259 OA
BRANCH  32  34
HETATM   34  O   UNL     1     -46.867  62.057 -55.365  1.00  0.00    -0.323 OA
HETATM   35  C   UNL     1     -47.102  62.824 -54.179  1.00  0.00     0.213 C 
ENDBRANCH  32  34
ENDBRANCH   9  32
BRANCH   1  36
HETATM   36  C   UNL     1     -43.384  63.892 -54.684  1.00  0.00     0.056 C 
HETATM   37  C   UNL     1     -43.182  64.627 -53.362  1.00  0.00     0.011 C 
ENDBRANCH   1  36
TORSDOF 9
ENDMDL
