MODEL 1
REMARK VINA RESULT:      -9.6      0.000      0.000
REMARK  2 active torsions:
REMARK  status: ('A' for Active; 'I' for Inactive)
REMARK    1  A    between atoms: C_4  and  C_5 
REMARK       I    between atoms: N_12  and  C_13 
REMARK    2  A    between atoms: C_13  and  C_14 
ROOT
HETATM    1  C   UNL     1     -40.317  52.776 -51.143  1.00  0.00     0.097 A 
HETATM    2  N   UNL     1     -40.193  52.462 -49.838  1.00  0.00    -0.173 NA
HETATM    3  N   UNL     1     -40.543  53.573 -49.174  1.00  0.00    -0.281 N 
HETATM    4  H   UNL     1     -40.536  53.551 -48.160  1.00  0.00     0.189 HD
HETATM    5  C   UNL     1     -40.900  54.585 -50.000  1.00  0.00     0.039 A 
HETATM    6  C   UNL     1     -40.745  54.128 -51.288  1.00  0.00     0.015 A 
HETATM    7  C   UNL     1     -41.051  54.950 -52.490  1.00  0.00     0.169 C 
HETATM    8  N   UNL     1     -41.767  56.192 -52.111  1.00  0.00    -0.343 N 
HETATM    9  C   UNL     1     -42.340  57.038 -53.068  1.00  0.00     0.254 C 
HETATM   10  O   UNL     1     -42.678  58.197 -52.837  1.00  0.00    -0.267 OA
HETATM   11  C   UNL     1     -41.366  56.840 -50.841  1.00  0.00     0.132 C 
HETATM   12  C   UNL     1     -41.429  55.909 -49.615  1.00  0.00     0.079 C 
ENDROOT
BRANCH   9  13
HETATM   13  C   UNL     1     -42.510  56.562 -54.457  1.00  0.00     0.035 A 
HETATM   14  C   UNL     1     -42.328  57.490 -55.489  1.00  0.00     0.056 A 
HETATM   15  C   UNL     1     -42.517  57.048 -56.778  1.00  0.00     0.106 A 
HETATM   16  C   UNL     1     -42.880  55.750 -57.055  1.00  0.00     0.105 A 
HETATM   17  O   UNL     1     -42.382  57.801 -57.902  1.00  0.00    -0.323 OA
HETATM   18  O   UNL     1     -43.015  55.525 -58.389  1.00  0.00    -0.323 OA
HETATM   19  C   UNL     1     -43.086  54.821 -56.056  1.00  0.00     0.041 A 
HETATM   20  C   UNL     1     -42.727  56.836 -58.919  1.00  0.00     0.352 A 
HETATM   21  C   UNL     1     -42.910  55.238 -54.732  1.00  0.00     0.020 A 
ENDBRANCH   9  13
BRANCH   1  22
HETATM   22  C   UNL     1     -40.074  51.767 -52.177  1.00  0.00    -0.005 A 
HETATM   23  C   UNL     1     -39.698  50.467 -51.804  1.00  0.00     0.014 A 
HETATM   24  C   UNL     1     -39.492  49.476 -52.766  1.00  0.00     0.001 A 
HETATM   25  C   UNL     1     -39.656  49.775 -54.117  1.00  0.00     0.000 A 
HETATM   26  C   UNL     1     -40.013  51.065 -54.504  1.00  0.00     0.001 A 
HETATM   27  C   UNL     1     -40.217  52.058 -53.541  1.00  0.00     0.014 A 
ENDBRANCH   1  22
TORSDOF 2
ENDMDL
MODEL 2
REMARK VINA RESULT:      -9.1      0.903      1.020
REMARK  2 active torsions:
REMARK  status: ('A' for Active; 'I' for Inactive)
REMARK    1  A    between atoms: C_4  and  C_5 
REMARK       I    between atoms: N_12  and  C_13 
REMARK    2  A    between atoms: C_13  and  C_14 
ROOT
HETATM    1  C   UNL     1     -40.484  53.727 -51.492  1.00  0.00     0.097 A 
HETATM    2  N   UNL     1     -40.372  53.606 -50.155  1.00  0.00    -0.173 NA
HETATM    3  N   UNL     1     -40.702  54.809 -49.664  1.00  0.00    -0.281 N 
HETATM    4  H   UNL     1     -40.699  54.936 -48.657  1.00  0.00     0.189 HD
HETATM    5  C   UNL     1     -41.034  55.696 -50.632  1.00  0.00     0.039 A 
HETATM    6  C   UNL     1     -40.883  55.051 -51.838  1.00  0.00     0.015 A 
HETATM    7  C   UNL     1     -41.167  55.693 -53.149  1.00  0.00     0.169 C 
HETATM    8  N   UNL     1     -41.859  56.992 -52.962  1.00  0.00    -0.343 N 
HETATM    9  C   UNL     1     -42.411  57.698 -54.037  1.00  0.00     0.254 C 
HETATM   10  O   UNL     1     -42.726  58.885 -53.981  1.00  0.00    -0.267 OA
HETATM   11  C   UNL     1     -41.451  57.812 -51.798  1.00  0.00     0.132 C 
HETATM   12  C   UNL     1     -41.538  57.072 -50.449  1.00  0.00     0.079 C 
ENDROOT
BRANCH   9  13
HETATM   13  C   UNL     1     -42.585  57.027 -55.342  1.00  0.00     0.035 A 
HETATM   14  C   UNL     1     -42.399  57.795 -56.498  1.00  0.00     0.056 A 
HETATM   15  C   UNL     1     -42.592  57.171 -57.709  1.00  0.00     0.106 A 
HETATM   16  C   UNL     1     -42.962  55.848 -57.795  1.00  0.00     0.105 A 
HETATM   17  O   UNL     1     -42.454  57.752 -58.931  1.00  0.00    -0.323 OA
HETATM   18  O   UNL     1     -43.100  55.433 -59.082  1.00  0.00    -0.323 OA
HETATM   19  C   UNL     1     -43.172  55.075 -56.671  1.00  0.00     0.041 A 
HETATM   20  C   UNL     1     -42.805  56.652 -59.796  1.00  0.00     0.352 A 
HETATM   21  C   UNL     1     -42.992  55.679 -55.422  1.00  0.00     0.020 A 
ENDBRANCH   9  13
BRANCH   1  22
HETATM   22  C   UNL     1     -40.257  52.573 -52.366  1.00  0.00    -0.005 A 
HETATM   23  C   UNL     1     -39.677  51.407 -51.839  1.00  0.00     0.014 A 
HETATM   24  C   UNL     1     -39.479  50.280 -52.639  1.00  0.00     0.001 A 
HETATM   25  C   UNL     1     -39.857  50.305 -53.980  1.00  0.00     0.000 A 
HETATM   26  C   UNL     1     -40.421  51.459 -54.521  1.00  0.00     0.001 A 
HETATM   27  C   UNL     1     -40.616  52.589 -53.720  1.00  0.00     0.014 A 
ENDBRANCH   1  22
TORSDOF 2
ENDMDL
MODEL 3
REMARK VINA RESULT:      -8.9      2.418      3.820
REMARK  2 active torsions:
REMARK  status: ('A' for Active; 'I' for Inactive)
REMARK    1  A    between atoms: C_4  and  C_5 
REMARK       I    between atoms: N_12  and  C_13 
REMARK    2  A    between atoms: C_13  and  C_14 
ROOT
HETATM    1  C   UNL     1     -41.508  56.380 -52.574  1.00  0.00     0.097 A 
HETATM    2  N   UNL     1     -41.666  56.443 -51.237  1.00  0.00    -0.173 NA
HETATM    3  N   UNL     1     -42.180  57.659 -51.001  1.00  0.00    -0.281 N 
HETATM    4  H   UNL     1     -42.395  57.914 -50.043  1.00  0.00     0.189 HD
HETATM    5  C   UNL     1     -42.369  58.375 -52.135  1.00  0.00     0.039 A 
HETATM    6  C   UNL     1     -41.925  57.601 -53.180  1.00  0.00     0.015 A 
HETATM    7  C   UNL     1     -41.978  58.037 -54.602  1.00  0.00     0.169 C 
HETATM    8  N   UNL     1     -42.789  59.270 -54.744  1.00  0.00    -0.343 N 
HETATM    9  C   UNL     1     -43.158  59.773 -55.997  1.00  0.00     0.254 C 
HETATM   10  O   UNL     1     -43.566  60.919 -56.178  1.00  0.00    -0.267 OA
HETATM   11  C   UNL     1     -42.693  60.270 -53.656  1.00  0.00     0.132 C 
HETATM   12  C   UNL     1     -43.002  59.705 -52.256  1.00  0.00     0.079 C 
ENDROOT
BRANCH   9  13
HETATM   13  C   UNL     1     -43.007  58.926 -57.199  1.00  0.00     0.035 A 
HETATM   14  C   UNL     1     -43.982  57.947 -57.431  1.00  0.00     0.056 A 
HETATM   15  C   UNL     1     -43.819  57.142 -58.535  1.00  0.00     0.106 A 
HETATM   16  C   UNL     1     -42.740  57.276 -59.379  1.00  0.00     0.105 A 
HETATM   17  O   UNL     1     -44.660  56.146 -58.920  1.00  0.00    -0.323 OA
HETATM   18  O   UNL     1     -42.773  56.381 -60.403  1.00  0.00    -0.323 OA
HETATM   19  C   UNL     1     -41.756  58.218 -59.162  1.00  0.00     0.041 A 
HETATM   20  C   UNL     1     -43.976  55.649 -60.090  1.00  0.00     0.352 A 
HETATM   21  C   UNL     1     -41.886  59.049 -58.044  1.00  0.00     0.020 A 
ENDBRANCH   9  13
BRANCH   1  22
HETATM   22  C   UNL     1     -41.019  55.153 -53.208  1.00  0.00    -0.005 A 
HETATM   23  C   UNL     1     -41.001  53.953 -52.477  1.00  0.00     0.014 A 
HETATM   24  C   UNL     1     -40.572  52.762 -53.065  1.00  0.00     0.001 A 
HETATM   25  C   UNL     1     -40.153  52.755 -54.394  1.00  0.00     0.000 A 
HETATM   26  C   UNL     1     -40.151  53.939 -55.128  1.00  0.00     0.001 A 
HETATM   27  C   UNL     1     -40.578  55.133 -54.538  1.00  0.00     0.014 A 
ENDBRANCH   1  22
TORSDOF 2
ENDMDL
MODEL 4
REMARK VINA RESULT:      -8.9      1.452      2.279
REMARK  2 active torsions:
REMARK  status: ('A' for Active; 'I' for Inactive)
REMARK    1  A    between atoms: C_4  and  C_5 
REMARK       I    between atoms: N_12  and  C_13 
REMARK    2  A    between atoms: C_13  and  C_14 
ROOT
HETATM    1  C   UNL     1     -41.058  54.950 -51.471  1.00  0.00     0.097 A 
HETATM    2  N   UNL     1     -41.123  54.955 -50.125  1.00  0.00    -0.173 NA
HETATM    3  N   UNL     1     -41.548  56.184 -49.798  1.00  0.00    -0.281 N 
HETATM    4  H   UNL     1     -41.683  56.403 -48.817  1.00  0.00     0.189 HD
HETATM    5  C   UNL     1     -41.770  56.966 -50.882  1.00  0.00     0.039 A 
HETATM    6  C   UNL     1     -41.442  56.221 -51.990  1.00  0.00     0.015 A 
HETATM    7  C   UNL     1     -41.565  56.729 -53.383  1.00  0.00     0.169 C 
HETATM    8  N   UNL     1     -42.310  58.012 -53.412  1.00  0.00    -0.343 N 
HETATM    9  C   UNL     1     -42.731  58.595 -54.613  1.00  0.00     0.254 C 
HETATM   10  O   UNL     1     -43.082  59.770 -54.712  1.00  0.00    -0.267 OA
HETATM   11  C   UNL     1     -42.083  58.949 -52.288  1.00  0.00     0.132 C 
HETATM   12  C   UNL     1     -42.331  58.333 -50.898  1.00  0.00     0.079 C 
ENDROOT
BRANCH   9  13
HETATM   13  C   UNL     1     -42.710  57.802 -55.859  1.00  0.00     0.035 A 
HETATM   14  C   UNL     1     -42.290  58.443 -57.031  1.00  0.00     0.056 A 
HETATM   15  C   UNL     1     -42.303  57.707 -58.194  1.00  0.00     0.106 A 
HETATM   16  C   UNL     1     -42.718  56.395 -58.219  1.00  0.00     0.105 A 
HETATM   17  O   UNL     1     -41.927  58.157 -59.421  1.00  0.00    -0.323 OA
HETATM   18  O   UNL     1     -42.652  55.857 -59.466  1.00  0.00    -0.323 OA
HETATM   19  C   UNL     1     -43.156  55.747 -57.083  1.00  0.00     0.041 A 
HETATM   20  C   UNL     1     -42.178  56.988 -60.228  1.00  0.00     0.352 A 
HETATM   21  C   UNL     1     -43.164  56.467 -55.884  1.00  0.00     0.020 A 
ENDBRANCH   9  13
BRANCH   1  22
HETATM   22  C   UNL     1     -40.686  53.731 -52.193  1.00  0.00    -0.005 A 
HETATM   23  C   UNL     1     -41.132  53.541 -53.511  1.00  0.00     0.014 A 
HETATM   24  C   UNL     1     -40.766  52.405 -54.236  1.00  0.00     0.001 A 
HETATM   25  C   UNL     1     -39.950  51.440 -53.648  1.00  0.00     0.000 A 
HETATM   26  C   UNL     1     -39.511  51.607 -52.336  1.00  0.00     0.001 A 
HETATM   27  C   UNL     1     -39.880  52.743 -51.610  1.00  0.00     0.014 A 
ENDBRANCH   1  22
TORSDOF 2
ENDMDL
MODEL 5
REMARK VINA RESULT:      -8.6      2.875      6.782
REMARK  2 active torsions:
REMARK  status: ('A' for Active; 'I' for Inactive)
REMARK    1  A    between atoms: C_4  and  C_5 
REMARK       I    between atoms: N_12  and  C_13 
REMARK    2  A    between atoms: C_13  and  C_14 
ROOT
HETATM    1  C   UNL     1     -42.351  58.730 -56.438  1.00  0.00     0.097 A 
HETATM    2  N   UNL     1     -42.295  60.067 -56.596  1.00  0.00    -0.173 NA
HETATM    3  N   UNL     1     -42.109  60.559 -55.362  1.00  0.00    -0.281 N 
HETATM    4  H   UNL     1     -42.023  61.564 -55.252  1.00  0.00     0.189 HD
HETATM    5  C   UNL     1     -42.030  59.590 -54.419  1.00  0.00     0.039 A 
HETATM    6  C   UNL     1     -42.207  58.387 -55.062  1.00  0.00     0.015 A 
HETATM    7  C   UNL     1     -42.173  57.074 -54.362  1.00  0.00     0.169 C 
HETATM    8  N   UNL     1     -41.680  57.230 -52.972  1.00  0.00    -0.343 N 
HETATM    9  C   UNL     1     -41.368  56.126 -52.170  1.00  0.00     0.254 C 
HETATM   10  O   UNL     1     -41.242  56.186 -50.948  1.00  0.00    -0.267 OA
HETATM   11  C   UNL     1     -42.085  58.456 -52.247  1.00  0.00     0.132 C 
HETATM   12  C   UNL     1     -41.734  59.764 -52.982  1.00  0.00     0.079 C 
ENDROOT
BRANCH   9  13
HETATM   13  C   UNL     1     -41.233  54.789 -52.785  1.00  0.00     0.035 A 
HETATM   14  C   UNL     1     -40.386  53.867 -52.158  1.00  0.00     0.056 A 
HETATM   15  C   UNL     1     -40.242  52.635 -52.753  1.00  0.00     0.106 A 
HETATM   16  C   UNL     1     -40.891  52.312 -53.922  1.00  0.00     0.105 A 
HETATM   17  O   UNL     1     -39.469  51.616 -52.289  1.00  0.00    -0.323 OA
HETATM   18  O   UNL     1     -40.608  51.048 -54.337  1.00  0.00    -0.323 OA
HETATM   19  C   UNL     1     -41.714  53.209 -54.571  1.00  0.00     0.041 A 
HETATM   20  C   UNL     1     -39.684  50.624 -53.313  1.00  0.00     0.352 A 
HETATM   21  C   UNL     1     -41.878  54.474 -53.999  1.00  0.00     0.020 A 
ENDBRANCH   9  13
BRANCH   1  22
HETATM   22  C   UNL     1     -42.485  57.848 -57.600  1.00  0.00    -0.005 A 
HETATM   23  C   UNL     1     -41.922  58.230 -58.829  1.00  0.00     0.014 A 
HETATM   24  C   UNL     1     -42.005  57.396 -59.946  1.00  0.00     0.001 A 
HETATM   25  C   UNL     1     -42.657  56.168 -59.848  1.00  0.00     0.000 A 
HETATM   26  C   UNL     1     -43.233  55.782 -58.640  1.00  0.00     0.001 A 
HETATM   27  C   UNL     1     -43.152  56.618 -57.523  1.00  0.00     0.014 A 
ENDBRANCH   1  22
TORSDOF 2
ENDMDL
MODEL 6
REMARK VINA RESULT:      -8.6      2.467      3.979
REMARK  2 active torsions:
REMARK  status: ('A' for Active; 'I' for Inactive)
REMARK    1  A    between atoms: C_4  and  C_5 
REMARK       I    between atoms: N_12  and  C_13 
REMARK    2  A    between atoms: C_13  and  C_14 
ROOT
HETATM    1  C   UNL     1     -43.065  55.879 -52.162  1.00  0.00     0.097 A 
HETATM    2  N   UNL     1     -43.535  55.796 -50.901  1.00  0.00    -0.173 NA
HETATM    3  N   UNL     1     -44.254  56.914 -50.720  1.00  0.00    -0.281 N 
HETATM    4  H   UNL     1     -44.717  57.049 -49.827  1.00  0.00     0.189 HD
HETATM    5  C   UNL     1     -44.275  57.705 -51.818  1.00  0.00     0.039 A 
HETATM    6  C   UNL     1     -43.498  57.092 -52.773  1.00  0.00     0.015 A 
HETATM    7  C   UNL     1     -43.283  57.651 -54.135  1.00  0.00     0.169 C 
HETATM    8  N   UNL     1     -44.204  58.785 -54.391  1.00  0.00    -0.343 N 
HETATM    9  C   UNL     1     -44.340  59.355 -55.662  1.00  0.00     0.254 C 
HETATM   10  O   UNL     1     -44.851  60.455 -55.863  1.00  0.00    -0.267 OA
HETATM   11  C   UNL     1     -44.501  59.682 -53.250  1.00  0.00     0.132 C 
HETATM   12  C   UNL     1     -45.042  58.954 -52.005  1.00  0.00     0.079 C 
ENDROOT
BRANCH   9  13
HETATM   13  C   UNL     1     -43.799  58.650 -56.842  1.00  0.00     0.035 A 
HETATM   14  C   UNL     1     -44.623  57.707 -57.470  1.00  0.00     0.056 A 
HETATM   15  C   UNL     1     -44.102  57.031 -58.550  1.00  0.00     0.106 A 
HETATM   16  C   UNL     1     -42.821  57.257 -58.999  1.00  0.00     0.105 A 
HETATM   17  O   UNL     1     -44.751  56.088 -59.283  1.00  0.00    -0.323 OA
HETATM   18  O   UNL     1     -42.508  56.485 -60.073  1.00  0.00    -0.323 OA
HETATM   19  C   UNL     1     -41.982  58.165 -58.386  1.00  0.00     0.041 A 
HETATM   20  C   UNL     1     -43.725  55.726 -60.230  1.00  0.00     0.352 A 
HETATM   21  C   UNL     1     -42.476  58.865 -57.280  1.00  0.00     0.020 A 
ENDBRANCH   9  13
BRANCH   1  22
HETATM   22  C   UNL     1     -42.278  54.785 -52.735  1.00  0.00    -0.005 A 
HETATM   23  C   UNL     1     -42.616  54.274 -53.999  1.00  0.00     0.014 A 
HETATM   24  C   UNL     1     -41.864  53.254 -54.585  1.00  0.00     0.001 A 
HETATM   25  C   UNL     1     -40.762  52.729 -53.912  1.00  0.00     0.000 A 
HETATM   26  C   UNL     1     -40.423  53.216 -52.651  1.00  0.00     0.001 A 
HETATM   27  C   UNL     1     -41.178  54.235 -52.063  1.00  0.00     0.014 A 
ENDBRANCH   1  22
TORSDOF 2
ENDMDL
MODEL 7
REMARK VINA RESULT:      -8.5      3.031      7.156
REMARK  2 active torsions:
REMARK  status: ('A' for Active; 'I' for Inactive)
REMARK    1  A    between atoms: C_4  and  C_5 
REMARK       I    between atoms: N_12  and  C_13 
REMARK    2  A    between atoms: C_13  and  C_14 
ROOT
HETATM    1  C   UNL     1     -42.284  59.344 -53.558  1.00  0.00     0.097 A 
HETATM    2  N   UNL     1     -43.052  60.407 -53.868  1.00  0.00    -0.173 NA
HETATM    3  N   UNL     1     -43.867  59.979 -54.844  1.00  0.00    -0.281 N 
HETATM    4  H   UNL     1     -44.550  60.628 -55.221  1.00  0.00     0.189 HD
HETATM    5  C   UNL     1     -43.661  58.680 -55.165  1.00  0.00     0.039 A 
HETATM    6  C   UNL     1     -42.627  58.229 -54.378  1.00  0.00     0.015 A 
HETATM    7  C   UNL     1     -42.110  56.835 -54.427  1.00  0.00     0.169 C 
HETATM    8  N   UNL     1     -43.008  55.967 -55.226  1.00  0.00    -0.343 N 
HETATM    9  C   UNL     1     -42.855  54.576 -55.262  1.00  0.00     0.254 C 
HETATM   10  O   UNL     1     -43.370  53.856 -56.115  1.00  0.00    -0.267 OA
HETATM   11  C   UNL     1     -43.646  56.573 -56.418  1.00  0.00     0.132 C 
HETATM   12  C   UNL     1     -44.436  57.861 -56.119  1.00  0.00     0.079 C 
ENDROOT
BRANCH   9  13
HETATM   13  C   UNL     1     -41.985  53.910 -54.269  1.00  0.00     0.035 A 
HETATM   14  C   UNL     1     -42.302  54.072 -52.915  1.00  0.00     0.056 A 
HETATM   15  C   UNL     1     -41.470  53.475 -51.995  1.00  0.00     0.106 A 
HETATM   16  C   UNL     1     -40.363  52.752 -52.378  1.00  0.00     0.105 A 
HETATM   17  O   UNL     1     -41.620  53.519 -50.645  1.00  0.00    -0.323 OA
HETATM   18  O   UNL     1     -39.682  52.251 -51.314  1.00  0.00    -0.323 OA
HETATM   19  C   UNL     1     -40.018  52.595 -53.705  1.00  0.00     0.041 A 
HETATM   20  C   UNL     1     -40.467  52.765 -50.218  1.00  0.00     0.352 A 
HETATM   21  C   UNL     1     -40.836  53.195 -54.667  1.00  0.00     0.020 A 
ENDBRANCH   9  13
BRANCH   1  22
HETATM   22  C   UNL     1     -41.304  59.426 -52.472  1.00  0.00    -0.005 A 
HETATM   23  C   UNL     1     -41.712  59.866 -51.202  1.00  0.00     0.014 A 
HETATM   24  C   UNL     1     -40.809  59.922 -50.139  1.00  0.00     0.001 A 
HETATM   25  C   UNL     1     -39.482  59.542 -50.333  1.00  0.00     0.000 A 
HETATM   26  C   UNL     1     -39.059  59.117 -51.591  1.00  0.00     0.001 A 
HETATM   27  C   UNL     1     -39.963  59.063 -52.656  1.00  0.00     0.014 A 
ENDBRANCH   1  22
TORSDOF 2
ENDMDL
MODEL 8
REMARK VINA RESULT:      -8.5     14.056     15.950
REMARK  2 active torsions:
REMARK  status: ('A' for Active; 'I' for Inactive)
REMARK    1  A    between atoms: C_4  and  C_5 
REMARK       I    between atoms: N_12  and  C_13 
REMARK    2  A    between atoms: C_13  and  C_14 
ROOT
HETATM    1  C   UNL     1     -33.629  39.918 -53.374  1.00  0.00     0.097 A 
HETATM    2  N   UNL     1     -33.346  39.616 -52.091  1.00  0.00    -0.173 NA
HETATM    3  N   UNL     1     -34.478  39.858 -51.415  1.00  0.00    -0.281 N 
HETATM    4  H   UNL     1     -34.491  39.680 -50.416  1.00  0.00     0.189 HD
HETATM    5  C   UNL     1     -35.482  40.293 -52.214  1.00  0.00     0.039 A 
HETATM    6  C   UNL     1     -34.975  40.374 -53.490  1.00  0.00     0.015 A 
HETATM    7  C   UNL     1     -35.780  40.804 -54.664  1.00  0.00     0.169 C 
HETATM    8  N   UNL     1     -37.221  40.876 -54.317  1.00  0.00    -0.343 N 
HETATM    9  C   UNL     1     -38.208  41.063 -55.291  1.00  0.00     0.254 C 
HETATM   10  O   UNL     1     -39.358  41.416 -55.036  1.00  0.00    -0.267 OA
HETATM   11  C   UNL     1     -37.563  41.352 -52.957  1.00  0.00     0.132 C 
HETATM   12  C   UNL     1     -36.882  40.560 -51.825  1.00  0.00     0.079 C 
ENDROOT
BRANCH   9  13
HETATM   13  C   UNL     1     -37.869  40.890 -56.719  1.00  0.00     0.035 A 
HETATM   14  C   UNL     1     -37.998  39.608 -57.269  1.00  0.00     0.056 A 
HETATM   15  C   UNL     1     -37.652  39.449 -58.591  1.00  0.00     0.106 A 
HETATM   16  C   UNL     1     -37.186  40.497 -59.351  1.00  0.00     0.105 A 
HETATM   17  O   UNL     1     -37.715  38.286 -59.292  1.00  0.00    -0.323 OA
HETATM   18  O   UNL     1     -36.902  40.122 -60.627  1.00  0.00    -0.323 OA
HETATM   19  C   UNL     1     -37.030  41.765 -58.829  1.00  0.00     0.041 A 
HETATM   20  C   UNL     1     -37.211  38.713 -60.574  1.00  0.00     0.352 A 
HETATM   21  C   UNL     1     -37.366  41.961 -57.486  1.00  0.00     0.020 A 
ENDBRANCH   9  13
BRANCH   1  22
HETATM   22  C   UNL     1     -32.629  39.712 -54.425  1.00  0.00    -0.005 A 
HETATM   23  C   UNL     1     -31.603  38.773 -54.231  1.00  0.00     0.014 A 
HETATM   24  C   UNL     1     -30.655  38.531 -55.228  1.00  0.00     0.001 A 
HETATM   25  C   UNL     1     -30.721  39.228 -56.432  1.00  0.00     0.000 A 
HETATM   26  C   UNL     1     -31.725  40.174 -56.634  1.00  0.00     0.001 A 
HETATM   27  C   UNL     1     -32.671  40.418 -55.634  1.00  0.00     0.014 A 
ENDBRANCH   1  22
TORSDOF 2
ENDMDL
MODEL 9
REMARK VINA RESULT:      -8.2     14.757     17.079
REMARK  2 active torsions:
REMARK  status: ('A' for Active; 'I' for Inactive)
REMARK    1  A    between atoms: C_4  and  C_5 
REMARK       I    between atoms: N_12  and  C_13 
REMARK    2  A    between atoms: C_13  and  C_14 
ROOT
HETATM    1  C   UNL     1     -37.991  40.898 -55.659  1.00  0.00     0.097 A 
HETATM    2  N   UNL     1     -39.135  41.429 -55.183  1.00  0.00    -0.173 NA
HETATM    3  N   UNL     1     -38.993  41.433 -53.850  1.00  0.00    -0.281 N 
HETATM    4  H   UNL     1     -39.746  41.812 -53.286  1.00  0.00     0.189 HD
HETATM    5  C   UNL     1     -37.797  40.938 -53.450  1.00  0.00     0.039 A 
HETATM    6  C   UNL     1     -37.121  40.553 -54.584  1.00  0.00     0.015 A 
HETATM    7  C   UNL     1     -35.753  39.969 -54.561  1.00  0.00     0.169 C 
HETATM    8  N   UNL     1     -35.146  40.100 -53.214  1.00  0.00    -0.343 N 
HETATM    9  C   UNL     1     -33.797  39.810 -52.979  1.00  0.00     0.254 C 
HETATM   10  O   UNL     1     -33.326  39.622 -51.859  1.00  0.00    -0.267 OA
HETATM   11  C   UNL     1     -36.048  39.944 -52.050  1.00  0.00     0.132 C 
HETATM   12  C   UNL     1     -37.268  40.884 -52.072  1.00  0.00     0.079 C 
ENDROOT
BRANCH   9  13
HETATM   13  C   UNL     1     -32.871  39.656 -54.121  1.00  0.00     0.035 A 
HETATM   14  C   UNL     1     -31.855  38.699 -54.010  1.00  0.00     0.056 A 
HETATM   15  C   UNL     1     -30.978  38.583 -55.064  1.00  0.00     0.106 A 
HETATM   16  C   UNL     1     -31.080  39.375 -56.185  1.00  0.00     0.105 A 
HETATM   17  O   UNL     1     -29.937  37.711 -55.137  1.00  0.00    -0.323 OA
HETATM   18  O   UNL     1     -30.115  39.098 -57.102  1.00  0.00    -0.323 OA
HETATM   19  C   UNL     1     -32.059  40.339 -56.310  1.00  0.00     0.041 A 
HETATM   20  C   UNL     1     -29.377  38.063 -56.419  1.00  0.00     0.352 A 
HETATM   21  C   UNL     1     -32.963  40.491 -55.254  1.00  0.00     0.020 A 
ENDBRANCH   9  13
BRANCH   1  22
HETATM   22  C   UNL     1     -37.763  40.794 -57.102  1.00  0.00    -0.005 A 
HETATM   23  C   UNL     1     -37.251  41.897 -57.805  1.00  0.00     0.014 A 
HETATM   24  C   UNL     1     -36.992  41.817 -59.175  1.00  0.00     0.001 A 
HETATM   25  C   UNL     1     -37.246  40.631 -59.862  1.00  0.00     0.000 A 
HETATM   26  C   UNL     1     -37.769  39.533 -59.181  1.00  0.00     0.001 A 
HETATM   27  C   UNL     1     -38.030  39.614 -57.810  1.00  0.00     0.014 A 
ENDBRANCH   1  22
TORSDOF 2
ENDMDL
MODEL 10
REMARK VINA RESULT:      -8.1      3.048      6.045
REMARK  2 active torsions:
REMARK  status: ('A' for Active; 'I' for Inactive)
REMARK    1  A    between atoms: C_4  and  C_5 
REMARK       I    between atoms: N_12  and  C_13 
REMARK    2  A    between atoms: C_13  and  C_14 
ROOT
HETATM    1  C   UNL     1     -41.233  54.827 -53.381  1.00  0.00     0.097 A 
HETATM    2  N   UNL     1     -40.657  54.020 -54.295  1.00  0.00    -0.173 NA
HETATM    3  N   UNL     1     -41.057  54.495 -55.484  1.00  0.00    -0.281 N 
HETATM    4  H   UNL     1     -40.721  54.035 -56.324  1.00  0.00     0.189 HD
HETATM    5  C   UNL     1     -41.856  55.582 -55.371  1.00  0.00     0.039 A 
HETATM    6  C   UNL     1     -42.023  55.822 -54.027  1.00  0.00     0.015 A 
HETATM    7  C   UNL     1     -42.832  56.950 -53.492  1.00  0.00     0.169 C 
HETATM    8  N   UNL     1     -43.202  57.894 -54.575  1.00  0.00    -0.343 N 
HETATM    9  C   UNL     1     -43.791  59.135 -54.306  1.00  0.00     0.254 C 
HETATM   10  O   UNL     1     -44.372  59.810 -55.153  1.00  0.00    -0.267 OA
HETATM   11  C   UNL     1     -43.512  57.311 -55.901  1.00  0.00     0.132 C 
HETATM   12  C   UNL     1     -42.395  56.413 -56.467  1.00  0.00     0.079 C 
ENDROOT
BRANCH   9  13
HETATM   13  C   UNL     1     -43.783  59.665 -52.927  1.00  0.00     0.035 A 
HETATM   14  C   UNL     1     -44.968  59.572 -52.187  1.00  0.00     0.056 A 
HETATM   15  C   UNL     1     -44.963  60.095 -50.915  1.00  0.00     0.106 A 
HETATM   16  C   UNL     1     -43.846  60.697 -50.382  1.00  0.00     0.105 A 
HETATM   17  O   UNL     1     -46.014  60.093 -50.052  1.00  0.00    -0.323 OA
HETATM   18  O   UNL     1     -44.057  61.145 -49.115  1.00  0.00    -0.323 OA
HETATM   19  C   UNL     1     -42.672  60.820 -51.096  1.00  0.00     0.041 A 
HETATM   20  C   UNL     1     -45.441  60.786 -48.924  1.00  0.00     0.352 A 
HETATM   21  C   UNL     1     -42.644  60.306 -52.396  1.00  0.00     0.020 A 
ENDBRANCH   9  13
BRANCH   1  22
HETATM   22  C   UNL     1     -40.964  54.643 -51.953  1.00  0.00    -0.005 A 
HETATM   23  C   UNL     1     -40.460  53.415 -51.494  1.00  0.00     0.014 A 
HETATM   24  C   UNL     1     -40.163  53.222 -50.143  1.00  0.00     0.001 A 
HETATM   25  C   UNL     1     -40.369  54.257 -49.232  1.00  0.00     0.000 A 
HETATM   26  C   UNL     1     -40.882  55.476 -49.670  1.00  0.00     0.001 A 
HETATM   27  C   UNL     1     -41.182  55.668 -51.022  1.00  0.00     0.014 A 
ENDBRANCH   1  22
TORSDOF 2
ENDMDL
