MODEL 1
REMARK VINA RESULT:      -8.0      0.000      0.000
REMARK  8 active torsions:
REMARK  status: ('A' for Active; 'I' for Inactive)
REMARK    1  A    between atoms: C_2  and  C_3 
REMARK    2  A    between atoms: C_3  and  C_4 
REMARK    3  A    between atoms: C_8  and  C_9 
REMARK       I    between atoms: C_9  and  N_10 
REMARK    4  A    between atoms: N_10  and  C_11 
REMARK    5  A    between atoms: N_10  and  C_17 
REMARK    6  A    between atoms: C_17  and  C_18 
REMARK    7  A    between atoms: C_18  and  O_19 
REMARK    8  A    between atoms: C_18  and  C_20 
ROOT
HETATM    1  C   UNL     1     -43.245  56.518 -54.094  1.00  0.00     0.272 C 
HETATM    2  N   UNL     1     -42.709  55.688 -53.104  1.00  0.00    -0.339 N 
HETATM    3  O   UNL     1     -43.851  57.549 -53.814  1.00  0.00    -0.266 OA
ENDROOT
BRANCH   2   4
HETATM    4  C   UNL     1     -42.799  56.078 -51.671  1.00  0.00     0.087 C 
HETATM    5  C   UNL     1     -43.336  54.940 -50.784  1.00  0.00     0.025 C 
HETATM    6  C   UNL     1     -42.281  54.154 -50.016  1.00  0.00     0.002 C 
HETATM    7  C   UNL     1     -41.330  55.080 -49.275  1.00  0.00     0.000 C 
HETATM    8  C   UNL     1     -40.613  56.018 -50.231  1.00  0.00     0.002 C 
HETATM    9  C   UNL     1     -41.571  56.823 -51.108  1.00  0.00     0.025 C 
ENDBRANCH   2   4
BRANCH   2  10
HETATM   10  C   UNL     1     -42.295  54.288 -53.355  1.00  0.00     0.163 C 
BRANCH  10  11
HETATM   11  C   UNL     1     -40.768  54.115 -53.515  1.00  0.00     0.169 C 
BRANCH  11  12
HETATM   12  O   UNL     1     -40.357  54.499 -54.832  1.00  0.00    -0.389 OA
HETATM   13  H   UNL     1     -40.264  53.677 -55.346  1.00  0.00     0.210 HD
ENDBRANCH  11  12
BRANCH  11  14
HETATM   14  C   UNL     1     -40.350  52.677 -53.280  1.00  0.00    -0.028 A 
HETATM   15  C   UNL     1     -39.900  52.267 -52.017  1.00  0.00     0.010 A 
HETATM   16  C   UNL     1     -39.517  50.942 -51.799  1.00  0.00     0.001 A 
HETATM   17  C   UNL     1     -39.583  50.013 -52.836  1.00  0.00     0.000 A 
HETATM   18  C   UNL     1     -40.037  50.404 -54.093  1.00  0.00     0.001 A 
HETATM   19  C   UNL     1     -40.421  51.728 -54.313  1.00  0.00     0.010 A 
ENDBRANCH  11  14
ENDBRANCH  10  11
ENDBRANCH   2  10
BRANCH   1  20
HETATM   20  C   UNL     1     -43.139  56.155 -55.486  1.00  0.00     0.119 A 
HETATM   21  N   UNL     1     -43.455  54.886 -55.898  1.00  0.00    -0.273 N 
HETATM   22  N   UNL     1     -43.316  54.683 -57.217  1.00  0.00    -0.179 NA
HETATM   23  H   UNL     1     -43.770  54.119 -55.312  1.00  0.00     0.189 HD
HETATM   24  C   UNL     1     -43.026  55.897 -57.698  1.00  0.00     0.057 A 
HETATM   25  C   UNL     1     -42.907  56.850 -56.657  1.00  0.00     0.065 A 
BRANCH  24  26
HETATM   26  C   UNL     1     -42.900  56.114 -59.169  1.00  0.00     0.061 C 
BRANCH  26  27
HETATM   27  C   UNL     1     -43.990  55.380 -59.952  1.00  0.00     0.002 C 
HETATM   28  C   UNL     1     -45.315  56.124 -59.899  1.00  0.00     0.005 C 
ENDBRANCH  26  27
ENDBRANCH  24  26
ENDBRANCH   1  20
TORSDOF 8
ENDMDL
MODEL 2
REMARK VINA RESULT:      -7.5      3.074      6.111
REMARK  8 active torsions:
REMARK  status: ('A' for Active; 'I' for Inactive)
REMARK    1  A    between atoms: C_2  and  C_3 
REMARK    2  A    between atoms: C_3  and  C_4 
REMARK    3  A    between atoms: C_8  and  C_9 
REMARK       I    between atoms: C_9  and  N_10 
REMARK    4  A    between atoms: N_10  and  C_11 
REMARK    5  A    between atoms: N_10  and  C_17 
REMARK    6  A    between atoms: C_17  and  C_18 
REMARK    7  A    between atoms: C_18  and  O_19 
REMARK    8  A    between atoms: C_18  and  C_20 
ROOT
HETATM    1  C   UNL     1     -41.376  57.165 -51.116  1.00  0.00     0.272 C 
HETATM    2  N   UNL     1     -42.553  57.462 -51.811  1.00  0.00    -0.339 N 
HETATM    3  O   UNL     1     -40.475  57.990 -50.989  1.00  0.00    -0.266 OA
ENDROOT
BRANCH   2   4
HETATM    4  C   UNL     1     -42.775  58.828 -52.358  1.00  0.00     0.087 C 
HETATM    5  C   UNL     1     -41.877  59.128 -53.572  1.00  0.00     0.025 C 
HETATM    6  C   UNL     1     -42.546  58.986 -54.933  1.00  0.00     0.002 C 
HETATM    7  C   UNL     1     -43.870  59.732 -54.981  1.00  0.00     0.000 C 
HETATM    8  C   UNL     1     -44.836  59.215 -53.927  1.00  0.00     0.002 C 
HETATM    9  C   UNL     1     -44.251  59.248 -52.515  1.00  0.00     0.025 C 
ENDBRANCH   2   4
BRANCH   2  10
HETATM   10  C   UNL     1     -43.494  56.426 -52.293  1.00  0.00     0.163 C 
BRANCH  10  11
HETATM   11  C   UNL     1     -43.400  56.164 -53.813  1.00  0.00     0.169 C 
BRANCH  11  12
HETATM   12  O   UNL     1     -44.638  55.642 -54.308  1.00  0.00    -0.389 OA
HETATM   13  H   UNL     1     -45.337  56.250 -54.007  1.00  0.00     0.210 HD
ENDBRANCH  11  12
BRANCH  11  14
HETATM   14  C   UNL     1     -42.297  55.175 -54.134  1.00  0.00    -0.028 A 
HETATM   15  C   UNL     1     -42.508  53.799 -53.970  1.00  0.00     0.010 A 
HETATM   16  C   UNL     1     -41.493  52.888 -54.269  1.00  0.00     0.001 A 
HETATM   17  C   UNL     1     -40.260  53.339 -54.737  1.00  0.00     0.000 A 
HETATM   18  C   UNL     1     -40.040  54.703 -54.914  1.00  0.00     0.001 A 
HETATM   19  C   UNL     1     -41.053  55.616 -54.617  1.00  0.00     0.010 A 
ENDBRANCH  11  14
ENDBRANCH  10  11
ENDBRANCH   2  10
BRANCH   1  20
HETATM   20  C   UNL     1     -41.168  55.849 -50.563  1.00  0.00     0.119 A 
HETATM   21  N   UNL     1     -41.663  55.531 -49.324  1.00  0.00    -0.273 N 
HETATM   22  N   UNL     1     -41.403  54.275 -48.932  1.00  0.00    -0.179 NA
HETATM   23  H   UNL     1     -42.186  56.142 -48.705  1.00  0.00     0.189 HD
HETATM   24  C   UNL     1     -40.833  53.716 -50.005  1.00  0.00     0.057 A 
HETATM   25  C   UNL     1     -40.667  54.658 -51.051  1.00  0.00     0.065 A 
BRANCH  24  26
HETATM   26  C   UNL     1     -40.487  52.265 -50.005  1.00  0.00     0.061 C 
BRANCH  26  27
HETATM   27  C   UNL     1     -39.778  51.845 -51.295  1.00  0.00     0.002 C 
HETATM   28  C   UNL     1     -39.528  50.346 -51.334  1.00  0.00     0.005 C 
ENDBRANCH  26  27
ENDBRANCH  24  26
ENDBRANCH   1  20
TORSDOF 8
ENDMDL
MODEL 3
REMARK VINA RESULT:      -7.5      2.261      6.494
REMARK  8 active torsions:
REMARK  status: ('A' for Active; 'I' for Inactive)
REMARK    1  A    between atoms: C_2  and  C_3 
REMARK    2  A    between atoms: C_3  and  C_4 
REMARK    3  A    between atoms: C_8  and  C_9 
REMARK       I    between atoms: C_9  and  N_10 
REMARK    4  A    between atoms: N_10  and  C_11 
REMARK    5  A    between atoms: N_10  and  C_17 
REMARK    6  A    between atoms: C_17  and  C_18 
REMARK    7  A    between atoms: C_18  and  O_19 
REMARK    8  A    between atoms: C_18  and  C_20 
ROOT
HETATM    1  C   UNL     1     -42.223  58.852 -55.035  1.00  0.00     0.272 C 
HETATM    2  N   UNL     1     -43.117  58.234 -55.917  1.00  0.00    -0.339 N 
HETATM    3  O   UNL     1     -41.566  59.836 -55.366  1.00  0.00    -0.266 OA
ENDROOT
BRANCH   2   4
HETATM    4  C   UNL     1     -43.348  58.805 -57.271  1.00  0.00     0.087 C 
HETATM    5  C   UNL     1     -42.139  58.611 -58.205  1.00  0.00     0.025 C 
HETATM    6  C   UNL     1     -42.250  57.455 -59.189  1.00  0.00     0.002 C 
HETATM    7  C   UNL     1     -43.574  57.488 -59.938  1.00  0.00     0.000 C 
HETATM    8  C   UNL     1     -44.753  57.406 -58.982  1.00  0.00     0.002 C 
HETATM    9  C   UNL     1     -44.720  58.485 -57.900  1.00  0.00     0.025 C 
ENDBRANCH   2   4
BRANCH   2  10
HETATM   10  C   UNL     1     -43.654  56.870 -55.704  1.00  0.00     0.163 C 
BRANCH  10  11
HETATM   11  C   UNL     1     -42.717  55.750 -56.208  1.00  0.00     0.169 C 
BRANCH  11  12
HETATM   12  O   UNL     1     -43.415  54.882 -57.107  1.00  0.00    -0.389 OA
HETATM   13  H   UNL     1     -43.055  53.988 -56.967  1.00  0.00     0.210 HD
ENDBRANCH  11  12
BRANCH  11  14
HETATM   14  C   UNL     1     -42.179  54.923 -55.057  1.00  0.00    -0.028 A 
HETATM   15  C   UNL     1     -40.872  54.417 -55.098  1.00  0.00     0.010 A 
HETATM   16  C   UNL     1     -40.375  53.657 -54.037  1.00  0.00     0.001 A 
HETATM   17  C   UNL     1     -41.175  53.398 -52.925  1.00  0.00     0.000 A 
HETATM   18  C   UNL     1     -42.472  53.902 -52.867  1.00  0.00     0.001 A 
HETATM   19  C   UNL     1     -42.970  54.663 -53.926  1.00  0.00     0.010 A 
ENDBRANCH  11  14
ENDBRANCH  10  11
ENDBRANCH   2  10
BRANCH   1  20
HETATM   20  C   UNL     1     -42.015  58.316 -53.712  1.00  0.00     0.119 A 
HETATM   21  N   UNL     1     -43.053  58.250 -52.819  1.00  0.00    -0.273 N 
HETATM   22  N   UNL     1     -42.724  57.727 -51.628  1.00  0.00    -0.179 NA
HETATM   23  H   UNL     1     -44.009  58.554 -52.977  1.00  0.00     0.189 HD
HETATM   24  C   UNL     1     -41.462  57.318 -51.797  1.00  0.00     0.057 A 
HETATM   25  C   UNL     1     -40.975  57.660 -53.082  1.00  0.00     0.065 A 
BRANCH  24  26
HETATM   26  C   UNL     1     -40.761  56.572 -50.711  1.00  0.00     0.061 C 
BRANCH  26  27
HETATM   27  C   UNL     1     -41.729  55.736 -49.873  1.00  0.00     0.002 C 
HETATM   28  C   UNL     1     -41.009  54.625 -49.126  1.00  0.00     0.005 C 
ENDBRANCH  26  27
ENDBRANCH  24  26
ENDBRANCH   1  20
TORSDOF 8
ENDMDL
MODEL 4
REMARK VINA RESULT:      -7.2      2.594      4.882
REMARK  8 active torsions:
REMARK  status: ('A' for Active; 'I' for Inactive)
REMARK    1  A    between atoms: C_2  and  C_3 
REMARK    2  A    between atoms: C_3  and  C_4 
REMARK    3  A    between atoms: C_8  and  C_9 
REMARK       I    between atoms: C_9  and  N_10 
REMARK    4  A    between atoms: N_10  and  C_11 
REMARK    5  A    between atoms: N_10  and  C_17 
REMARK    6  A    between atoms: C_17  and  C_18 
REMARK    7  A    between atoms: C_18  and  O_19 
REMARK    8  A    between atoms: C_18  and  C_20 
ROOT
HETATM    1  C   UNL     1     -42.272  56.651 -54.787  1.00  0.00     0.272 C 
HETATM    2  N   UNL     1     -42.030  57.511 -53.711  1.00  0.00    -0.339 N 
HETATM    3  O   UNL     1     -42.994  56.978 -55.725  1.00  0.00    -0.266 OA
ENDROOT
BRANCH   2   4
HETATM    4  C   UNL     1     -42.591  58.889 -53.713  1.00  0.00     0.087 C 
HETATM    5  C   UNL     1     -44.126  58.899 -53.593  1.00  0.00     0.025 C 
HETATM    6  C   UNL     1     -44.673  59.185 -52.201  1.00  0.00     0.002 C 
HETATM    7  C   UNL     1     -44.027  60.421 -51.594  1.00  0.00     0.000 C 
HETATM    8  C   UNL     1     -42.520  60.259 -51.482  1.00  0.00     0.002 C 
HETATM    9  C   UNL     1     -41.857  59.905 -52.813  1.00  0.00     0.025 C 
ENDBRANCH   2   4
BRANCH   2  10
HETATM   10  C   UNL     1     -41.476  57.054 -52.415  1.00  0.00     0.163 C 
BRANCH  10  11
HETATM   11  C   UNL     1     -42.455  56.183 -51.597  1.00  0.00     0.169 C 
BRANCH  11  12
HETATM   12  O   UNL     1     -43.255  57.002 -50.738  1.00  0.00    -0.389 OA
HETATM   13  H   UNL     1     -43.877  57.484 -51.312  1.00  0.00     0.210 HD
ENDBRANCH  11  12
BRANCH  11  14
HETATM   14  C   UNL     1     -41.713  55.171 -50.746  1.00  0.00    -0.028 A 
HETATM   15  C   UNL     1     -41.361  55.479 -49.424  1.00  0.00     0.010 A 
HETATM   16  C   UNL     1     -40.680  54.546 -48.639  1.00  0.00     0.001 A 
HETATM   17  C   UNL     1     -40.347  53.298 -49.163  1.00  0.00     0.000 A 
HETATM   18  C   UNL     1     -40.699  52.976 -50.472  1.00  0.00     0.001 A 
HETATM   19  C   UNL     1     -41.380  53.906 -51.258  1.00  0.00     0.010 A 
ENDBRANCH  11  14
ENDBRANCH  10  11
ENDBRANCH   2  10
BRANCH   1  20
HETATM   20  C   UNL     1     -41.710  55.322 -54.800  1.00  0.00     0.119 A 
HETATM   21  N   UNL     1     -40.363  55.142 -54.983  1.00  0.00    -0.273 N 
HETATM   22  N   UNL     1     -39.972  53.858 -54.969  1.00  0.00    -0.179 NA
HETATM   23  H   UNL     1     -39.667  55.867 -55.123  1.00  0.00     0.189 HD
HETATM   24  C   UNL     1     -41.081  53.190 -54.636  1.00  0.00     0.057 A 
HETATM   25  C   UNL     1     -42.193  54.059 -54.517  1.00  0.00     0.065 A 
BRANCH  24  26
HETATM   26  C   UNL     1     -41.033  51.715 -54.410  1.00  0.00     0.061 C 
BRANCH  26  27
HETATM   27  C   UNL     1     -39.689  51.269 -53.830  1.00  0.00     0.002 C 
HETATM   28  C   UNL     1     -39.438  49.789 -54.074  1.00  0.00     0.005 C 
ENDBRANCH  26  27
ENDBRANCH  24  26
ENDBRANCH   1  20
TORSDOF 8
ENDMDL
MODEL 5
REMARK VINA RESULT:      -7.1      2.360      6.633
REMARK  8 active torsions:
REMARK  status: ('A' for Active; 'I' for Inactive)
REMARK    1  A    between atoms: C_2  and  C_3 
REMARK    2  A    between atoms: C_3  and  C_4 
REMARK    3  A    between atoms: C_8  and  C_9 
REMARK       I    between atoms: C_9  and  N_10 
REMARK    4  A    between atoms: N_10  and  C_11 
REMARK    5  A    between atoms: N_10  and  C_17 
REMARK    6  A    between atoms: C_17  and  C_18 
REMARK    7  A    between atoms: C_18  and  O_19 
REMARK    8  A    between atoms: C_18  and  C_20 
ROOT
HETATM    1  C   UNL     1     -43.080  57.472 -52.567  1.00  0.00     0.272 C 
HETATM    2  N   UNL     1     -43.185  58.125 -53.800  1.00  0.00    -0.339 N 
HETATM    3  O   UNL     1     -43.353  58.036 -51.511  1.00  0.00    -0.266 OA
ENDROOT
BRANCH   2   4
HETATM    4  C   UNL     1     -43.706  59.518 -53.866  1.00  0.00     0.087 C 
HETATM    5  C   UNL     1     -42.644  60.521 -54.352  1.00  0.00     0.025 C 
HETATM    6  C   UNL     1     -42.738  60.917 -55.819  1.00  0.00     0.002 C 
HETATM    7  C   UNL     1     -44.153  61.331 -56.192  1.00  0.00     0.000 C 
HETATM    8  C   UNL     1     -45.143  60.205 -55.945  1.00  0.00     0.002 C 
HETATM    9  C   UNL     1     -45.099  59.674 -54.512  1.00  0.00     0.025 C 
ENDBRANCH   2   4
BRANCH   2  10
HETATM   10  C   UNL     1     -42.545  57.629 -55.039  1.00  0.00     0.163 C 
BRANCH  10  11
HETATM   11  C   UNL     1     -43.518  56.892 -55.986  1.00  0.00     0.169 C 
BRANCH  11  12
HETATM   12  O   UNL     1     -43.650  55.520 -55.598  1.00  0.00    -0.389 OA
HETATM   13  H   UNL     1     -43.839  55.018 -56.411  1.00  0.00     0.210 HD
ENDBRANCH  11  12
BRANCH  11  14
HETATM   14  C   UNL     1     -43.035  56.943 -57.422  1.00  0.00    -0.028 A 
HETATM   15  C   UNL     1     -42.354  58.071 -57.901  1.00  0.00     0.010 A 
HETATM   16  C   UNL     1     -41.907  58.117 -59.223  1.00  0.00     0.001 A 
HETATM   17  C   UNL     1     -42.130  57.038 -60.078  1.00  0.00     0.000 A 
HETATM   18  C   UNL     1     -42.797  55.908 -59.611  1.00  0.00     0.001 A 
HETATM   19  C   UNL     1     -43.245  55.859 -58.291  1.00  0.00     0.010 A 
ENDBRANCH  11  14
ENDBRANCH  10  11
ENDBRANCH   2  10
BRANCH   1  20
HETATM   20  C   UNL     1     -42.598  56.113 -52.501  1.00  0.00     0.119 A 
HETATM   21  N   UNL     1     -43.478  55.063 -52.539  1.00  0.00    -0.273 N 
HETATM   22  N   UNL     1     -42.898  53.855 -52.474  1.00  0.00    -0.179 NA
HETATM   23  H   UNL     1     -44.489  55.121 -52.607  1.00  0.00     0.189 HD
HETATM   24  C   UNL     1     -41.589  54.125 -52.527  1.00  0.00     0.057 A 
HETATM   25  C   UNL     1     -41.351  55.522 -52.548  1.00  0.00     0.065 A 
BRANCH  24  26
HETATM   26  C   UNL     1     -40.592  53.017 -52.588  1.00  0.00     0.061 C 
BRANCH  26  27
HETATM   27  C   UNL     1     -40.216  52.664 -54.028  1.00  0.00     0.002 C 
HETATM   28  C   UNL     1     -40.213  51.161 -54.254  1.00  0.00     0.005 C 
ENDBRANCH  26  27
ENDBRANCH  24  26
ENDBRANCH   1  20
TORSDOF 8
ENDMDL
MODEL 6
REMARK VINA RESULT:      -7.0      2.169      4.513
REMARK  8 active torsions:
REMARK  status: ('A' for Active; 'I' for Inactive)
REMARK    1  A    between atoms: C_2  and  C_3 
REMARK    2  A    between atoms: C_3  and  C_4 
REMARK    3  A    between atoms: C_8  and  C_9 
REMARK       I    between atoms: C_9  and  N_10 
REMARK    4  A    between atoms: N_10  and  C_11 
REMARK    5  A    between atoms: N_10  and  C_17 
REMARK    6  A    between atoms: C_17  and  C_18 
REMARK    7  A    between atoms: C_18  and  O_19 
REMARK    8  A    between atoms: C_18  and  C_20 
ROOT
HETATM    1  C   UNL     1     -43.434  55.163 -54.496  1.00  0.00     0.272 C 
HETATM    2  N   UNL     1     -42.655  55.591 -53.416  1.00  0.00    -0.339 N 
HETATM    3  O   UNL     1     -44.139  54.159 -54.426  1.00  0.00    -0.266 OA
ENDROOT
BRANCH   2   4
HETATM    4  C   UNL     1     -42.718  54.871 -52.115  1.00  0.00     0.087 C 
HETATM    5  C   UNL     1     -41.695  53.724 -52.027  1.00  0.00     0.025 C 
HETATM    6  C   UNL     1     -40.422  54.039 -51.253  1.00  0.00     0.002 C 
HETATM    7  C   UNL     1     -40.735  54.655 -49.899  1.00  0.00     0.000 C 
HETATM    8  C   UNL     1     -41.526  55.944 -50.045  1.00  0.00     0.002 C 
HETATM    9  C   UNL     1     -42.805  55.769 -50.864  1.00  0.00     0.025 C 
ENDBRANCH   2   4
BRANCH   2  10
HETATM   10  C   UNL     1     -41.541  56.558 -53.551  1.00  0.00     0.163 C 
BRANCH  10  11
HETATM   11  C   UNL     1     -41.985  58.033 -53.436  1.00  0.00     0.169 C 
BRANCH  11  12
HETATM   12  O   UNL     1     -41.657  58.748 -54.633  1.00  0.00    -0.389 OA
HETATM   13  H   UNL     1     -41.645  58.094 -55.354  1.00  0.00     0.210 HD
ENDBRANCH  11  12
BRANCH  11  14
HETATM   14  C   UNL     1     -41.314  58.721 -52.264  1.00  0.00    -0.028 A 
HETATM   15  C   UNL     1     -42.079  59.413 -51.315  1.00  0.00     0.010 A 
HETATM   16  C   UNL     1     -41.461  60.044 -50.233  1.00  0.00     0.001 A 
HETATM   17  C   UNL     1     -40.076  59.987 -50.085  1.00  0.00     0.000 A 
HETATM   18  C   UNL     1     -39.305  59.295 -51.016  1.00  0.00     0.001 A 
HETATM   19  C   UNL     1     -39.920  58.663 -52.097  1.00  0.00     0.010 A 
ENDBRANCH  11  14
ENDBRANCH  10  11
ENDBRANCH   2  10
BRANCH   1  20
HETATM   20  C   UNL     1     -43.393  55.873 -55.752  1.00  0.00     0.119 A 
HETATM   21  N   UNL     1     -44.143  57.006 -55.931  1.00  0.00    -0.273 N 
HETATM   22  N   UNL     1     -44.010  57.570 -57.142  1.00  0.00    -0.179 NA
HETATM   23  H   UNL     1     -44.767  57.435 -55.254  1.00  0.00     0.189 HD
HETATM   24  C   UNL     1     -43.041  56.853 -57.722  1.00  0.00     0.057 A 
HETATM   25  C   UNL     1     -42.622  55.784 -56.894  1.00  0.00     0.065 A 
BRANCH  24  26
HETATM   26  C   UNL     1     -42.519  57.242 -59.065  1.00  0.00     0.061 C 
BRANCH  26  27
HETATM   27  C   UNL     1     -43.580  57.093 -60.157  1.00  0.00     0.002 C 
HETATM   28  C   UNL     1     -44.081  55.662 -60.261  1.00  0.00     0.005 C 
ENDBRANCH  26  27
ENDBRANCH  24  26
ENDBRANCH   1  20
TORSDOF 8
ENDMDL
MODEL 7
REMARK VINA RESULT:      -6.8      2.636      7.438
REMARK  8 active torsions:
REMARK  status: ('A' for Active; 'I' for Inactive)
REMARK    1  A    between atoms: C_2  and  C_3 
REMARK    2  A    between atoms: C_3  and  C_4 
REMARK    3  A    between atoms: C_8  and  C_9 
REMARK       I    between atoms: C_9  and  N_10 
REMARK    4  A    between atoms: N_10  and  C_11 
REMARK    5  A    between atoms: N_10  and  C_17 
REMARK    6  A    between atoms: C_17  and  C_18 
REMARK    7  A    between atoms: C_18  and  O_19 
REMARK    8  A    between atoms: C_18  and  C_20 
ROOT
HETATM    1  C   UNL     1     -41.630  58.676 -54.631  1.00  0.00     0.272 C 
HETATM    2  N   UNL     1     -42.146  58.917 -55.909  1.00  0.00    -0.339 N 
HETATM    3  O   UNL     1     -41.062  59.554 -53.987  1.00  0.00    -0.266 OA
ENDROOT
BRANCH   2   4
HETATM    4  C   UNL     1     -42.080  60.283 -56.497  1.00  0.00     0.087 C 
HETATM    5  C   UNL     1     -41.530  60.279 -57.935  1.00  0.00     0.025 C 
HETATM    6  C   UNL     1     -42.577  60.366 -59.037  1.00  0.00     0.002 C 
HETATM    7  C   UNL     1     -43.555  61.502 -58.784  1.00  0.00     0.000 C 
HETATM    8  C   UNL     1     -44.281  61.324 -57.460  1.00  0.00     0.002 C 
HETATM    9  C   UNL     1     -43.330  61.160 -56.276  1.00  0.00     0.025 C 
ENDBRANCH   2   4
BRANCH   2  10
HETATM   10  C   UNL     1     -42.510  57.837 -56.855  1.00  0.00     0.163 C 
BRANCH  10  11
HETATM   11  C   UNL     1     -44.035  57.635 -57.004  1.00  0.00     0.169 C 
BRANCH  11  12
HETATM   12  O   UNL     1     -44.544  56.857 -55.915  1.00  0.00    -0.389 OA
HETATM   13  H   UNL     1     -45.269  56.315 -56.276  1.00  0.00     0.210 HD
ENDBRANCH  11  12
BRANCH  11  14
HETATM   14  C   UNL     1     -44.372  56.927 -58.302  1.00  0.00    -0.028 A 
HETATM   15  C   UNL     1     -45.444  57.367 -59.091  1.00  0.00     0.010 A 
HETATM   16  C   UNL     1     -45.753  56.717 -60.288  1.00  0.00     0.001 A 
HETATM   17  C   UNL     1     -44.994  55.627 -60.711  1.00  0.00     0.000 A 
HETATM   18  C   UNL     1     -43.920  55.186 -59.941  1.00  0.00     0.001 A 
HETATM   19  C   UNL     1     -43.609  55.834 -58.745  1.00  0.00     0.010 A 
ENDBRANCH  11  14
ENDBRANCH  10  11
ENDBRANCH   2  10
BRANCH   1  20
HETATM   20  C   UNL     1     -41.714  57.358 -54.048  1.00  0.00     0.119 A 
HETATM   21  N   UNL     1     -42.810  56.995 -53.310  1.00  0.00    -0.273 N 
HETATM   22  N   UNL     1     -42.762  55.743 -52.829  1.00  0.00    -0.179 NA
HETATM   23  H   UNL     1     -43.620  57.571 -53.103  1.00  0.00     0.189 HD
HETATM   24  C   UNL     1     -41.658  55.231 -53.384  1.00  0.00     0.057 A 
HETATM   25  C   UNL     1     -40.969  56.199 -54.155  1.00  0.00     0.065 A 
BRANCH  24  26
HETATM   26  C   UNL     1     -41.307  53.795 -53.176  1.00  0.00     0.061 C 
BRANCH  26  27
HETATM   27  C   UNL     1     -40.368  53.272 -54.265  1.00  0.00     0.002 C 
HETATM   28  C   UNL     1     -40.211  51.762 -54.191  1.00  0.00     0.005 C 
ENDBRANCH  26  27
ENDBRANCH  24  26
ENDBRANCH   1  20
TORSDOF 8
ENDMDL
MODEL 8
REMARK VINA RESULT:      -6.8      1.885      2.651
REMARK  8 active torsions:
REMARK  status: ('A' for Active; 'I' for Inactive)
REMARK    1  A    between atoms: C_2  and  C_3 
REMARK    2  A    between atoms: C_3  and  C_4 
REMARK    3  A    between atoms: C_8  and  C_9 
REMARK       I    between atoms: C_9  and  N_10 
REMARK    4  A    between atoms: N_10  and  C_11 
REMARK    5  A    between atoms: N_10  and  C_17 
REMARK    6  A    between atoms: C_17  and  C_18 
REMARK    7  A    between atoms: C_18  and  O_19 
REMARK    8  A    between atoms: C_18  and  C_20 
ROOT
HETATM    1  C   UNL     1     -43.426  57.990 -54.624  1.00  0.00     0.272 C 
HETATM    2  N   UNL     1     -42.602  57.488 -53.611  1.00  0.00    -0.339 N 
HETATM    3  O   UNL     1     -44.401  58.694 -54.374  1.00  0.00    -0.266 OA
ENDROOT
BRANCH   2   4
HETATM    4  C   UNL     1     -42.850  57.860 -52.192  1.00  0.00     0.087 C 
HETATM    5  C   UNL     1     -41.838  57.213 -51.229  1.00  0.00     0.025 C 
HETATM    6  C   UNL     1     -40.697  58.113 -50.774  1.00  0.00     0.002 C 
HETATM    7  C   UNL     1     -41.214  59.452 -50.272  1.00  0.00     0.000 C 
HETATM    8  C   UNL     1     -41.990  60.187 -51.353  1.00  0.00     0.002 C 
HETATM    9  C   UNL     1     -43.131  59.356 -51.938  1.00  0.00     0.025 C 
ENDBRANCH   2   4
BRANCH   2  10
HETATM   10  C   UNL     1     -41.651  56.372 -53.817  1.00  0.00     0.163 C 
BRANCH  10  11
HETATM   11  C   UNL     1     -42.337  54.996 -53.972  1.00  0.00     0.169 C 
BRANCH  11  12
HETATM   12  O   UNL     1     -43.541  54.948 -53.200  1.00  0.00    -0.389 OA
HETATM   13  H   UNL     1     -44.084  55.706 -53.482  1.00  0.00     0.210 HD
ENDBRANCH  11  12
BRANCH  11  14
HETATM   14  C   UNL     1     -41.426  53.872 -53.516  1.00  0.00    -0.028 A 
HETATM   15  C   UNL     1     -40.924  52.948 -54.442  1.00  0.00     0.010 A 
HETATM   16  C   UNL     1     -40.083  51.914 -54.023  1.00  0.00     0.001 A 
HETATM   17  C   UNL     1     -39.732  51.796 -52.679  1.00  0.00     0.000 A 
HETATM   18  C   UNL     1     -40.217  52.714 -51.750  1.00  0.00     0.001 A 
HETATM   19  C   UNL     1     -41.057  53.748 -52.166  1.00  0.00     0.010 A 
ENDBRANCH  11  14
ENDBRANCH  10  11
ENDBRANCH   2  10
BRANCH   1  20
HETATM   20  C   UNL     1     -43.175  57.651 -56.004  1.00  0.00     0.119 A 
HETATM   21  N   UNL     1     -42.262  58.365 -56.738  1.00  0.00    -0.273 N 
HETATM   22  N   UNL     1     -42.122  57.943 -58.004  1.00  0.00    -0.179 NA
HETATM   23  H   UNL     1     -41.710  59.153 -56.417  1.00  0.00     0.189 HD
HETATM   24  C   UNL     1     -42.872  56.837 -58.057  1.00  0.00     0.057 A 
HETATM   25  C   UNL     1     -43.547  56.611 -56.832  1.00  0.00     0.065 A 
BRANCH  24  26
HETATM   26  C   UNL     1     -42.894  56.000 -59.292  1.00  0.00     0.061 C 
BRANCH  26  27
HETATM   27  C   UNL     1     -44.009  54.953 -59.255  1.00  0.00     0.002 C 
HETATM   28  C   UNL     1     -44.762  54.890 -60.574  1.00  0.00     0.005 C 
ENDBRANCH  26  27
ENDBRANCH  24  26
ENDBRANCH   1  20
TORSDOF 8
ENDMDL
MODEL 9
REMARK VINA RESULT:      -6.8      2.263      5.364
REMARK  8 active torsions:
REMARK  status: ('A' for Active; 'I' for Inactive)
REMARK    1  A    between atoms: C_2  and  C_3 
REMARK    2  A    between atoms: C_3  and  C_4 
REMARK    3  A    between atoms: C_8  and  C_9 
REMARK       I    between atoms: C_9  and  N_10 
REMARK    4  A    between atoms: N_10  and  C_11 
REMARK    5  A    between atoms: N_10  and  C_17 
REMARK    6  A    between atoms: C_17  and  C_18 
REMARK    7  A    between atoms: C_18  and  O_19 
REMARK    8  A    between atoms: C_18  and  C_20 
ROOT
HETATM    1  C   UNL     1     -42.507  56.384 -55.716  1.00  0.00     0.272 C 
HETATM    2  N   UNL     1     -43.147  57.306 -54.881  1.00  0.00    -0.339 N 
HETATM    3  O   UNL     1     -42.451  56.544 -56.933  1.00  0.00    -0.266 OA
ENDROOT
BRANCH   2   4
HETATM    4  C   UNL     1     -43.721  58.557 -55.449  1.00  0.00     0.087 C 
HETATM    5  C   UNL     1     -45.058  58.942 -54.791  1.00  0.00     0.025 C 
HETATM    6  C   UNL     1     -44.975  60.024 -53.722  1.00  0.00     0.002 C 
HETATM    7  C   UNL     1     -44.192  61.231 -54.213  1.00  0.00     0.000 C 
HETATM    8  C   UNL     1     -42.774  60.848 -54.605  1.00  0.00     0.002 C 
HETATM    9  C   UNL     1     -42.723  59.719 -55.634  1.00  0.00     0.025 C 
ENDBRANCH   2   4
BRANCH   2  10
HETATM   10  C   UNL     1     -43.551  56.999 -53.490  1.00  0.00     0.163 C 
BRANCH  10  11
HETATM   11  C   UNL     1     -42.504  57.419 -52.435  1.00  0.00     0.169 C 
BRANCH  11  12
HETATM   12  O   UNL     1     -41.339  57.954 -53.072  1.00  0.00    -0.389 OA
HETATM   13  H   UNL     1     -41.315  57.578 -53.971  1.00  0.00     0.210 HD
ENDBRANCH  11  12
BRANCH  11  14
HETATM   14  C   UNL     1     -42.086  56.244 -51.574  1.00  0.00    -0.028 A 
HETATM   15  C   UNL     1     -42.772  55.024 -51.658  1.00  0.00     0.010 A 
HETATM   16  C   UNL     1     -42.386  53.940 -50.867  1.00  0.00     0.001 A 
HETATM   17  C   UNL     1     -41.310  54.061 -49.989  1.00  0.00     0.000 A 
HETATM   18  C   UNL     1     -40.614  55.264 -49.902  1.00  0.00     0.001 A 
HETATM   19  C   UNL     1     -40.998  56.348 -50.692  1.00  0.00     0.010 A 
ENDBRANCH  11  14
ENDBRANCH  10  11
ENDBRANCH   2  10
BRANCH   1  20
HETATM   20  C   UNL     1     -41.928  55.182 -55.166  1.00  0.00     0.119 A 
HETATM   21  N   UNL     1     -42.671  54.033 -55.078  1.00  0.00    -0.273 N 
HETATM   22  N   UNL     1     -42.013  52.990 -54.552  1.00  0.00    -0.179 NA
HETATM   23  H   UNL     1     -43.638  53.913 -55.363  1.00  0.00     0.189 HD
HETATM   24  C   UNL     1     -40.760  53.439 -54.415  1.00  0.00     0.057 A 
HETATM   25  C   UNL     1     -40.656  54.801 -54.787  1.00  0.00     0.065 A 
BRANCH  24  26
HETATM   26  C   UNL     1     -39.677  52.522 -53.951  1.00  0.00     0.061 C 
BRANCH  26  27
HETATM   27  C   UNL     1     -40.219  51.144 -53.567  1.00  0.00     0.002 C 
HETATM   28  C   UNL     1     -39.774  50.073 -54.549  1.00  0.00     0.005 C 
ENDBRANCH  26  27
ENDBRANCH  24  26
ENDBRANCH   1  20
TORSDOF 8
ENDMDL
MODEL 10
REMARK VINA RESULT:      -6.6      2.415      6.531
REMARK  8 active torsions:
REMARK  status: ('A' for Active; 'I' for Inactive)
REMARK    1  A    between atoms: C_2  and  C_3 
REMARK    2  A    between atoms: C_3  and  C_4 
REMARK    3  A    between atoms: C_8  and  C_9 
REMARK       I    between atoms: C_9  and  N_10 
REMARK    4  A    between atoms: N_10  and  C_11 
REMARK    5  A    between atoms: N_10  and  C_17 
REMARK    6  A    between atoms: C_17  and  C_18 
REMARK    7  A    between atoms: C_18  and  O_19 
REMARK    8  A    between atoms: C_18  and  C_20 
ROOT
HETATM    1  C   UNL     1     -42.855  56.270 -56.979  1.00  0.00     0.272 C 
HETATM    2  N   UNL     1     -42.516  57.623 -56.875  1.00  0.00    -0.339 N 
HETATM    3  O   UNL     1     -43.423  55.820 -57.970  1.00  0.00    -0.266 OA
ENDROOT
BRANCH   2   4
HETATM    4  C   UNL     1     -42.776  58.549 -58.011  1.00  0.00     0.087 C 
HETATM    5  C   UNL     1     -44.265  58.917 -58.141  1.00  0.00     0.025 C 
HETATM    6  C   UNL     1     -44.658  60.270 -57.564  1.00  0.00     0.002 C 
HETATM    7  C   UNL     1     -43.734  61.373 -58.056  1.00  0.00     0.000 C 
HETATM    8  C   UNL     1     -42.290  61.099 -57.669  1.00  0.00     0.002 C 
HETATM    9  C   UNL     1     -41.795  59.732 -58.141  1.00  0.00     0.025 C 
ENDBRANCH   2   4
BRANCH   2  10
HETATM   10  C   UNL     1     -42.165  58.277 -55.594  1.00  0.00     0.163 C 
BRANCH  10  11
HETATM   11  C   UNL     1     -43.363  58.437 -54.632  1.00  0.00     0.169 C 
BRANCH  11  12
HETATM   12  O   UNL     1     -43.592  59.821 -54.345  1.00  0.00    -0.389 OA
HETATM   13  H   UNL     1     -42.745  60.279 -54.491  1.00  0.00     0.210 HD
ENDBRANCH  11  12
BRANCH  11  14
HETATM   14  C   UNL     1     -43.123  57.706 -53.326  1.00  0.00    -0.028 A 
HETATM   15  C   UNL     1     -41.818  57.412 -52.908  1.00  0.00     0.010 A 
HETATM   16  C   UNL     1     -41.597  56.742 -51.702  1.00  0.00     0.001 A 
HETATM   17  C   UNL     1     -42.673  56.363 -50.902  1.00  0.00     0.000 A 
HETATM   18  C   UNL     1     -43.975  56.658 -51.301  1.00  0.00     0.001 A 
HETATM   19  C   UNL     1     -44.199  57.328 -52.505  1.00  0.00     0.010 A 
ENDBRANCH  11  14
ENDBRANCH  10  11
ENDBRANCH   2  10
BRANCH   1  20
HETATM   20  C   UNL     1     -42.582  55.365 -55.889  1.00  0.00     0.119 A 
HETATM   21  N   UNL     1     -43.607  54.879 -55.118  1.00  0.00    -0.273 N 
HETATM   22  N   UNL     1     -43.216  54.045 -54.142  1.00  0.00    -0.179 NA
HETATM   23  H   UNL     1     -44.594  55.091 -55.219  1.00  0.00     0.189 HD
HETATM   24  C   UNL     1     -41.908  53.880 -54.368  1.00  0.00     0.057 A 
HETATM   25  C   UNL     1     -41.465  54.681 -55.449  1.00  0.00     0.065 A 
BRANCH  24  26
HETATM   26  C   UNL     1     -41.116  52.920 -53.545  1.00  0.00     0.061 C 
BRANCH  26  27
HETATM   27  C   UNL     1     -40.085  52.162 -54.383  1.00  0.00     0.002 C 
HETATM   28  C   UNL     1     -40.177  50.661 -54.160  1.00  0.00     0.005 C 
ENDBRANCH  26  27
ENDBRANCH  24  26
ENDBRANCH   1  20
TORSDOF 8
ENDMDL
