MODEL 1
REMARK VINA RESULT:      -9.4      0.000      0.000
REMARK  4 active torsions:
REMARK  status: ('A' for Active; 'I' for Inactive)
REMARK    1  A    between atoms: C_2  and  N_3 
REMARK       I    between atoms: N_3  and  C_4 
REMARK       I    between atoms: C_4  and  N_5 
REMARK    2  A    between atoms: N_5  and  C_6 
REMARK    3  A    between atoms: C_17  and  C_18 
REMARK    4  A    between atoms: C_19  and  O_20 
ROOT
HETATM    1  C   UNL     1     -44.240  60.201 -51.186  1.00  0.00     0.120 C 
HETATM    2  C   UNL     1     -43.873  58.950 -52.013  1.00  0.00     0.202 C 
HETATM    3  N   UNL     1     -42.460  59.105 -52.306  1.00  0.00    -0.332 N 
HETATM    4  C   UNL     1     -41.633  58.117 -52.769  1.00  0.00     0.257 C 
HETATM    5  O   UNL     1     -40.424  58.277 -52.907  1.00  0.00    -0.267 OA
HETATM    6  C   UNL     1     -42.235  56.804 -53.104  1.00  0.00     0.059 A 
HETATM    7  C   UNL     1     -43.449  56.654 -53.795  1.00  0.00     0.050 A 
HETATM    8  N   UNL     1     -44.356  57.693 -54.091  1.00  0.00    -0.324 N 
HETATM    9  C   UNL     1     -44.608  58.826 -53.348  1.00  0.00     0.247 C 
HETATM   10  O   UNL     1     -45.482  59.608 -53.720  1.00  0.00    -0.271 OA
HETATM   11  C   UNL     1     -41.446  55.679 -52.809  1.00  0.00     0.031 A 
HETATM   12  C   UNL     1     -41.841  54.389 -53.189  1.00  0.00    -0.022 A 
HETATM   13  C   UNL     1     -43.022  54.261 -53.932  1.00  0.00     0.014 A 
HETATM   14  C   UNL     1     -43.806  55.377 -54.244  1.00  0.00     0.031 A 
HETATM   15  C   UNL     1     -42.027  60.473 -52.134  1.00  0.00     0.129 C 
HETATM   16  C   UNL     1     -42.945  61.022 -51.061  1.00  0.00     0.048 C 
HETATM   17  H   UNL     1     -45.044  57.541 -54.819  1.00  0.00     0.169 HD
ENDROOT
BRANCH   1  18
HETATM   18  N   UNL     1     -44.814  59.907 -49.866  1.00  0.00    -0.336 N 
HETATM   19  C   UNL     1     -45.585  60.653 -49.032  1.00  0.00     0.316 C 
HETATM   20  N   UNL     1     -45.943  61.888 -49.479  1.00  0.00    -0.339 N 
HETATM   21  O   UNL     1     -45.860  60.210 -47.923  1.00  0.00    -0.247 OA
HETATM   22  H   UNL     1     -46.021  62.001 -50.477  1.00  0.00     0.164 HD
HETATM   23  H   UNL     1     -44.576  59.015 -49.449  1.00  0.00     0.164 HD
BRANCH  20  24
HETATM   24  C   UNL     1     -46.656  62.878 -48.679  1.00  0.00     0.078 C 
HETATM   25  C   UNL     1     -47.684  63.658 -49.497  1.00  0.00     0.032 C 
HETATM   26  C   UNL     1     -45.708  63.807 -47.929  1.00  0.00     0.032 C 
ENDBRANCH  20  24
ENDBRANCH   1  18
BRANCH  12  27
HETATM   27  C   UNL     1     -41.027  53.216 -52.812  1.00  0.00     0.009 A 
HETATM   28  C   UNL     1     -40.544  53.026 -51.495  1.00  0.00     0.079 A 
HETATM   29  C   UNL     1     -39.742  51.916 -51.199  1.00  0.00     0.039 A 
HETATM   30  C   UNL     1     -39.415  50.992 -52.195  1.00  0.00     0.026 A 
HETATM   31  C   UNL     1     -39.890  51.171 -53.489  1.00  0.00     0.035 A 
HETATM   32 CL   UNL     1     -39.482  50.035 -54.713  1.00  0.00    -0.084 Cl
HETATM   33  C   UNL     1     -40.688  52.269 -53.799  1.00  0.00     0.039 A 
BRANCH  28  34
HETATM   34  O   UNL     1     -40.886  53.990 -50.579  1.00  0.00    -0.355 OA
HETATM   35  C   UNL     1     -39.958  54.282 -49.542  1.00  0.00     0.210 C 
ENDBRANCH  28  34
ENDBRANCH  12  27
TORSDOF 4
ENDMDL
MODEL 2
REMARK VINA RESULT:      -9.0      4.338      7.678
REMARK  4 active torsions:
REMARK  status: ('A' for Active; 'I' for Inactive)
REMARK    1  A    between atoms: C_2  and  N_3 
REMARK       I    between atoms: N_3  and  C_4 
REMARK       I    between atoms: C_4  and  N_5 
REMARK    2  A    between atoms: N_5  and  C_6 
REMARK    3  A    between atoms: C_17  and  C_18 
REMARK    4  A    between atoms: C_19  and  O_20 
ROOT
HETATM    1  C   UNL     1     -41.864  56.016 -50.632  1.00  0.00     0.120 C 
HETATM    2  C   UNL     1     -42.569  56.646 -51.852  1.00  0.00     0.202 C 
HETATM    3  N   UNL     1     -41.882  57.908 -52.062  1.00  0.00    -0.332 N 
HETATM    4  C   UNL     1     -41.967  58.679 -53.189  1.00  0.00     0.257 C 
HETATM    5  O   UNL     1     -41.289  59.689 -53.353  1.00  0.00    -0.267 OA
HETATM    6  C   UNL     1     -42.913  58.261 -54.251  1.00  0.00     0.059 A 
HETATM    7  C   UNL     1     -44.214  57.793 -53.998  1.00  0.00     0.050 A 
HETATM    8  N   UNL     1     -44.735  57.466 -52.728  1.00  0.00    -0.324 N 
HETATM    9  C   UNL     1     -44.051  56.959 -51.645  1.00  0.00     0.247 C 
HETATM   10  O   UNL     1     -44.672  56.669 -50.623  1.00  0.00    -0.271 OA
HETATM   11  C   UNL     1     -42.488  58.487 -55.571  1.00  0.00     0.031 A 
HETATM   12  C   UNL     1     -43.336  58.254 -56.663  1.00  0.00    -0.022 A 
HETATM   13  C   UNL     1     -44.649  57.848 -56.394  1.00  0.00     0.014 A 
HETATM   14  C   UNL     1     -45.087  57.634 -55.081  1.00  0.00     0.031 A 
HETATM   15  C   UNL     1     -41.148  58.317 -50.886  1.00  0.00     0.129 C 
HETATM   16  C   UNL     1     -40.771  57.014 -50.211  1.00  0.00     0.048 C 
HETATM   17  H   UNL     1     -45.740  57.412 -52.618  1.00  0.00     0.169 HD
ENDROOT
BRANCH   1  18
HETATM   18  N   UNL     1     -41.299  54.683 -50.881  1.00  0.00    -0.336 N 
HETATM   19  C   UNL     1     -41.146  53.967 -52.026  1.00  0.00     0.316 C 
HETATM   20  N   UNL     1     -41.540  54.575 -53.178  1.00  0.00    -0.339 N 
HETATM   21  O   UNL     1     -40.727  52.818 -51.956  1.00  0.00    -0.247 OA
HETATM   22  H   UNL     1     -41.488  55.581 -53.198  1.00  0.00     0.164 HD
HETATM   23  H   UNL     1     -41.002  54.151 -50.071  1.00  0.00     0.164 HD
BRANCH  20  24
HETATM   24  C   UNL     1     -41.573  53.924 -54.482  1.00  0.00     0.078 C 
HETATM   25  C   UNL     1     -40.237  54.021 -55.218  1.00  0.00     0.032 C 
HETATM   26  C   UNL     1     -42.731  54.414 -55.346  1.00  0.00     0.032 C 
ENDBRANCH  20  24
ENDBRANCH   1  18
BRANCH  12  27
HETATM   27  C   UNL     1     -42.845  58.438 -58.043  1.00  0.00     0.009 A 
HETATM   28  C   UNL     1     -42.631  57.346 -58.918  1.00  0.00     0.079 A 
HETATM   29  C   UNL     1     -42.126  57.573 -60.205  1.00  0.00     0.039 A 
HETATM   30  C   UNL     1     -41.834  58.870 -60.635  1.00  0.00     0.026 A 
HETATM   31  C   UNL     1     -42.046  59.946 -59.781  1.00  0.00     0.035 A 
HETATM   32 CL   UNL     1     -41.681  61.541 -60.310  1.00  0.00    -0.084 Cl
HETATM   33  C   UNL     1     -42.548  59.738 -58.499  1.00  0.00     0.039 A 
BRANCH  28  34
HETATM   34  O   UNL     1     -42.917  56.101 -58.416  1.00  0.00    -0.355 OA
HETATM   35  C   UNL     1     -43.800  55.271 -59.159  1.00  0.00     0.210 C 
ENDBRANCH  28  34
ENDBRANCH  12  27
TORSDOF 4
ENDMDL
MODEL 3
REMARK VINA RESULT:      -8.7      4.251      6.300
REMARK  4 active torsions:
REMARK  status: ('A' for Active; 'I' for Inactive)
REMARK    1  A    between atoms: C_2  and  N_3 
REMARK       I    between atoms: N_3  and  C_4 
REMARK       I    between atoms: C_4  and  N_5 
REMARK    2  A    between atoms: N_5  and  C_6 
REMARK    3  A    between atoms: C_17  and  C_18 
REMARK    4  A    between atoms: C_19  and  O_20 
ROOT
HETATM    1  C   UNL     1     -42.999  59.405 -57.872  1.00  0.00     0.120 C 
HETATM    2  C   UNL     1     -43.178  58.335 -56.775  1.00  0.00     0.202 C 
HETATM    3  N   UNL     1     -43.323  57.086 -57.500  1.00  0.00    -0.332 N 
HETATM    4  C   UNL     1     -43.224  55.835 -56.953  1.00  0.00     0.257 C 
HETATM    5  O   UNL     1     -43.258  54.812 -57.631  1.00  0.00    -0.267 OA
HETATM    6  C   UNL     1     -43.060  55.727 -55.484  1.00  0.00     0.059 A 
HETATM    7  C   UNL     1     -43.778  56.503 -54.559  1.00  0.00     0.050 A 
HETATM    8  N   UNL     1     -44.593  57.610 -54.875  1.00  0.00    -0.324 N 
HETATM    9  C   UNL     1     -44.425  58.508 -55.907  1.00  0.00     0.247 C 
HETATM   10  O   UNL     1     -45.197  59.461 -56.007  1.00  0.00    -0.271 OA
HETATM   11  C   UNL     1     -42.227  54.687 -55.038  1.00  0.00     0.031 A 
HETATM   12  C   UNL     1     -42.086  54.397 -53.674  1.00  0.00    -0.022 A 
HETATM   13  C   UNL     1     -42.855  55.136 -52.767  1.00  0.00     0.014 A 
HETATM   14  C   UNL     1     -43.700  56.164 -53.202  1.00  0.00     0.031 A 
HETATM   15  C   UNL     1     -43.679  57.311 -58.883  1.00  0.00     0.129 C 
HETATM   16  C   UNL     1     -43.058  58.653 -59.213  1.00  0.00     0.048 C 
HETATM   17  H   UNL     1     -45.275  57.919 -54.193  1.00  0.00     0.169 HD
ENDROOT
BRANCH   1  18
HETATM   18  N   UNL     1     -41.762  60.190 -57.756  1.00  0.00    -0.336 N 
HETATM   19  C   UNL     1     -41.334  61.300 -58.412  1.00  0.00     0.316 C 
HETATM   20  N   UNL     1     -42.193  61.835 -59.323  1.00  0.00    -0.339 N 
HETATM   21  O   UNL     1     -40.202  61.717 -58.198  1.00  0.00    -0.247 OA
HETATM   22  H   UNL     1     -43.176  61.694 -59.154  1.00  0.00     0.164 HD
HETATM   23  H   UNL     1     -41.058  59.846 -57.114  1.00  0.00     0.164 HD
BRANCH  20  24
HETATM   24  C   UNL     1     -41.863  62.943 -60.213  1.00  0.00     0.078 C 
HETATM   25  C   UNL     1     -43.100  63.726 -60.653  1.00  0.00     0.032 C 
HETATM   26  C   UNL     1     -41.022  62.499 -61.404  1.00  0.00     0.032 C 
ENDBRANCH  20  24
ENDBRANCH   1  18
BRANCH  12  27
HETATM   27  C   UNL     1     -41.155  53.341 -53.226  1.00  0.00     0.009 A 
HETATM   28  C   UNL     1     -40.471  53.416 -51.989  1.00  0.00     0.079 A 
HETATM   29  C   UNL     1     -39.569  52.406 -51.629  1.00  0.00     0.039 A 
HETATM   30  C   UNL     1     -39.338  51.323 -52.481  1.00  0.00     0.026 A 
HETATM   31  C   UNL     1     -40.010  51.244 -53.696  1.00  0.00     0.035 A 
HETATM   32 CL   UNL     1     -39.721  49.913 -54.746  1.00  0.00    -0.084 Cl
HETATM   33  C   UNL     1     -40.911  52.239 -54.068  1.00  0.00     0.039 A 
BRANCH  28  34
HETATM   34  O   UNL     1     -40.731  54.521 -51.217  1.00  0.00    -0.355 OA
HETATM   35  C   UNL     1     -40.288  54.510 -49.867  1.00  0.00     0.210 C 
ENDBRANCH  28  34
ENDBRANCH  12  27
TORSDOF 4
ENDMDL
MODEL 4
REMARK VINA RESULT:      -8.5      2.929      5.583
REMARK  4 active torsions:
REMARK  status: ('A' for Active; 'I' for Inactive)
REMARK    1  A    between atoms: C_2  and  N_3 
REMARK       I    between atoms: N_3  and  C_4 
REMARK       I    between atoms: C_4  and  N_5 
REMARK    2  A    between atoms: N_5  and  C_6 
REMARK    3  A    between atoms: C_17  and  C_18 
REMARK    4  A    between atoms: C_19  and  O_20 
ROOT
HETATM    1  C   UNL     1     -43.235  61.010 -55.115  1.00  0.00     0.120 C 
HETATM    2  C   UNL     1     -42.884  60.069 -53.943  1.00  0.00     0.202 C 
HETATM    3  N   UNL     1     -43.975  59.112 -53.901  1.00  0.00    -0.332 N 
HETATM    4  C   UNL     1     -43.964  57.927 -53.216  1.00  0.00     0.257 C 
HETATM    5  O   UNL     1     -44.876  57.109 -53.294  1.00  0.00    -0.267 OA
HETATM    6  C   UNL     1     -42.793  57.628 -52.358  1.00  0.00     0.059 A 
HETATM    7  C   UNL     1     -42.180  58.571 -51.517  1.00  0.00     0.050 A 
HETATM    8  N   UNL     1     -42.446  59.957 -51.508  1.00  0.00    -0.324 N 
HETATM    9  C   UNL     1     -42.816  60.747 -52.575  1.00  0.00     0.247 C 
HETATM   10  O   UNL     1     -42.950  61.959 -52.408  1.00  0.00    -0.271 OA
HETATM   11  C   UNL     1     -42.393  56.281 -52.319  1.00  0.00     0.031 A 
HETATM   12  C   UNL     1     -41.382  55.843 -51.453  1.00  0.00    -0.022 A 
HETATM   13  C   UNL     1     -40.823  56.781 -50.576  1.00  0.00     0.014 A 
HETATM   14  C   UNL     1     -41.225  58.122 -50.596  1.00  0.00     0.031 A 
HETATM   15  C   UNL     1     -45.138  59.599 -54.608  1.00  0.00     0.129 C 
HETATM   16  C   UNL     1     -44.569  60.498 -55.686  1.00  0.00     0.048 C 
HETATM   17  H   UNL     1     -42.171  60.497 -50.696  1.00  0.00     0.169 HD
ENDROOT
BRANCH   1  18
HETATM   18  N   UNL     1     -42.205  61.088 -56.159  1.00  0.00    -0.336 N 
HETATM   19  C   UNL     1     -41.843  60.216 -57.136  1.00  0.00     0.316 C 
HETATM   20  N   UNL     1     -42.565  59.065 -57.220  1.00  0.00    -0.339 N 
HETATM   21  O   UNL     1     -40.870  60.476 -57.834  1.00  0.00    -0.247 OA
HETATM   22  H   UNL     1     -43.523  59.110 -56.910  1.00  0.00     0.164 HD
HETATM   23  H   UNL     1     -41.605  61.905 -56.153  1.00  0.00     0.164 HD
BRANCH  20  24
HETATM   24  C   UNL     1     -42.248  57.957 -58.114  1.00  0.00     0.078 C 
HETATM   25  C   UNL     1     -42.536  58.287 -59.578  1.00  0.00     0.032 C 
HETATM   26  C   UNL     1     -42.918  56.657 -57.685  1.00  0.00     0.032 C 
ENDBRANCH  20  24
ENDBRANCH   1  18
BRANCH  12  27
HETATM   27  C   UNL     1     -40.936  54.436 -51.475  1.00  0.00     0.009 A 
HETATM   28  C   UNL     1     -40.783  53.675 -50.291  1.00  0.00     0.079 A 
HETATM   29  C   UNL     1     -40.319  52.356 -50.364  1.00  0.00     0.039 A 
HETATM   30  C   UNL     1     -40.005  51.781 -51.599  1.00  0.00     0.026 A 
HETATM   31  C   UNL     1     -40.157  52.522 -52.765  1.00  0.00     0.035 A 
HETATM   32 CL   UNL     1     -39.766  51.815 -54.283  1.00  0.00    -0.084 Cl
HETATM   33  C   UNL     1     -40.618  53.835 -52.709  1.00  0.00     0.039 A 
BRANCH  28  34
HETATM   34  O   UNL     1     -41.087  54.316 -49.115  1.00  0.00    -0.355 OA
HETATM   35  C   UNL     1     -40.388  53.921 -47.942  1.00  0.00     0.210 C 
ENDBRANCH  28  34
ENDBRANCH  12  27
TORSDOF 4
ENDMDL
MODEL 5
REMARK VINA RESULT:      -8.3      2.126      2.351
REMARK  4 active torsions:
REMARK  status: ('A' for Active; 'I' for Inactive)
REMARK    1  A    between atoms: C_2  and  N_3 
REMARK       I    between atoms: N_3  and  C_4 
REMARK       I    between atoms: C_4  and  N_5 
REMARK    2  A    between atoms: N_5  and  C_6 
REMARK    3  A    between atoms: C_17  and  C_18 
REMARK    4  A    between atoms: C_19  and  O_20 
ROOT
HETATM    1  C   UNL     1     -44.501  60.251 -53.606  1.00  0.00     0.120 C 
HETATM    2  C   UNL     1     -43.825  58.970 -54.139  1.00  0.00     0.202 C 
HETATM    3  N   UNL     1     -42.409  59.172 -53.893  1.00  0.00    -0.332 N 
HETATM    4  C   UNL     1     -41.449  58.197 -53.938  1.00  0.00     0.257 C 
HETATM    5  O   UNL     1     -40.281  58.403 -53.625  1.00  0.00    -0.267 OA
HETATM    6  C   UNL     1     -41.854  56.839 -54.374  1.00  0.00     0.059 A 
HETATM    7  C   UNL     1     -42.716  56.590 -55.455  1.00  0.00     0.050 A 
HETATM    8  N   UNL     1     -43.465  57.565 -56.147  1.00  0.00    -0.324 N 
HETATM    9  C   UNL     1     -44.000  58.729 -55.639  1.00  0.00     0.247 C 
HETATM   10  O   UNL     1     -44.686  59.445 -56.368  1.00  0.00    -0.271 OA
HETATM   11  C   UNL     1     -41.212  55.772 -53.722  1.00  0.00     0.031 A 
HETATM   12  C   UNL     1     -41.410  54.444 -54.124  1.00  0.00    -0.022 A 
HETATM   13  C   UNL     1     -42.221  54.215 -55.243  1.00  0.00     0.014 A 
HETATM   14  C   UNL     1     -42.853  55.272 -55.908  1.00  0.00     0.031 A 
HETATM   15  C   UNL     1     -42.100  60.567 -53.675  1.00  0.00     0.129 C 
HETATM   16  C   UNL     1     -43.364  61.138 -53.067  1.00  0.00     0.048 C 
HETATM   17  H   UNL     1     -43.825  57.337 -57.065  1.00  0.00     0.169 HD
ENDROOT
BRANCH   1  18
HETATM   18  N   UNL     1     -45.523  60.014 -52.578  1.00  0.00    -0.336 N 
HETATM   19  C   UNL     1     -46.714  60.621 -52.333  1.00  0.00     0.316 C 
HETATM   20  N   UNL     1     -47.080  61.608 -53.196  1.00  0.00    -0.339 N 
HETATM   21  O   UNL     1     -47.352  60.297 -51.338  1.00  0.00    -0.247 OA
HETATM   22  H   UNL     1     -46.733  61.535 -54.139  1.00  0.00     0.164 HD
HETATM   23  H   UNL     1     -45.318  59.308 -51.879  1.00  0.00     0.164 HD
BRANCH  20  24
HETATM   24  C   UNL     1     -48.253  62.457 -53.024  1.00  0.00     0.078 C 
HETATM   25  C   UNL     1     -48.953  62.760 -54.349  1.00  0.00     0.032 C 
HETATM   26  C   UNL     1     -47.937  63.731 -52.248  1.00  0.00     0.032 C 
ENDBRANCH  20  24
ENDBRANCH   1  18
BRANCH  12  27
HETATM   27  C   UNL     1     -40.774  53.336 -53.384  1.00  0.00     0.009 A 
HETATM   28  C   UNL     1     -40.561  53.389 -51.985  1.00  0.00     0.079 A 
HETATM   29  C   UNL     1     -39.917  52.327 -51.337  1.00  0.00     0.039 A 
HETATM   30  C   UNL     1     -39.484  51.212 -52.059  1.00  0.00     0.026 A 
HETATM   31  C   UNL     1     -39.695  51.153 -53.432  1.00  0.00     0.035 A 
HETATM   32 CL   UNL     1     -39.157  49.782 -54.320  1.00  0.00    -0.084 Cl
HETATM   33  C   UNL     1     -40.334  52.200 -54.091  1.00  0.00     0.039 A 
BRANCH  28  34
HETATM   34  O   UNL     1     -40.991  54.527 -51.349  1.00  0.00    -0.355 OA
HETATM   35  C   UNL     1     -40.856  54.591 -49.935  1.00  0.00     0.210 C 
ENDBRANCH  28  34
ENDBRANCH  12  27
TORSDOF 4
ENDMDL
MODEL 6
REMARK VINA RESULT:      -7.9      1.895      2.436
REMARK  4 active torsions:
REMARK  status: ('A' for Active; 'I' for Inactive)
REMARK    1  A    between atoms: C_2  and  N_3 
REMARK       I    between atoms: N_3  and  C_4 
REMARK       I    between atoms: C_4  and  N_5 
REMARK    2  A    between atoms: N_5  and  C_6 
REMARK    3  A    between atoms: C_17  and  C_18 
REMARK    4  A    between atoms: C_19  and  O_20 
ROOT
HETATM    1  C   UNL     1     -45.140  60.247 -54.311  1.00  0.00     0.120 C 
HETATM    2  C   UNL     1     -44.462  58.920 -54.714  1.00  0.00     0.202 C 
HETATM    3  N   UNL     1     -43.040  59.210 -54.683  1.00  0.00    -0.332 N 
HETATM    4  C   UNL     1     -42.040  58.276 -54.692  1.00  0.00     0.257 C 
HETATM    5  O   UNL     1     -40.855  58.573 -54.565  1.00  0.00    -0.267 OA
HETATM    6  C   UNL     1     -42.417  56.851 -54.852  1.00  0.00     0.059 A 
HETATM    7  C   UNL     1     -43.385  56.397 -55.763  1.00  0.00     0.050 A 
HETATM    8  N   UNL     1     -44.264  57.218 -56.502  1.00  0.00    -0.324 N 
HETATM    9  C   UNL     1     -44.799  58.429 -56.122  1.00  0.00     0.247 C 
HETATM   10  O   UNL     1     -45.604  58.990 -56.865  1.00  0.00    -0.271 OA
HETATM   11  C   UNL     1     -41.645  55.930 -54.124  1.00  0.00     0.031 A 
HETATM   12  C   UNL     1     -41.814  54.548 -54.281  1.00  0.00    -0.022 A 
HETATM   13  C   UNL     1     -42.738  54.109 -55.239  1.00  0.00     0.014 A 
HETATM   14  C   UNL     1     -43.501  55.019 -55.980  1.00  0.00     0.031 A 
HETATM   15  C   UNL     1     -42.785  60.632 -54.730  1.00  0.00     0.129 C 
HETATM   16  C   UNL     1     -43.999  61.250 -54.068  1.00  0.00     0.048 C 
HETATM   17  H   UNL     1     -44.716  56.828 -57.320  1.00  0.00     0.169 HD
ENDROOT
BRANCH   1  18
HETATM   18  N   UNL     1     -46.019  60.146 -53.139  1.00  0.00    -0.336 N 
HETATM   19  C   UNL     1     -45.777  60.316 -51.813  1.00  0.00     0.316 C 
HETATM   20  N   UNL     1     -44.512  60.682 -51.469  1.00  0.00    -0.339 N 
HETATM   21  O   UNL     1     -46.672  60.078 -51.011  1.00  0.00    -0.247 OA
HETATM   22  H   UNL     1     -43.996  61.215 -52.151  1.00  0.00     0.164 HD
HETATM   23  H   UNL     1     -46.976  59.855 -53.305  1.00  0.00     0.164 HD
BRANCH  20  24
HETATM   24  C   UNL     1     -44.029  60.786 -50.097  1.00  0.00     0.078 C 
HETATM   25  C   UNL     1     -44.432  62.103 -49.434  1.00  0.00     0.032 C 
HETATM   26  C   UNL     1     -42.529  60.535 -49.990  1.00  0.00     0.032 C 
ENDBRANCH  20  24
ENDBRANCH   1  18
BRANCH  12  27
HETATM   27  C   UNL     1     -41.035  53.600 -53.460  1.00  0.00     0.009 A 
HETATM   28  C   UNL     1     -40.718  53.863 -52.105  1.00  0.00     0.079 A 
HETATM   29  C   UNL     1     -39.942  52.948 -51.381  1.00  0.00     0.039 A 
HETATM   30  C   UNL     1     -39.478  51.776 -51.984  1.00  0.00     0.026 A 
HETATM   31  C   UNL     1     -39.790  51.512 -53.312  1.00  0.00     0.035 A 
HETATM   32 CL   UNL     1     -39.215  50.071 -54.054  1.00  0.00    -0.084 Cl
HETATM   33  C   UNL     1     -40.561  52.410 -54.046  1.00  0.00     0.039 A 
BRANCH  28  34
HETATM   34  O   UNL     1     -41.187  55.046 -51.590  1.00  0.00    -0.355 OA
HETATM   35  C   UNL     1     -42.159  54.982 -50.555  1.00  0.00     0.210 C 
ENDBRANCH  28  34
ENDBRANCH  12  27
TORSDOF 4
ENDMDL
MODEL 7
REMARK VINA RESULT:      -7.9      3.895      7.772
REMARK  4 active torsions:
REMARK  status: ('A' for Active; 'I' for Inactive)
REMARK    1  A    between atoms: C_2  and  N_3 
REMARK       I    between atoms: N_3  and  C_4 
REMARK       I    between atoms: C_4  and  N_5 
REMARK    2  A    between atoms: N_5  and  C_6 
REMARK    3  A    between atoms: C_17  and  C_18 
REMARK    4  A    between atoms: C_19  and  O_20 
ROOT
HETATM    1  C   UNL     1     -41.751  55.111 -50.426  1.00  0.00     0.120 C 
HETATM    2  C   UNL     1     -42.498  55.971 -51.468  1.00  0.00     0.202 C 
HETATM    3  N   UNL     1     -41.836  57.262 -51.421  1.00  0.00    -0.332 N 
HETATM    4  C   UNL     1     -41.963  58.252 -52.357  1.00  0.00     0.257 C 
HETATM    5  O   UNL     1     -41.304  59.287 -52.319  1.00  0.00    -0.267 OA
HETATM    6  C   UNL     1     -42.931  58.050 -53.460  1.00  0.00     0.059 A 
HETATM    7  C   UNL     1     -44.217  57.513 -53.282  1.00  0.00     0.050 A 
HETATM    8  N   UNL     1     -44.699  56.915 -52.098  1.00  0.00    -0.324 N 
HETATM    9  C   UNL     1     -43.978  56.203 -51.164  1.00  0.00     0.247 C 
HETATM   10  O   UNL     1     -44.567  55.692 -50.212  1.00  0.00    -0.271 OA
HETATM   11  C   UNL     1     -42.546  58.559 -54.712  1.00  0.00     0.031 A 
HETATM   12  C   UNL     1     -43.419  58.545 -55.808  1.00  0.00    -0.022 A 
HETATM   13  C   UNL     1     -44.718  58.065 -55.600  1.00  0.00     0.014 A 
HETATM   14  C   UNL     1     -45.117  57.570 -54.353  1.00  0.00     0.031 A 
HETATM   15  C   UNL     1     -41.076  57.427 -50.202  1.00  0.00     0.129 C 
HETATM   16  C   UNL     1     -40.662  56.019 -49.829  1.00  0.00     0.048 C 
HETATM   17  H   UNL     1     -45.700  56.818 -51.979  1.00  0.00     0.169 HD
ENDROOT
BRANCH   1  18
HETATM   18  N   UNL     1     -41.175  53.872 -50.965  1.00  0.00    -0.336 N 
HETATM   19  C   UNL     1     -41.026  53.426 -52.240  1.00  0.00     0.316 C 
HETATM   20  N   UNL     1     -41.440  54.266 -53.228  1.00  0.00    -0.339 N 
HETATM   21  O   UNL     1     -40.594  52.295 -52.427  1.00  0.00    -0.247 OA
HETATM   22  H   UNL     1     -41.400  55.253 -53.029  1.00  0.00     0.164 HD
HETATM   23  H   UNL     1     -40.862  53.180 -50.294  1.00  0.00     0.164 HD
BRANCH  20  24
HETATM   24  C   UNL     1     -41.481  53.915 -54.643  1.00  0.00     0.078 C 
HETATM   25  C   UNL     1     -40.129  54.104 -55.331  1.00  0.00     0.032 C 
HETATM   26  C   UNL     1     -42.599  54.637 -55.387  1.00  0.00     0.032 C 
ENDBRANCH  20  24
ENDBRANCH   1  18
BRANCH  12  27
HETATM   27  C   UNL     1     -42.969  59.028 -57.129  1.00  0.00     0.009 A 
HETATM   28  C   UNL     1     -43.062  60.390 -57.505  1.00  0.00     0.079 A 
HETATM   29  C   UNL     1     -42.657  60.789 -58.785  1.00  0.00     0.039 A 
HETATM   30  C   UNL     1     -42.160  59.854 -59.697  1.00  0.00     0.026 A 
HETATM   31  C   UNL     1     -42.064  58.516 -59.332  1.00  0.00     0.035 A 
HETATM   32 CL   UNL     1     -41.457  57.365 -60.456  1.00  0.00    -0.084 Cl
HETATM   33  C   UNL     1     -42.461  58.103 -58.062  1.00  0.00     0.039 A 
BRANCH  28  34
HETATM   34  O   UNL     1     -43.583  61.244 -56.565  1.00  0.00    -0.355 OA
HETATM   35  C   UNL     1     -44.823  61.875 -56.854  1.00  0.00     0.210 C 
ENDBRANCH  28  34
ENDBRANCH  12  27
TORSDOF 4
ENDMDL
MODEL 8
REMARK VINA RESULT:      -7.9      2.413      3.206
REMARK  4 active torsions:
REMARK  status: ('A' for Active; 'I' for Inactive)
REMARK    1  A    between atoms: C_2  and  N_3 
REMARK       I    between atoms: N_3  and  C_4 
REMARK       I    between atoms: C_4  and  N_5 
REMARK    2  A    between atoms: N_5  and  C_6 
REMARK    3  A    between atoms: C_17  and  C_18 
REMARK    4  A    between atoms: C_19  and  O_20 
ROOT
HETATM    1  C   UNL     1     -45.337  60.495 -54.587  1.00  0.00     0.120 C 
HETATM    2  C   UNL     1     -44.624  59.130 -54.691  1.00  0.00     0.202 C 
HETATM    3  N   UNL     1     -43.209  59.453 -54.675  1.00  0.00    -0.332 N 
HETATM    4  C   UNL     1     -42.194  58.560 -54.463  1.00  0.00     0.257 C 
HETATM    5  O   UNL     1     -41.020  58.903 -54.363  1.00  0.00    -0.267 OA
HETATM    6  C   UNL     1     -42.543  57.124 -54.341  1.00  0.00     0.059 A 
HETATM    7  C   UNL     1     -43.470  56.472 -55.171  1.00  0.00     0.050 A 
HETATM    8  N   UNL     1     -44.336  57.106 -56.088  1.00  0.00    -0.324 N 
HETATM    9  C   UNL     1     -44.904  58.357 -55.980  1.00  0.00     0.247 C 
HETATM   10  O   UNL     1     -45.692  58.737 -56.845  1.00  0.00    -0.271 OA
HETATM   11  C   UNL     1     -41.781  56.387 -53.418  1.00  0.00     0.031 A 
HETATM   12  C   UNL     1     -41.923  54.998 -53.296  1.00  0.00    -0.022 A 
HETATM   13  C   UNL     1     -42.805  54.353 -54.173  1.00  0.00     0.014 A 
HETATM   14  C   UNL     1     -43.557  55.076 -55.106  1.00  0.00     0.031 A 
HETATM   15  C   UNL     1     -42.975  60.841 -55.003  1.00  0.00     0.129 C 
HETATM   16  C   UNL     1     -44.221  61.553 -54.518  1.00  0.00     0.048 C 
HETATM   17  H   UNL     1     -44.754  56.548 -56.823  1.00  0.00     0.169 HD
ENDROOT
BRANCH   1  18
HETATM   18  N   UNL     1     -46.255  60.614 -53.447  1.00  0.00    -0.336 N 
HETATM   19  C   UNL     1     -46.027  60.821 -52.123  1.00  0.00     0.316 C 
HETATM   20  N   UNL     1     -44.729  60.990 -51.751  1.00  0.00    -0.339 N 
HETATM   21  O   UNL     1     -46.973  60.785 -51.345  1.00  0.00    -0.247 OA
HETATM   22  H   UNL     1     -44.110  61.387 -52.439  1.00  0.00     0.164 HD
HETATM   23  H   UNL     1     -47.242  60.478 -53.634  1.00  0.00     0.164 HD
BRANCH  20  24
HETATM   24  C   UNL     1     -44.276  61.094 -50.368  1.00  0.00     0.078 C 
HETATM   25  C   UNL     1     -44.439  62.506 -49.805  1.00  0.00     0.032 C 
HETATM   26  C   UNL     1     -42.856  60.572 -50.183  1.00  0.00     0.032 C 
ENDBRANCH  20  24
ENDBRANCH   1  18
BRANCH  12  27
HETATM   27  C   UNL     1     -41.158  54.255 -52.276  1.00  0.00     0.009 A 
HETATM   28  C   UNL     1     -40.344  53.144 -52.605  1.00  0.00     0.079 A 
HETATM   29  C   UNL     1     -39.669  52.449 -51.593  1.00  0.00     0.039 A 
HETATM   30  C   UNL     1     -39.792  52.843 -50.258  1.00  0.00     0.026 A 
HETATM   31  C   UNL     1     -40.587  53.935 -49.929  1.00  0.00     0.035 A 
HETATM   32 CL   UNL     1     -40.741  54.415 -48.285  1.00  0.00    -0.084 Cl
HETATM   33  C   UNL     1     -41.264  54.637 -50.924  1.00  0.00     0.039 A 
BRANCH  28  34
HETATM   34  O   UNL     1     -40.293  52.802 -53.934  1.00  0.00    -0.355 OA
HETATM   35  C   UNL     1     -40.435  51.430 -54.274  1.00  0.00     0.210 C 
ENDBRANCH  28  34
ENDBRANCH  12  27
TORSDOF 4
ENDMDL
MODEL 9
REMARK VINA RESULT:      -7.9      3.854      5.831
REMARK  4 active torsions:
REMARK  status: ('A' for Active; 'I' for Inactive)
REMARK    1  A    between atoms: C_2  and  N_3 
REMARK       I    between atoms: N_3  and  C_4 
REMARK       I    between atoms: C_4  and  N_5 
REMARK    2  A    between atoms: N_5  and  C_6 
REMARK    3  A    between atoms: C_17  and  C_18 
REMARK    4  A    between atoms: C_19  and  O_20 
ROOT
HETATM    1  C   UNL     1     -42.758  58.894 -58.434  1.00  0.00     0.120 C 
HETATM    2  C   UNL     1     -43.114  58.247 -57.078  1.00  0.00     0.202 C 
HETATM    3  N   UNL     1     -42.992  56.819 -57.309  1.00  0.00    -0.332 N 
HETATM    4  C   UNL     1     -42.935  55.860 -56.334  1.00  0.00     0.257 C 
HETATM    5  O   UNL     1     -42.733  54.675 -56.582  1.00  0.00    -0.267 OA
HETATM    6  C   UNL     1     -43.116  56.286 -54.926  1.00  0.00     0.059 A 
HETATM    7  C   UNL     1     -44.087  57.212 -54.508  1.00  0.00     0.050 A 
HETATM    8  N   UNL     1     -44.881  58.007 -55.361  1.00  0.00    -0.324 N 
HETATM    9  C   UNL     1     -44.540  58.514 -56.595  1.00  0.00     0.247 C 
HETATM   10  O   UNL     1     -45.333  59.246 -57.186  1.00  0.00    -0.271 OA
HETATM   11  C   UNL     1     -42.338  55.601 -53.976  1.00  0.00     0.031 A 
HETATM   12  C   UNL     1     -42.503  55.818 -52.602  1.00  0.00    -0.022 A 
HETATM   13  C   UNL     1     -43.517  56.695 -52.197  1.00  0.00     0.014 A 
HETATM   14  C   UNL     1     -44.307  57.371 -53.134  1.00  0.00     0.031 A 
HETATM   15  C   UNL     1     -43.026  56.502 -58.719  1.00  0.00     0.129 C 
HETATM   16  C   UNL     1     -42.444  57.729 -59.390  1.00  0.00     0.048 C 
HETATM   17  H   UNL     1     -45.726  58.422 -54.986  1.00  0.00     0.169 HD
ENDROOT
BRANCH   1  18
HETATM   18  N   UNL     1     -41.644  59.849 -58.376  1.00  0.00    -0.336 N 
HETATM   19  C   UNL     1     -41.580  61.134 -57.939  1.00  0.00     0.316 C 
HETATM   20  N   UNL     1     -42.726  61.656 -57.420  1.00  0.00    -0.339 N 
HETATM   21  O   UNL     1     -40.538  61.761 -58.087  1.00  0.00    -0.247 OA
HETATM   22  H   UNL     1     -43.363  61.006 -56.989  1.00  0.00     0.164 HD
HETATM   23  H   UNL     1     -40.758  59.547 -58.764  1.00  0.00     0.164 HD
BRANCH  20  24
HETATM   24  C   UNL     1     -42.888  63.049 -57.021  1.00  0.00     0.078 C 
HETATM   25  C   UNL     1     -43.751  63.201 -55.768  1.00  0.00     0.032 C 
HETATM   26  C   UNL     1     -43.392  63.924 -58.163  1.00  0.00     0.032 C 
ENDBRANCH  20  24
ENDBRANCH   1  18
BRANCH  12  27
HETATM   27  C   UNL     1     -41.631  55.133 -51.627  1.00  0.00     0.009 A 
HETATM   28  C   UNL     1     -41.120  55.791 -50.482  1.00  0.00     0.079 A 
HETATM   29  C   UNL     1     -40.264  55.107 -49.609  1.00  0.00     0.039 A 
HETATM   30  C   UNL     1     -39.911  53.778 -49.856  1.00  0.00     0.026 A 
HETATM   31  C   UNL     1     -40.413  53.126 -50.977  1.00  0.00     0.035 A 
HETATM   32 CL   UNL     1     -39.974  51.492 -51.283  1.00  0.00    -0.084 Cl
HETATM   33  C   UNL     1     -41.266  53.792 -51.855  1.00  0.00     0.039 A 
BRANCH  28  34
HETATM   34  O   UNL     1     -41.491  57.103 -50.320  1.00  0.00    -0.355 OA
HETATM   35  C   UNL     1     -40.525  58.107 -50.600  1.00  0.00     0.210 C 
ENDBRANCH  28  34
ENDBRANCH  12  27
TORSDOF 4
ENDMDL
MODEL 10
REMARK VINA RESULT:      -7.7     17.535     20.485
REMARK  4 active torsions:
REMARK  status: ('A' for Active; 'I' for Inactive)
REMARK    1  A    between atoms: C_2  and  N_3 
REMARK       I    between atoms: N_3  and  C_4 
REMARK       I    between atoms: C_4  and  N_5 
REMARK    2  A    between atoms: N_5  and  C_6 
REMARK    3  A    between atoms: C_17  and  C_18 
REMARK    4  A    between atoms: C_19  and  O_20 
ROOT
HETATM    1  C   UNL     1     -36.895  40.102 -56.648  1.00  0.00     0.120 C 
HETATM    2  C   UNL     1     -35.740  40.277 -55.639  1.00  0.00     0.202 C 
HETATM    3  N   UNL     1     -36.273  41.163 -54.621  1.00  0.00    -0.332 N 
HETATM    4  C   UNL     1     -35.719  41.378 -53.388  1.00  0.00     0.257 C 
HETATM    5  O   UNL     1     -36.264  42.064 -52.528  1.00  0.00    -0.267 OA
HETATM    6  C   UNL     1     -34.413  40.744 -53.090  1.00  0.00     0.059 A 
HETATM    7  C   UNL     1     -33.342  40.697 -53.998  1.00  0.00     0.050 A 
HETATM    8  N   UNL     1     -33.406  41.056 -55.361  1.00  0.00    -0.324 N 
HETATM    9  C   UNL     1     -34.485  40.936 -56.210  1.00  0.00     0.247 C 
HETATM   10  O   UNL     1     -34.354  41.241 -57.395  1.00  0.00    -0.271 OA
HETATM   11  C   UNL     1     -34.240  40.295 -51.770  1.00  0.00     0.031 A 
HETATM   12  C   UNL     1     -33.011  39.791 -51.323  1.00  0.00    -0.022 A 
HETATM   13  C   UNL     1     -31.935  39.809 -52.220  1.00  0.00     0.014 A 
HETATM   14  C   UNL     1     -32.093  40.269 -53.532  1.00  0.00     0.031 A 
HETATM   15  C   UNL     1     -37.436  41.880 -55.094  1.00  0.00     0.129 C 
HETATM   16  C   UNL     1     -38.063  40.945 -56.107  1.00  0.00     0.048 C 
HETATM   17  H   UNL     1     -32.542  41.255 -55.850  1.00  0.00     0.169 HD
ENDROOT
BRANCH   1  18
HETATM   18  N   UNL     1     -37.302  38.708 -56.868  1.00  0.00    -0.336 N 
HETATM   19  C   UNL     1     -37.722  38.055 -57.983  1.00  0.00     0.316 C 
HETATM   20  N   UNL     1     -37.748  38.780 -59.136  1.00  0.00    -0.339 N 
HETATM   21  O   UNL     1     -38.102  36.895 -57.885  1.00  0.00    -0.247 OA
HETATM   22  H   UNL     1     -37.086  39.535 -59.209  1.00  0.00     0.164 HD
HETATM   23  H   UNL     1     -37.332  38.104 -56.054  1.00  0.00     0.164 HD
BRANCH  20  24
HETATM   24  C   UNL     1     -38.287  38.294 -60.401  1.00  0.00     0.078 C 
HETATM   25  C   UNL     1     -37.753  39.075 -61.601  1.00  0.00     0.032 C 
HETATM   26  C   UNL     1     -39.811  38.236 -60.397  1.00  0.00     0.032 C 
ENDBRANCH  20  24
ENDBRANCH   1  18
BRANCH  12  27
HETATM   27  C   UNL     1     -32.871  39.266 -49.950  1.00  0.00     0.009 A 
HETATM   28  C   UNL     1     -33.712  38.244 -49.446  1.00  0.00     0.079 A 
HETATM   29  C   UNL     1     -33.564  37.809 -48.122  1.00  0.00     0.039 A 
HETATM   30  C   UNL     1     -32.591  38.375 -47.294  1.00  0.00     0.026 A 
HETATM   31  C   UNL     1     -31.761  39.376 -47.785  1.00  0.00     0.035 A 
HETATM   32 CL   UNL     1     -30.568  40.074 -46.763  1.00  0.00    -0.084 Cl
HETATM   33  C   UNL     1     -31.895  39.819 -49.099  1.00  0.00     0.039 A 
BRANCH  28  34
HETATM   34  O   UNL     1     -34.659  37.756 -50.311  1.00  0.00    -0.355 OA
HETATM   35  C   UNL     1     -35.966  37.521 -49.804  1.00  0.00     0.210 C 
ENDBRANCH  28  34
ENDBRANCH  12  27
TORSDOF 4
ENDMDL
