MODEL 1
REMARK VINA RESULT:      -8.6      0.000      0.000
REMARK  5 active torsions:
REMARK  status: ('A' for Active; 'I' for Inactive)
REMARK    1  A    between atoms: O_2  and  C_3 
REMARK    2  A    between atoms: C_6  and  C_7 
REMARK    3  A    between atoms: C_7  and  C_8 
REMARK       I    between atoms: C_8  and  N_9 
REMARK    4  A    between atoms: N_9  and  C_10 
REMARK    5  A    between atoms: C_13  and  C_14 
ROOT
HETATM    1  C   UNL     1     -43.166  56.190 -57.664  1.00  0.00     0.034 A 
HETATM    2  C   UNL     1     -43.518  55.503 -58.826  1.00  0.00     0.030 A 
HETATM    3  C   UNL     1     -44.590  55.940 -59.615  1.00  0.00     0.017 A 
HETATM    4  C   UNL     1     -45.324  57.075 -59.258  1.00  0.00     0.010 A 
HETATM    5  C   UNL     1     -45.002  57.744 -58.072  1.00  0.00     0.017 A 
HETATM    6  C   UNL     1     -43.928  57.304 -57.285  1.00  0.00     0.030 A 
ENDROOT
BRANCH   1   7
HETATM    7  N   UNL     1     -42.055  55.856 -56.860  1.00  0.00    -0.327 N 
HETATM    8  C   UNL     1     -41.983  54.855 -55.904  1.00  0.00     0.226 C 
HETATM    9  O   UNL     1     -42.918  54.177 -55.489  1.00  0.00    -0.273 OA
HETATM   10  H   UNL     1     -41.220  56.413 -56.992  1.00  0.00     0.169 HD
BRANCH   8  11
HETATM   11  C   UNL     1     -40.569  54.622 -55.394  1.00  0.00     0.141 C 
BRANCH  11  12
HETATM   12  C   UNL     1     -40.473  53.724 -54.185  1.00  0.00    -0.049 A 
HETATM   13  C   UNL     1     -39.989  52.413 -54.281  1.00  0.00     0.010 A 
HETATM   14  C   UNL     1     -39.846  51.615 -53.140  1.00  0.00     0.037 A 
HETATM   15  C   UNL     1     -40.166  52.123 -51.882  1.00  0.00     0.068 A 
HETATM   16  C   UNL     1     -40.634  53.435 -51.779  1.00  0.00     0.037 A 
HETATM   17  C   UNL     1     -40.783  54.232 -52.916  1.00  0.00     0.010 A 
BRANCH  15  18
HETATM   18  O   UNL     1     -40.060  51.459 -50.692  1.00  0.00    -0.356 OA
HETATM   19  C   UNL     1     -39.748  50.073 -50.754  1.00  0.00     0.210 C 
ENDBRANCH  15  18
ENDBRANCH  11  12
ENDBRANCH   8  11
ENDBRANCH   1   7
BRANCH   4  20
HETATM   20  C   UNL     1     -46.405  57.536 -60.176  1.00  0.00     0.141 A 
HETATM   21  N   UNL     1     -46.940  58.708 -60.030  1.00  0.00    -0.230 NA
HETATM   22  C   UNL     1     -47.987  59.082 -60.888  1.00  0.00     0.074 A 
HETATM   23  C   UNL     1     -48.481  58.238 -61.885  1.00  0.00     0.061 A 
HETATM   24  C   UNL     1     -48.576  60.338 -60.727  1.00  0.00     0.032 A 
HETATM   25  C   UNL     1     -47.852  56.915 -62.019  1.00  0.00     0.259 A 
HETATM   26  C   UNL     1     -49.542  58.625 -62.709  1.00  0.00     0.019 A 
HETATM   27  O   UNL     1     -48.224  56.092 -62.847  1.00  0.00    -0.267 OA
HETATM   28  N   UNL     1     -46.827  56.652 -61.146  1.00  0.00    -0.307 N 
HETATM   29  H   UNL     1     -46.452  55.719 -61.214  1.00  0.00     0.170 HD
HETATM   30  C   UNL     1     -50.122  59.880 -62.535  1.00  0.00     0.001 A 
HETATM   31  C   UNL     1     -49.638  60.737 -61.545  1.00  0.00     0.002 A 
ENDBRANCH   4  20
TORSDOF 5
ENDMDL
MODEL 2
REMARK VINA RESULT:      -8.5     17.198     22.623
REMARK  5 active torsions:
REMARK  status: ('A' for Active; 'I' for Inactive)
REMARK    1  A    between atoms: O_2  and  C_3 
REMARK    2  A    between atoms: C_6  and  C_7 
REMARK    3  A    between atoms: C_7  and  C_8 
REMARK       I    between atoms: C_8  and  N_9 
REMARK    4  A    between atoms: N_9  and  C_10 
REMARK    5  A    between atoms: C_13  and  C_14 
ROOT
HETATM    1  C   UNL     1     -33.814  40.711 -52.573  1.00  0.00     0.034 A 
HETATM    2  C   UNL     1     -34.672  40.337 -51.538  1.00  0.00     0.030 A 
HETATM    3  C   UNL     1     -34.159  39.925 -50.302  1.00  0.00     0.017 A 
HETATM    4  C   UNL     1     -32.779  39.889 -50.077  1.00  0.00     0.010 A 
HETATM    5  C   UNL     1     -31.913  40.225 -51.123  1.00  0.00     0.017 A 
HETATM    6  C   UNL     1     -32.431  40.636 -52.360  1.00  0.00     0.030 A 
ENDROOT
BRANCH   1   7
HETATM    7  N   UNL     1     -34.256  41.207 -53.818  1.00  0.00    -0.327 N 
HETATM    8  C   UNL     1     -35.206  42.191 -54.040  1.00  0.00     0.226 C 
HETATM    9  O   UNL     1     -35.934  42.703 -53.194  1.00  0.00    -0.273 OA
HETATM   10  H   UNL     1     -33.835  40.794 -54.642  1.00  0.00     0.169 HD
BRANCH   8  11
HETATM   11  C   UNL     1     -35.269  42.641 -55.491  1.00  0.00     0.141 C 
BRANCH  11  12
HETATM   12  C   UNL     1     -36.182  41.822 -56.369  1.00  0.00    -0.049 A 
HETATM   13  C   UNL     1     -37.474  41.468 -55.958  1.00  0.00     0.010 A 
HETATM   14  C   UNL     1     -38.331  40.763 -56.811  1.00  0.00     0.037 A 
HETATM   15  C   UNL     1     -37.916  40.417 -58.095  1.00  0.00     0.068 A 
HETATM   16  C   UNL     1     -36.635  40.781 -58.516  1.00  0.00     0.037 A 
HETATM   17  C   UNL     1     -35.776  41.480 -57.667  1.00  0.00     0.010 A 
BRANCH  15  18
HETATM   18  O   UNL     1     -38.655  39.745 -59.029  1.00  0.00    -0.356 OA
HETATM   19  C   UNL     1     -37.960  39.261 -60.172  1.00  0.00     0.210 C 
ENDBRANCH  15  18
ENDBRANCH  11  12
ENDBRANCH   8  11
ENDBRANCH   1   7
BRANCH   4  20
HETATM   20  C   UNL     1     -32.293  39.516 -48.716  1.00  0.00     0.141 A 
HETATM   21  N   UNL     1     -31.366  40.209 -48.134  1.00  0.00    -0.230 NA
HETATM   22  C   UNL     1     -30.906  39.794 -46.873  1.00  0.00     0.074 A 
HETATM   23  C   UNL     1     -31.402  38.660 -46.228  1.00  0.00     0.061 A 
HETATM   24  C   UNL     1     -29.898  40.529 -46.247  1.00  0.00     0.032 A 
HETATM   25  C   UNL     1     -32.452  37.897 -46.920  1.00  0.00     0.259 A 
HETATM   26  C   UNL     1     -30.909  38.254 -44.984  1.00  0.00     0.019 A 
HETATM   27  O   UNL     1     -32.939  36.876 -46.450  1.00  0.00    -0.267 OA
HETATM   28  N   UNL     1     -32.844  38.393 -48.137  1.00  0.00    -0.307 N 
HETATM   29  H   UNL     1     -33.518  37.822 -48.621  1.00  0.00     0.170 HD
HETATM   30  C   UNL     1     -29.901  38.996 -44.372  1.00  0.00     0.001 A 
HETATM   31  C   UNL     1     -29.396  40.134 -45.003  1.00  0.00     0.002 A 
ENDBRANCH   4  20
TORSDOF 5
ENDMDL
MODEL 3
REMARK VINA RESULT:      -8.4      7.683     11.846
REMARK  5 active torsions:
REMARK  status: ('A' for Active; 'I' for Inactive)
REMARK    1  A    between atoms: O_2  and  C_3 
REMARK    2  A    between atoms: C_6  and  C_7 
REMARK    3  A    between atoms: C_7  and  C_8 
REMARK       I    between atoms: C_8  and  N_9 
REMARK    4  A    between atoms: N_9  and  C_10 
REMARK    5  A    between atoms: C_13  and  C_14 
ROOT
HETATM    1  C   UNL     1     -43.620  58.815 -51.135  1.00  0.00     0.034 A 
HETATM    2  C   UNL     1     -44.281  57.659 -51.549  1.00  0.00     0.030 A 
HETATM    3  C   UNL     1     -43.569  56.473 -51.775  1.00  0.00     0.017 A 
HETATM    4  C   UNL     1     -42.184  56.423 -51.583  1.00  0.00     0.010 A 
HETATM    5  C   UNL     1     -41.511  57.590 -51.207  1.00  0.00     0.017 A 
HETATM    6  C   UNL     1     -42.228  58.775 -50.982  1.00  0.00     0.030 A 
ENDROOT
BRANCH   1   7
HETATM    7  N   UNL     1     -44.276  60.023 -50.817  1.00  0.00    -0.327 N 
HETATM    8  C   UNL     1     -45.435  60.177 -50.072  1.00  0.00     0.226 C 
HETATM    9  O   UNL     1     -46.173  59.277 -49.681  1.00  0.00    -0.273 OA
HETATM   10  H   UNL     1     -43.856  60.872 -51.176  1.00  0.00     0.169 HD
BRANCH   8  11
HETATM   11  C   UNL     1     -45.733  61.628 -49.728  1.00  0.00     0.141 C 
BRANCH  11  12
HETATM   12  C   UNL     1     -45.561  61.982 -48.272  1.00  0.00    -0.049 A 
HETATM   13  C   UNL     1     -45.105  61.043 -47.337  1.00  0.00     0.010 A 
HETATM   14  C   UNL     1     -44.889  61.406 -46.002  1.00  0.00     0.037 A 
HETATM   15  C   UNL     1     -45.109  62.718 -45.587  1.00  0.00     0.068 A 
HETATM   16  C   UNL     1     -45.548  63.661 -46.518  1.00  0.00     0.037 A 
HETATM   17  C   UNL     1     -45.769  63.302 -47.849  1.00  0.00     0.010 A 
BRANCH  15  18
HETATM   18  O   UNL     1     -44.925  63.206 -44.322  1.00  0.00    -0.356 OA
HETATM   19  C   UNL     1     -44.085  62.450 -43.458  1.00  0.00     0.210 C 
ENDBRANCH  15  18
ENDBRANCH  11  12
ENDBRANCH   8  11
ENDBRANCH   1   7
BRANCH   4  20
HETATM   20  C   UNL     1     -41.492  55.115 -51.765  1.00  0.00     0.141 A 
HETATM   21  N   UNL     1     -41.320  54.619 -52.950  1.00  0.00    -0.230 NA
HETATM   22  C   UNL     1     -40.705  53.362 -53.071  1.00  0.00     0.074 A 
HETATM   23  C   UNL     1     -40.279  52.623 -51.965  1.00  0.00     0.061 A 
HETATM   24  C   UNL     1     -40.529  52.816 -54.344  1.00  0.00     0.032 A 
HETATM   25  C   UNL     1     -40.493  53.216 -50.636  1.00  0.00     0.259 A 
HETATM   26  C   UNL     1     -39.692  51.362 -52.112  1.00  0.00     0.019 A 
HETATM   27  O   UNL     1     -40.175  52.642 -49.602  1.00  0.00    -0.267 OA
HETATM   28  N   UNL     1     -41.086  54.454 -50.626  1.00  0.00    -0.307 N 
HETATM   29  H   UNL     1     -41.279  54.814 -49.705  1.00  0.00     0.170 HD
HETATM   30  C   UNL     1     -39.526  50.829 -53.389  1.00  0.00     0.001 A 
HETATM   31  C   UNL     1     -39.943  51.556 -54.504  1.00  0.00     0.002 A 
ENDBRANCH   4  20
TORSDOF 5
ENDMDL
MODEL 4
REMARK VINA RESULT:      -8.2     17.159     22.609
REMARK  5 active torsions:
REMARK  status: ('A' for Active; 'I' for Inactive)
REMARK    1  A    between atoms: O_2  and  C_3 
REMARK    2  A    between atoms: C_6  and  C_7 
REMARK    3  A    between atoms: C_7  and  C_8 
REMARK       I    between atoms: C_8  and  N_9 
REMARK    4  A    between atoms: N_9  and  C_10 
REMARK    5  A    between atoms: C_13  and  C_14 
ROOT
HETATM    1  C   UNL     1     -33.883  40.662 -52.662  1.00  0.00     0.034 A 
HETATM    2  C   UNL     1     -34.741  40.288 -51.628  1.00  0.00     0.030 A 
HETATM    3  C   UNL     1     -34.229  39.863 -50.395  1.00  0.00     0.017 A 
HETATM    4  C   UNL     1     -32.849  39.813 -50.174  1.00  0.00     0.010 A 
HETATM    5  C   UNL     1     -31.983  40.148 -51.220  1.00  0.00     0.017 A 
HETATM    6  C   UNL     1     -32.501  40.572 -52.453  1.00  0.00     0.030 A 
ENDROOT
BRANCH   1   7
HETATM    7  N   UNL     1     -34.323  41.170 -53.903  1.00  0.00    -0.327 N 
HETATM    8  C   UNL     1     -35.274  42.156 -54.115  1.00  0.00     0.226 C 
HETATM    9  O   UNL     1     -36.003  42.659 -53.265  1.00  0.00    -0.273 OA
HETATM   10  H   UNL     1     -33.901  40.766 -54.730  1.00  0.00     0.169 HD
BRANCH   8  11
HETATM   11  C   UNL     1     -35.335  42.621 -55.562  1.00  0.00     0.141 C 
BRANCH  11  12
HETATM   12  C   UNL     1     -36.238  41.803 -56.452  1.00  0.00    -0.049 A 
HETATM   13  C   UNL     1     -37.230  40.967 -55.923  1.00  0.00     0.010 A 
HETATM   14  C   UNL     1     -38.101  40.265 -56.765  1.00  0.00     0.037 A 
HETATM   15  C   UNL     1     -38.005  40.403 -58.148  1.00  0.00     0.068 A 
HETATM   16  C   UNL     1     -37.028  41.247 -58.681  1.00  0.00     0.037 A 
HETATM   17  C   UNL     1     -36.155  41.945 -57.844  1.00  0.00     0.010 A 
BRANCH  15  18
HETATM   18  O   UNL     1     -38.798  39.789 -59.078  1.00  0.00    -0.356 OA
HETATM   19  C   UNL     1     -38.141  39.009 -60.068  1.00  0.00     0.210 C 
ENDBRANCH  15  18
ENDBRANCH  11  12
ENDBRANCH   8  11
ENDBRANCH   1   7
BRANCH   4  20
HETATM   20  C   UNL     1     -32.364  39.426 -48.818  1.00  0.00     0.141 A 
HETATM   21  N   UNL     1     -32.998  38.539 -48.118  1.00  0.00    -0.230 NA
HETATM   22  C   UNL     1     -32.533  38.240 -46.827  1.00  0.00     0.074 A 
HETATM   23  C   UNL     1     -31.419  38.868 -46.265  1.00  0.00     0.061 A 
HETATM   24  C   UNL     1     -33.220  37.294 -46.063  1.00  0.00     0.032 A 
HETATM   25  C   UNL     1     -30.725  39.871 -47.087  1.00  0.00     0.259 A 
HETATM   26  C   UNL     1     -30.991  38.570 -44.967  1.00  0.00     0.019 A 
HETATM   27  O   UNL     1     -29.752  40.493 -46.681  1.00  0.00    -0.267 OA
HETATM   28  N   UNL     1     -31.248  40.079 -48.339  1.00  0.00    -0.307 N 
HETATM   29  H   UNL     1     -30.796  40.812 -48.861  1.00  0.00     0.170 HD
HETATM   30  C   UNL     1     -31.689  37.626 -44.216  1.00  0.00     0.001 A 
HETATM   31  C   UNL     1     -32.802  36.988 -44.764  1.00  0.00     0.002 A 
ENDBRANCH   4  20
TORSDOF 5
ENDMDL
MODEL 5
REMARK VINA RESULT:      -8.2      1.452      2.012
REMARK  5 active torsions:
REMARK  status: ('A' for Active; 'I' for Inactive)
REMARK    1  A    between atoms: O_2  and  C_3 
REMARK    2  A    between atoms: C_6  and  C_7 
REMARK    3  A    between atoms: C_7  and  C_8 
REMARK       I    between atoms: C_8  and  N_9 
REMARK    4  A    between atoms: N_9  and  C_10 
REMARK    5  A    between atoms: C_13  and  C_14 
ROOT
HETATM    1  C   UNL     1     -42.813  56.345 -56.947  1.00  0.00     0.034 A 
HETATM    2  C   UNL     1     -43.096  55.785 -58.193  1.00  0.00     0.030 A 
HETATM    3  C   UNL     1     -44.146  56.283 -58.976  1.00  0.00     0.017 A 
HETATM    4  C   UNL     1     -44.926  57.354 -58.528  1.00  0.00     0.010 A 
HETATM    5  C   UNL     1     -44.673  57.893 -57.262  1.00  0.00     0.017 A 
HETATM    6  C   UNL     1     -43.620  57.392 -56.482  1.00  0.00     0.030 A 
ENDROOT
BRANCH   1   7
HETATM    7  N   UNL     1     -41.728  55.949 -56.136  1.00  0.00    -0.327 N 
HETATM    8  C   UNL     1     -41.727  54.966 -55.160  1.00  0.00     0.226 C 
HETATM    9  O   UNL     1     -42.708  54.366 -54.730  1.00  0.00    -0.273 OA
HETATM   10  H   UNL     1     -40.854  56.441 -56.281  1.00  0.00     0.169 HD
BRANCH   8  11
HETATM   11  C   UNL     1     -40.333  54.641 -54.645  1.00  0.00     0.141 C 
BRANCH  11  12
HETATM   12  C   UNL     1     -40.196  53.283 -54.002  1.00  0.00    -0.049 A 
HETATM   13  C   UNL     1     -40.103  52.114 -54.769  1.00  0.00     0.010 A 
HETATM   14  C   UNL     1     -39.911  50.869 -54.159  1.00  0.00     0.037 A 
HETATM   15  C   UNL     1     -39.790  50.776 -52.773  1.00  0.00     0.068 A 
HETATM   16  C   UNL     1     -39.866  51.940 -52.006  1.00  0.00     0.037 A 
HETATM   17  C   UNL     1     -40.062  53.183 -52.611  1.00  0.00     0.010 A 
BRANCH  15  18
HETATM   18  O   UNL     1     -39.587  49.630 -52.055  1.00  0.00    -0.356 OA
HETATM   19  C   UNL     1     -39.642  49.741 -50.639  1.00  0.00     0.210 C 
ENDBRANCH  15  18
ENDBRANCH  11  12
ENDBRANCH   8  11
ENDBRANCH   1   7
BRANCH   4  20
HETATM   20  C   UNL     1     -45.981  57.890 -59.436  1.00  0.00     0.141 A 
HETATM   21  N   UNL     1     -46.588  57.109 -60.274  1.00  0.00    -0.230 NA
HETATM   22  C   UNL     1     -47.540  57.666 -61.144  1.00  0.00     0.074 A 
HETATM   23  C   UNL     1     -47.852  59.028 -61.146  1.00  0.00     0.061 A 
HETATM   24  C   UNL     1     -48.189  56.833 -62.058  1.00  0.00     0.032 A 
HETATM   25  C   UNL     1     -47.141  59.883 -60.184  1.00  0.00     0.259 A 
HETATM   26  C   UNL     1     -48.786  59.561 -62.040  1.00  0.00     0.019 A 
HETATM   27  O   UNL     1     -47.325  61.092 -60.119  1.00  0.00    -0.267 OA
HETATM   28  N   UNL     1     -46.243  59.241 -59.368  1.00  0.00    -0.307 N 
HETATM   29  H   UNL     1     -45.723  59.853 -58.760  1.00  0.00     0.170 HD
HETATM   30  C   UNL     1     -49.423  58.718 -62.949  1.00  0.00     0.001 A 
HETATM   31  C   UNL     1     -49.125  57.354 -62.957  1.00  0.00     0.002 A 
ENDBRANCH   4  20
TORSDOF 5
ENDMDL
MODEL 6
REMARK VINA RESULT:      -8.2      7.743     11.865
REMARK  5 active torsions:
REMARK  status: ('A' for Active; 'I' for Inactive)
REMARK    1  A    between atoms: O_2  and  C_3 
REMARK    2  A    between atoms: C_6  and  C_7 
REMARK    3  A    between atoms: C_7  and  C_8 
REMARK       I    between atoms: C_8  and  N_9 
REMARK    4  A    between atoms: N_9  and  C_10 
REMARK    5  A    between atoms: C_13  and  C_14 
ROOT
HETATM    1  C   UNL     1     -41.700  58.249 -51.470  1.00  0.00     0.034 A 
HETATM    2  C   UNL     1     -41.485  57.447 -50.350  1.00  0.00     0.030 A 
HETATM    3  C   UNL     1     -41.180  56.087 -50.495  1.00  0.00     0.017 A 
HETATM    4  C   UNL     1     -41.079  55.509 -51.764  1.00  0.00     0.010 A 
HETATM    5  C   UNL     1     -41.333  56.299 -52.890  1.00  0.00     0.017 A 
HETATM    6  C   UNL     1     -41.638  57.660 -52.740  1.00  0.00     0.030 A 
ENDROOT
BRANCH   1   7
HETATM    7  N   UNL     1     -41.936  59.639 -51.407  1.00  0.00    -0.327 N 
HETATM    8  C   UNL     1     -43.146  60.292 -51.584  1.00  0.00     0.226 C 
HETATM    9  O   UNL     1     -44.196  59.787 -51.969  1.00  0.00    -0.273 OA
HETATM   10  H   UNL     1     -41.132  60.225 -51.216  1.00  0.00     0.169 HD
BRANCH   8  11
HETATM   11  C   UNL     1     -43.084  61.767 -51.218  1.00  0.00     0.141 C 
BRANCH  11  12
HETATM   12  C   UNL     1     -43.728  62.120 -49.901  1.00  0.00    -0.049 A 
HETATM   13  C   UNL     1     -43.918  63.452 -49.510  1.00  0.00     0.010 A 
HETATM   14  C   UNL     1     -44.576  63.763 -48.314  1.00  0.00     0.037 A 
HETATM   15  C   UNL     1     -45.070  62.745 -47.499  1.00  0.00     0.068 A 
HETATM   16  C   UNL     1     -44.898  61.417 -47.892  1.00  0.00     0.037 A 
HETATM   17  C   UNL     1     -44.238  61.103 -49.082  1.00  0.00     0.010 A 
BRANCH  15  18
HETATM   18  O   UNL     1     -45.741  62.910 -46.319  1.00  0.00    -0.356 OA
HETATM   19  C   UNL     1     -45.018  63.502 -45.247  1.00  0.00     0.210 C 
ENDBRANCH  15  18
ENDBRANCH  11  12
ENDBRANCH   8  11
ENDBRANCH   1   7
BRANCH   4  20
HETATM   20  C   UNL     1     -40.677  54.076 -51.859  1.00  0.00     0.141 A 
HETATM   21  N   UNL     1     -40.451  53.529 -53.012  1.00  0.00    -0.230 NA
HETATM   22  C   UNL     1     -40.121  52.164 -53.057  1.00  0.00     0.074 A 
HETATM   23  C   UNL     1     -40.036  51.373 -51.910  1.00  0.00     0.061 A 
HETATM   24  C   UNL     1     -39.889  51.566 -54.298  1.00  0.00     0.032 A 
HETATM   25  C   UNL     1     -40.302  52.026 -50.620  1.00  0.00     0.259 A 
HETATM   26  C   UNL     1     -39.731  50.009 -51.985  1.00  0.00     0.019 A 
HETATM   27  O   UNL     1     -40.275  51.417 -49.557  1.00  0.00    -0.267 OA
HETATM   28  N   UNL     1     -40.599  53.364 -50.681  1.00  0.00    -0.307 N 
HETATM   29  H   UNL     1     -40.838  53.778 -49.794  1.00  0.00     0.170 HD
HETATM   30  C   UNL     1     -39.505  49.426 -53.230  1.00  0.00     0.001 A 
HETATM   31  C   UNL     1     -39.583  50.204 -54.386  1.00  0.00     0.002 A 
ENDBRANCH   4  20
TORSDOF 5
ENDMDL
MODEL 7
REMARK VINA RESULT:      -8.1      2.201     11.209
REMARK  5 active torsions:
REMARK  status: ('A' for Active; 'I' for Inactive)
REMARK    1  A    between atoms: O_2  and  C_3 
REMARK    2  A    between atoms: C_6  and  C_7 
REMARK    3  A    between atoms: C_7  and  C_8 
REMARK       I    between atoms: C_8  and  N_9 
REMARK    4  A    between atoms: N_9  and  C_10 
REMARK    5  A    between atoms: C_13  and  C_14 
ROOT
HETATM    1  C   UNL     1     -42.887  57.021 -56.322  1.00  0.00     0.034 A 
HETATM    2  C   UNL     1     -42.130  57.313 -55.188  1.00  0.00     0.030 A 
HETATM    3  C   UNL     1     -41.587  56.283 -54.409  1.00  0.00     0.017 A 
HETATM    4  C   UNL     1     -41.787  54.943 -54.756  1.00  0.00     0.010 A 
HETATM    5  C   UNL     1     -42.580  54.643 -55.870  1.00  0.00     0.017 A 
HETATM    6  C   UNL     1     -43.121  55.678 -56.647  1.00  0.00     0.030 A 
ENDROOT
BRANCH   1   7
HETATM    7  N   UNL     1     -43.403  58.002 -57.196  1.00  0.00    -0.327 N 
HETATM    8  C   UNL     1     -42.979  58.281 -58.486  1.00  0.00     0.226 C 
HETATM    9  O   UNL     1     -41.987  57.820 -59.042  1.00  0.00    -0.273 OA
HETATM   10  H   UNL     1     -44.163  58.569 -56.840  1.00  0.00     0.169 HD
BRANCH   8  11
HETATM   11  C   UNL     1     -43.904  59.238 -59.222  1.00  0.00     0.141 C 
BRANCH  11  12
HETATM   12  C   UNL     1     -45.128  58.596 -59.827  1.00  0.00    -0.049 A 
HETATM   13  C   UNL     1     -46.139  59.360 -60.424  1.00  0.00     0.010 A 
HETATM   14  C   UNL     1     -47.236  58.745 -61.038  1.00  0.00     0.037 A 
HETATM   15  C   UNL     1     -47.329  57.355 -61.082  1.00  0.00     0.068 A 
HETATM   16  C   UNL     1     -46.316  56.589 -60.503  1.00  0.00     0.037 A 
HETATM   17  C   UNL     1     -45.223  57.199 -59.885  1.00  0.00     0.010 A 
BRANCH  15  18
HETATM   18  O   UNL     1     -48.335  56.631 -61.659  1.00  0.00    -0.356 OA
HETATM   19  C   UNL     1     -49.188  57.323 -62.563  1.00  0.00     0.210 C 
ENDBRANCH  15  18
ENDBRANCH  11  12
ENDBRANCH   8  11
ENDBRANCH   1   7
BRANCH   4  20
HETATM   20  C   UNL     1     -41.122  53.892 -53.933  1.00  0.00     0.141 A 
HETATM   21  N   UNL     1     -40.907  52.711 -54.421  1.00  0.00    -0.230 NA
HETATM   22  C   UNL     1     -40.320  51.738 -53.595  1.00  0.00     0.074 A 
HETATM   23  C   UNL     1     -39.968  51.991 -52.267  1.00  0.00     0.061 A 
HETATM   24  C   UNL     1     -40.097  50.459 -54.111  1.00  0.00     0.032 A 
HETATM   25  C   UNL     1     -40.230  53.341 -51.747  1.00  0.00     0.259 A 
HETATM   26  C   UNL     1     -39.409  50.997 -51.458  1.00  0.00     0.019 A 
HETATM   27  O   UNL     1     -39.979  53.660 -50.592  1.00  0.00    -0.267 OA
HETATM   28  N   UNL     1     -40.790  54.223 -52.637  1.00  0.00    -0.307 N 
HETATM   29  H   UNL     1     -41.017  55.122 -52.244  1.00  0.00     0.170 HD
HETATM   30  C   UNL     1     -39.195  49.724 -51.986  1.00  0.00     0.001 A 
HETATM   31  C   UNL     1     -39.538  49.456 -53.312  1.00  0.00     0.002 A 
ENDBRANCH   4  20
TORSDOF 5
ENDMDL
MODEL 8
REMARK VINA RESULT:      -8.0      1.729      2.553
REMARK  5 active torsions:
REMARK  status: ('A' for Active; 'I' for Inactive)
REMARK    1  A    between atoms: O_2  and  C_3 
REMARK    2  A    between atoms: C_6  and  C_7 
REMARK    3  A    between atoms: C_7  and  C_8 
REMARK       I    between atoms: C_8  and  N_9 
REMARK    4  A    between atoms: N_9  and  C_10 
REMARK    5  A    between atoms: C_13  and  C_14 
ROOT
HETATM    1  C   UNL     1     -42.751  57.040 -55.218  1.00  0.00     0.034 A 
HETATM    2  C   UNL     1     -43.700  58.062 -55.184  1.00  0.00     0.030 A 
HETATM    3  C   UNL     1     -44.490  58.339 -56.307  1.00  0.00     0.017 A 
HETATM    4  C   UNL     1     -44.348  57.594 -57.482  1.00  0.00     0.010 A 
HETATM    5  C   UNL     1     -43.370  56.594 -57.536  1.00  0.00     0.017 A 
HETATM    6  C   UNL     1     -42.582  56.320 -56.408  1.00  0.00     0.030 A 
ENDROOT
BRANCH   1   7
HETATM    7  N   UNL     1     -41.973  56.653 -54.106  1.00  0.00    -0.327 N 
HETATM    8  C   UNL     1     -42.372  55.867 -53.037  1.00  0.00     0.226 C 
HETATM    9  O   UNL     1     -43.515  55.488 -52.798  1.00  0.00    -0.273 OA
HETATM   10  H   UNL     1     -41.019  56.992 -54.084  1.00  0.00     0.169 HD
BRANCH   8  11
HETATM   11  C   UNL     1     -41.216  55.457 -52.137  1.00  0.00     0.141 C 
BRANCH  11  12
HETATM   12  C   UNL     1     -40.671  54.074 -52.397  1.00  0.00    -0.049 A 
HETATM   13  C   UNL     1     -40.149  53.285 -51.364  1.00  0.00     0.010 A 
HETATM   14  C   UNL     1     -39.707  51.980 -51.612  1.00  0.00     0.037 A 
HETATM   15  C   UNL     1     -39.797  51.439 -52.893  1.00  0.00     0.068 A 
HETATM   16  C   UNL     1     -40.330  52.216 -53.923  1.00  0.00     0.037 A 
HETATM   17  C   UNL     1     -40.768  53.519 -53.680  1.00  0.00     0.010 A 
BRANCH  15  18
HETATM   18  O   UNL     1     -39.415  50.179 -53.266  1.00  0.00    -0.356 OA
HETATM   19  C   UNL     1     -39.758  49.768 -54.583  1.00  0.00     0.210 C 
ENDBRANCH  15  18
ENDBRANCH  11  12
ENDBRANCH   8  11
ENDBRANCH   1   7
BRANCH   4  20
HETATM   20  C   UNL     1     -45.268  57.884 -58.619  1.00  0.00     0.141 A 
HETATM   21  N   UNL     1     -45.369  59.085 -59.096  1.00  0.00    -0.230 NA
HETATM   22  C   UNL     1     -46.283  59.322 -60.136  1.00  0.00     0.074 A 
HETATM   23  C   UNL     1     -47.092  58.317 -60.670  1.00  0.00     0.061 A 
HETATM   24  C   UNL     1     -46.405  60.616 -60.646  1.00  0.00     0.032 A 
HETATM   25  C   UNL     1     -46.952  56.967 -60.102  1.00  0.00     0.259 A 
HETATM   26  C   UNL     1     -48.012  58.585 -61.689  1.00  0.00     0.019 A 
HETATM   27  O   UNL     1     -47.629  56.021 -60.485  1.00  0.00    -0.267 OA
HETATM   28  N   UNL     1     -46.022  56.836 -59.103  1.00  0.00    -0.307 N 
HETATM   29  H   UNL     1     -45.986  55.919 -58.686  1.00  0.00     0.170 HD
HETATM   30  C   UNL     1     -48.125  59.883 -62.185  1.00  0.00     0.001 A 
HETATM   31  C   UNL     1     -47.322  60.897 -61.664  1.00  0.00     0.002 A 
ENDBRANCH   4  20
TORSDOF 5
ENDMDL
MODEL 9
REMARK VINA RESULT:      -7.9      7.725     11.886
REMARK  5 active torsions:
REMARK  status: ('A' for Active; 'I' for Inactive)
REMARK    1  A    between atoms: O_2  and  C_3 
REMARK    2  A    between atoms: C_6  and  C_7 
REMARK    3  A    between atoms: C_7  and  C_8 
REMARK       I    between atoms: C_8  and  N_9 
REMARK    4  A    between atoms: N_9  and  C_10 
REMARK    5  A    between atoms: C_13  and  C_14 
ROOT
HETATM    1  C   UNL     1     -43.817  59.191 -51.300  1.00  0.00     0.034 A 
HETATM    2  C   UNL     1     -42.437  59.027 -51.175  1.00  0.00     0.030 A 
HETATM    3  C   UNL     1     -41.833  57.804 -51.493  1.00  0.00     0.017 A 
HETATM    4  C   UNL     1     -42.599  56.725 -51.947  1.00  0.00     0.010 A 
HETATM    5  C   UNL     1     -43.988  56.871 -52.035  1.00  0.00     0.017 A 
HETATM    6  C   UNL     1     -44.588  58.098 -51.716  1.00  0.00     0.030 A 
ENDROOT
BRANCH   1   7
HETATM    7  N   UNL     1     -44.487  60.412 -51.071  1.00  0.00    -0.327 N 
HETATM    8  C   UNL     1     -45.369  60.704 -50.043  1.00  0.00     0.226 C 
HETATM    9  O   UNL     1     -45.833  59.906 -49.234  1.00  0.00    -0.273 OA
HETATM   10  H   UNL     1     -44.306  61.156 -51.734  1.00  0.00     0.169 HD
BRANCH   8  11
HETATM   11  C   UNL     1     -45.724  62.181 -49.966  1.00  0.00     0.141 C 
BRANCH  11  12
HETATM   12  C   UNL     1     -45.959  62.703 -48.570  1.00  0.00    -0.049 A 
HETATM   13  C   UNL     1     -47.250  62.842 -48.046  1.00  0.00     0.010 A 
HETATM   14  C   UNL     1     -47.448  63.267 -46.727  1.00  0.00     0.037 A 
HETATM   15  C   UNL     1     -46.356  63.541 -45.906  1.00  0.00     0.068 A 
HETATM   16  C   UNL     1     -45.066  63.389 -46.418  1.00  0.00     0.037 A 
HETATM   17  C   UNL     1     -44.865  62.970 -47.735  1.00  0.00     0.010 A 
BRANCH  15  18
HETATM   18  O   UNL     1     -46.408  63.948 -44.601  1.00  0.00    -0.356 OA
HETATM   19  C   UNL     1     -45.176  63.997 -43.893  1.00  0.00     0.210 C 
ENDBRANCH  15  18
ENDBRANCH  11  12
ENDBRANCH   8  11
ENDBRANCH   1   7
BRANCH   4  20
HETATM   20  C   UNL     1     -41.892  55.473 -52.343  1.00  0.00     0.141 A 
HETATM   21  N   UNL     1     -41.545  54.601 -51.448  1.00  0.00    -0.230 NA
HETATM   22  C   UNL     1     -40.839  53.458 -51.860  1.00  0.00     0.074 A 
HETATM   23  C   UNL     1     -40.491  53.229 -53.193  1.00  0.00     0.061 A 
HETATM   24  C   UNL     1     -40.451  52.522 -50.900  1.00  0.00     0.032 A 
HETATM   25  C   UNL     1     -40.899  54.241 -54.179  1.00  0.00     0.259 A 
HETATM   26  C   UNL     1     -39.765  52.095 -53.573  1.00  0.00     0.019 A 
HETATM   27  O   UNL     1     -40.625  54.146 -55.369  1.00  0.00    -0.267 OA
HETATM   28  N   UNL     1     -41.598  55.311 -53.679  1.00  0.00    -0.307 N 
HETATM   29  H   UNL     1     -41.814  56.021 -54.360  1.00  0.00     0.170 HD
HETATM   30  C   UNL     1     -39.382  51.171 -52.602  1.00  0.00     0.001 A 
HETATM   31  C   UNL     1     -39.725  51.384 -51.267  1.00  0.00     0.002 A 
ENDBRANCH   4  20
TORSDOF 5
ENDMDL
MODEL 10
REMARK VINA RESULT:      -7.8     17.293     21.355
REMARK  5 active torsions:
REMARK  status: ('A' for Active; 'I' for Inactive)
REMARK    1  A    between atoms: O_2  and  C_3 
REMARK    2  A    between atoms: C_6  and  C_7 
REMARK    3  A    between atoms: C_7  and  C_8 
REMARK       I    between atoms: C_8  and  N_9 
REMARK    4  A    between atoms: N_9  and  C_10 
REMARK    5  A    between atoms: C_13  and  C_14 
ROOT
HETATM    1  C   UNL     1     -33.492  39.007 -48.998  1.00  0.00     0.034 A 
HETATM    2  C   UNL     1     -34.682  38.784 -49.690  1.00  0.00     0.030 A 
HETATM    3  C   UNL     1     -34.872  39.317 -50.972  1.00  0.00     0.017 A 
HETATM    4  C   UNL     1     -33.871  40.077 -51.585  1.00  0.00     0.010 A 
HETATM    5  C   UNL     1     -32.692  40.339 -50.879  1.00  0.00     0.017 A 
HETATM    6  C   UNL     1     -32.506  39.802 -49.596  1.00  0.00     0.030 A 
ENDROOT
BRANCH   1   7
HETATM    7  N   UNL     1     -33.199  38.442 -47.738  1.00  0.00    -0.327 N 
HETATM    8  C   UNL     1     -32.255  37.467 -47.456  1.00  0.00     0.226 C 
HETATM    9  O   UNL     1     -31.609  36.822 -48.276  1.00  0.00    -0.273 OA
HETATM   10  H   UNL     1     -33.741  38.784 -46.954  1.00  0.00     0.169 HD
BRANCH   8  11
HETATM   11  C   UNL     1     -32.041  37.260 -45.965  1.00  0.00     0.141 C 
BRANCH  11  12
HETATM   12  C   UNL     1     -31.075  38.224 -45.323  1.00  0.00    -0.049 A 
HETATM   13  C   UNL     1     -30.695  39.414 -45.957  1.00  0.00     0.010 A 
HETATM   14  C   UNL     1     -29.848  40.328 -45.320  1.00  0.00     0.037 A 
HETATM   15  C   UNL     1     -29.382  40.075 -44.031  1.00  0.00     0.068 A 
HETATM   16  C   UNL     1     -29.770  38.897 -43.389  1.00  0.00     0.037 A 
HETATM   17  C   UNL     1     -30.611  37.981 -44.023  1.00  0.00     0.010 A 
BRANCH  15  18
HETATM   18  O   UNL     1     -28.565  40.886 -43.293  1.00  0.00    -0.356 OA
HETATM   19  C   UNL     1     -27.743  40.256 -42.320  1.00  0.00     0.210 C 
ENDBRANCH  15  18
ENDBRANCH  11  12
ENDBRANCH   8  11
ENDBRANCH   1   7
BRANCH   4  20
HETATM   20  C   UNL     1     -34.100  40.555 -52.979  1.00  0.00     0.141 A 
HETATM   21  N   UNL     1     -35.256  41.019 -53.336  1.00  0.00    -0.230 NA
HETATM   22  C   UNL     1     -35.440  41.413 -54.672  1.00  0.00     0.074 A 
HETATM   23  C   UNL     1     -34.429  41.316 -55.631  1.00  0.00     0.061 A 
HETATM   24  C   UNL     1     -36.687  41.902 -55.066  1.00  0.00     0.032 A 
HETATM   25  C   UNL     1     -33.132  40.783 -55.190  1.00  0.00     0.259 A 
HETATM   26  C   UNL     1     -34.646  41.692 -56.961  1.00  0.00     0.019 A 
HETATM   27  O   UNL     1     -32.187  40.638 -55.956  1.00  0.00    -0.267 OA
HETATM   28  N   UNL     1     -33.049  40.442 -53.864  1.00  0.00    -0.307 N 
HETATM   29  H   UNL     1     -32.173  40.022 -53.597  1.00  0.00     0.170 HD
HETATM   30  C   UNL     1     -35.898  42.175 -57.340  1.00  0.00     0.001 A 
HETATM   31  C   UNL     1     -36.917  42.281 -56.393  1.00  0.00     0.002 A 
ENDBRANCH   4  20
TORSDOF 5
ENDMDL
