MODEL 1
REMARK VINA RESULT:      -7.7      0.000      0.000
REMARK  8 active torsions:
REMARK  status: ('A' for Active; 'I' for Inactive)
REMARK       I    between atoms: C_2  and  N_3 
REMARK    1  A    between atoms: N_3  and  C_4 
REMARK    2  A    between atoms: C_6  and  C_7 
REMARK    3  A    between atoms: C_7  and  N_8 
REMARK    4  A    between atoms: C_11  and  C_12 
REMARK    5  A    between atoms: C_14  and  S_15 
REMARK    6  A    between atoms: S_15  and  C_16 
REMARK    7  A    between atoms: C_16  and  C_17 
REMARK    8  A    between atoms: C_17  and  N_18 
ROOT
HETATM    1  N   UNL     1     -42.040  59.329 -53.702  1.00  0.00    -0.066 N 
HETATM    2  H   UNL     1     -42.742  58.620 -53.449  1.00  0.00     0.280 HD
HETATM    3  C   UNL     1     -40.732  58.856 -53.102  1.00  0.00     0.246 C 
HETATM    4  C   UNL     1     -40.809  58.721 -51.578  1.00  0.00     0.064 C 
HETATM    5  C   UNL     1     -41.405  59.971 -50.918  1.00  0.00     0.014 C 
HETATM    6  C   UNL     1     -42.679  60.466 -51.594  1.00  0.00     0.028 C 
HETATM    7  C   UNL     1     -42.496  60.635 -53.094  1.00  0.00     0.235 C 
ENDROOT
BRANCH   4   8
HETATM    8  C   UNL     1     -41.509  57.439 -51.141  1.00  0.00     0.044 A 
HETATM    9  N   UNL     1     -40.968  56.697 -50.136  1.00  0.00    -0.227 NA
HETATM   10  C   UNL     1     -41.569  55.504 -49.906  1.00  0.00     0.188 A 
HETATM   11  N   UNL     1     -42.701  55.083 -50.480  1.00  0.00    -0.235 NA
HETATM   12  C   UNL     1     -43.217  55.857 -51.445  1.00  0.00     0.121 A 
HETATM   13  C   UNL     1     -42.648  57.045 -51.828  1.00  0.00     0.047 A 
BRANCH  10  14
HETATM   14  S   UNL     1     -40.802  54.300 -48.847  1.00  0.00    -0.088 SA
BRANCH  14  15
HETATM   15  C   UNL     1     -40.551  52.907 -49.973  1.00  0.00     0.110 C 
BRANCH  15  16
HETATM   16  C   UNL     1     -39.877  53.322 -51.281  1.00  0.00     0.245 C 
BRANCH  16  17
HETATM   17  N   UNL     1     -40.800  53.284 -52.475  1.00  0.00    -0.070 N 
HETATM   18  H   UNL     1     -41.769  53.381 -52.132  1.00  0.00     0.279 HD
HETATM   19  C   UNL     1     -40.707  51.960 -53.226  1.00  0.00     0.235 C 
HETATM   20  C   UNL     1     -39.838  52.289 -54.419  1.00  0.00     0.029 C 
HETATM   21  C   UNL     1     -40.357  53.651 -54.826  1.00  0.00     0.029 C 
HETATM   22  C   UNL     1     -40.550  54.379 -53.508  1.00  0.00     0.235 C 
ENDBRANCH  16  17
ENDBRANCH  15  16
ENDBRANCH  14  15
ENDBRANCH  10  14
ENDBRANCH   4   8
BRANCH   1  23
HETATM   23  C   UNL     1     -41.977  59.422 -55.221  1.00  0.00     0.280 C 
BRANCH  23  24
HETATM   24  C   UNL     1     -42.458  58.179 -55.903  1.00  0.00     0.010 A 
HETATM   25  S   UNL     1     -43.557  58.268 -57.221  1.00  0.00    -0.075 SA
HETATM   26  C   UNL     1     -43.531  56.587 -57.440  1.00  0.00     0.076 A 
HETATM   27  C   UNL     1     -42.797  55.943 -56.476  1.00  0.00     0.038 A 
HETATM   28  C   UNL     1     -42.184  56.866 -55.574  1.00  0.00     0.019 A 
BRANCH  26  29
HETATM   29  N   UNL     1     -44.253  56.134 -58.517  1.00  0.00    -0.322 N 
HETATM   30  C   UNL     1     -43.659  55.781 -59.715  1.00  0.00     0.218 C 
HETATM   31  C   UNL     1     -44.640  55.223 -60.712  1.00  0.00     0.117 C 
HETATM   32  O   UNL     1     -42.478  55.967 -59.998  1.00  0.00    -0.274 OA
HETATM   33  H   UNL     1     -45.265  56.132 -58.442  1.00  0.00     0.169 HD
ENDBRANCH  26  29
ENDBRANCH  23  24
ENDBRANCH   1  23
TORSDOF 8
ENDMDL
MODEL 2
REMARK VINA RESULT:      -7.6      1.413      1.950
REMARK  8 active torsions:
REMARK  status: ('A' for Active; 'I' for Inactive)
REMARK       I    between atoms: C_2  and  N_3 
REMARK    1  A    between atoms: N_3  and  C_4 
REMARK    2  A    between atoms: C_6  and  C_7 
REMARK    3  A    between atoms: C_7  and  N_8 
REMARK    4  A    between atoms: C_11  and  C_12 
REMARK    5  A    between atoms: C_14  and  S_15 
REMARK    6  A    between atoms: S_15  and  C_16 
REMARK    7  A    between atoms: C_16  and  C_17 
REMARK    8  A    between atoms: C_17  and  N_18 
ROOT
HETATM    1  N   UNL     1     -42.164  59.207 -53.941  1.00  0.00    -0.066 N 
HETATM    2  H   UNL     1     -42.640  58.327 -53.700  1.00  0.00     0.280 HD
HETATM    3  C   UNL     1     -40.778  59.112 -53.339  1.00  0.00     0.246 C 
HETATM    4  C   UNL     1     -40.818  58.944 -51.817  1.00  0.00     0.064 C 
HETATM    5  C   UNL     1     -41.742  59.969 -51.147  1.00  0.00     0.014 C 
HETATM    6  C   UNL     1     -43.102  60.095 -51.825  1.00  0.00     0.028 C 
HETATM    7  C   UNL     1     -42.970  60.326 -53.322  1.00  0.00     0.235 C 
ENDROOT
BRANCH   4   8
HETATM    8  C   UNL     1     -41.131  57.512 -51.397  1.00  0.00     0.044 A 
HETATM    9  N   UNL     1     -41.552  56.622 -52.337  1.00  0.00    -0.227 NA
HETATM   10  C   UNL     1     -41.945  55.415 -51.861  1.00  0.00     0.188 A 
HETATM   11  N   UNL     1     -41.821  55.004 -50.595  1.00  0.00    -0.235 NA
HETATM   12  C   UNL     1     -41.375  55.902 -49.705  1.00  0.00     0.121 A 
HETATM   13  C   UNL     1     -41.030  57.183 -50.053  1.00  0.00     0.047 A 
BRANCH  10  14
HETATM   14  S   UNL     1     -42.800  54.267 -52.915  1.00  0.00    -0.088 SA
BRANCH  14  15
HETATM   15  C   UNL     1     -41.454  53.209 -53.496  1.00  0.00     0.110 C 
BRANCH  15  16
HETATM   16  C   UNL     1     -40.540  52.743 -52.362  1.00  0.00     0.245 C 
BRANCH  16  17
HETATM   17  N   UNL     1     -39.478  51.766 -52.805  1.00  0.00    -0.070 N 
HETATM   18  H   UNL     1     -38.561  52.236 -52.734  1.00  0.00     0.279 HD
HETATM   19  C   UNL     1     -39.664  51.341 -54.259  1.00  0.00     0.235 C 
HETATM   20  C   UNL     1     -40.303  49.975 -54.150  1.00  0.00     0.029 C 
HETATM   21  C   UNL     1     -39.533  49.354 -53.003  1.00  0.00     0.029 C 
HETATM   22  C   UNL     1     -39.416  50.479 -51.989  1.00  0.00     0.235 C 
ENDBRANCH  16  17
ENDBRANCH  15  16
ENDBRANCH  14  15
ENDBRANCH  10  14
ENDBRANCH   4   8
BRANCH   1  23
HETATM   23  C   UNL     1     -42.125  59.331 -55.458  1.00  0.00     0.280 C 
BRANCH  23  24
HETATM   24  C   UNL     1     -42.569  58.084 -56.159  1.00  0.00     0.010 A 
HETATM   25  S   UNL     1     -43.736  58.150 -57.419  1.00  0.00    -0.075 SA
HETATM   26  C   UNL     1     -43.625  56.481 -57.696  1.00  0.00     0.076 A 
HETATM   27  C   UNL     1     -42.809  55.851 -56.790  1.00  0.00     0.038 A 
HETATM   28  C   UNL     1     -42.206  56.779 -55.888  1.00  0.00     0.019 A 
BRANCH  26  29
HETATM   29  N   UNL     1     -44.373  56.021 -58.751  1.00  0.00    -0.322 N 
HETATM   30  C   UNL     1     -43.825  55.762 -59.994  1.00  0.00     0.218 C 
HETATM   31  C   UNL     1     -44.819  55.174 -60.962  1.00  0.00     0.117 C 
HETATM   32  O   UNL     1     -42.678  56.046 -60.332  1.00  0.00    -0.274 OA
HETATM   33  H   UNL     1     -45.376  55.941 -58.623  1.00  0.00     0.169 HD
ENDBRANCH  26  29
ENDBRANCH  23  24
ENDBRANCH   1  23
TORSDOF 8
ENDMDL
MODEL 3
REMARK VINA RESULT:      -7.4      2.511      7.024
REMARK  8 active torsions:
REMARK  status: ('A' for Active; 'I' for Inactive)
REMARK       I    between atoms: C_2  and  N_3 
REMARK    1  A    between atoms: N_3  and  C_4 
REMARK    2  A    between atoms: C_6  and  C_7 
REMARK    3  A    between atoms: C_7  and  N_8 
REMARK    4  A    between atoms: C_11  and  C_12 
REMARK    5  A    between atoms: C_14  and  S_15 
REMARK    6  A    between atoms: S_15  and  C_16 
REMARK    7  A    between atoms: C_16  and  C_17 
REMARK    8  A    between atoms: C_17  and  N_18 
ROOT
HETATM    1  N   UNL     1     -42.065  57.006 -51.379  1.00  0.00    -0.066 N 
HETATM    2  H   UNL     1     -41.721  56.843 -52.335  1.00  0.00     0.280 HD
HETATM    3  C   UNL     1     -43.273  57.909 -51.518  1.00  0.00     0.246 C 
HETATM    4  C   UNL     1     -42.924  59.246 -52.179  1.00  0.00     0.064 C 
HETATM    5  C   UNL     1     -41.697  59.905 -51.534  1.00  0.00     0.014 C 
HETATM    6  C   UNL     1     -40.527  58.949 -51.339  1.00  0.00     0.028 C 
HETATM    7  C   UNL     1     -40.946  57.678 -50.617  1.00  0.00     0.235 C 
ENDROOT
BRANCH   4   8
HETATM    8  C   UNL     1     -42.797  59.132 -53.694  1.00  0.00     0.044 A 
HETATM    9  N   UNL     1     -43.133  57.960 -54.301  1.00  0.00    -0.227 NA
HETATM   10  C   UNL     1     -42.858  57.892 -55.627  1.00  0.00     0.188 A 
HETATM   11  N   UNL     1     -42.425  58.908 -56.381  1.00  0.00    -0.235 NA
HETATM   12  C   UNL     1     -42.133  60.053 -55.749  1.00  0.00     0.121 A 
HETATM   13  C   UNL     1     -42.286  60.214 -54.395  1.00  0.00     0.047 A 
BRANCH  10  14
HETATM   14  S   UNL     1     -42.952  56.340 -56.487  1.00  0.00    -0.088 SA
BRANCH  14  15
HETATM   15  C   UNL     1     -42.898  56.859 -58.218  1.00  0.00     0.110 C 
BRANCH  15  16
HETATM   16  C   UNL     1     -43.414  55.782 -59.173  1.00  0.00     0.245 C 
BRANCH  16  17
HETATM   17  N   UNL     1     -44.324  56.318 -60.251  1.00  0.00    -0.070 N 
HETATM   18  H   UNL     1     -43.737  56.606 -61.051  1.00  0.00     0.279 HD
HETATM   19  C   UNL     1     -45.101  57.546 -59.786  1.00  0.00     0.235 C 
HETATM   20  C   UNL     1     -46.473  56.997 -59.465  1.00  0.00     0.029 C 
HETATM   21  C   UNL     1     -46.701  56.025 -60.603  1.00  0.00     0.029 C 
HETATM   22  C   UNL     1     -45.363  55.323 -60.760  1.00  0.00     0.235 C 
ENDBRANCH  16  17
ENDBRANCH  15  16
ENDBRANCH  14  15
ENDBRANCH  10  14
ENDBRANCH   4   8
BRANCH   1  23
HETATM   23  C   UNL     1     -42.421  55.660 -50.761  1.00  0.00     0.280 C 
BRANCH  23  24
HETATM   24  C   UNL     1     -41.481  54.565 -51.163  1.00  0.00     0.010 A 
HETATM   25  S   UNL     1     -41.674  53.746 -52.661  1.00  0.00    -0.075 SA
HETATM   26  C   UNL     1     -40.290  52.804 -52.397  1.00  0.00     0.076 A 
HETATM   27  C   UNL     1     -39.741  53.012 -51.157  1.00  0.00     0.038 A 
HETATM   28  C   UNL     1     -40.441  54.025 -50.433  1.00  0.00     0.019 A 
BRANCH  26  29
HETATM   29  N   UNL     1     -39.949  51.975 -53.438  1.00  0.00    -0.322 N 
HETATM   30  C   UNL     1     -39.759  50.616 -53.275  1.00  0.00     0.218 C 
HETATM   31  C   UNL     1     -39.488  49.902 -54.573  1.00  0.00     0.117 C 
HETATM   32  O   UNL     1     -39.725  50.033 -52.193  1.00  0.00    -0.274 OA
HETATM   33  H   UNL     1     -39.762  52.399 -54.340  1.00  0.00     0.169 HD
ENDBRANCH  26  29
ENDBRANCH  23  24
ENDBRANCH   1  23
TORSDOF 8
ENDMDL
MODEL 4
REMARK VINA RESULT:      -7.4      1.753      2.454
REMARK  8 active torsions:
REMARK  status: ('A' for Active; 'I' for Inactive)
REMARK       I    between atoms: C_2  and  N_3 
REMARK    1  A    between atoms: N_3  and  C_4 
REMARK    2  A    between atoms: C_6  and  C_7 
REMARK    3  A    between atoms: C_7  and  N_8 
REMARK    4  A    between atoms: C_11  and  C_12 
REMARK    5  A    between atoms: C_14  and  S_15 
REMARK    6  A    between atoms: S_15  and  C_16 
REMARK    7  A    between atoms: C_16  and  C_17 
REMARK    8  A    between atoms: C_17  and  N_18 
ROOT
HETATM    1  N   UNL     1     -42.196  59.584 -54.222  1.00  0.00    -0.066 N 
HETATM    2  H   UNL     1     -42.822  58.767 -54.231  1.00  0.00     0.280 HD
HETATM    3  C   UNL     1     -40.940  59.141 -53.501  1.00  0.00     0.246 C 
HETATM    4  C   UNL     1     -41.225  58.688 -52.065  1.00  0.00     0.064 C 
HETATM    5  C   UNL     1     -42.081  59.705 -51.300  1.00  0.00     0.014 C 
HETATM    6  C   UNL     1     -43.296  60.188 -52.084  1.00  0.00     0.028 C 
HETATM    7  C   UNL     1     -42.916  60.681 -53.472  1.00  0.00     0.235 C 
ENDROOT
BRANCH   4   8
HETATM    8  C   UNL     1     -41.796  57.276 -52.002  1.00  0.00     0.044 A 
HETATM    9  N   UNL     1     -41.813  56.516 -53.131  1.00  0.00    -0.227 NA
HETATM   10  C   UNL     1     -42.465  55.332 -53.025  1.00  0.00     0.188 A 
HETATM   11  N   UNL     1     -42.953  54.815 -51.892  1.00  0.00    -0.235 NA
HETATM   12  C   UNL     1     -42.891  55.584 -50.797  1.00  0.00     0.121 A 
HETATM   13  C   UNL     1     -42.334  56.838 -50.800  1.00  0.00     0.047 A 
BRANCH  10  14
HETATM   14  S   UNL     1     -42.835  54.376 -54.477  1.00  0.00    -0.088 SA
BRANCH  14  15
HETATM   15  C   UNL     1     -41.253  54.384 -55.352  1.00  0.00     0.110 C 
BRANCH  15  16
HETATM   16  C   UNL     1     -40.175  53.577 -54.627  1.00  0.00     0.245 C 
BRANCH  16  17
HETATM   17  N   UNL     1     -40.723  52.421 -53.827  1.00  0.00    -0.070 N 
HETATM   18  H   UNL     1     -41.754  52.482 -53.841  1.00  0.00     0.279 HD
HETATM   19  C   UNL     1     -40.279  52.474 -52.368  1.00  0.00     0.235 C 
HETATM   20  C   UNL     1     -39.157  51.464 -52.301  1.00  0.00     0.029 C 
HETATM   21  C   UNL     1     -39.693  50.335 -53.156  1.00  0.00     0.029 C 
HETATM   22  C   UNL     1     -40.322  51.042 -54.344  1.00  0.00     0.235 C 
ENDBRANCH  16  17
ENDBRANCH  15  16
ENDBRANCH  14  15
ENDBRANCH  10  14
ENDBRANCH   4   8
BRANCH   1  23
HETATM   23  C   UNL     1     -41.920  59.992 -55.662  1.00  0.00     0.280 C 
BRANCH  23  24
HETATM   24  C   UNL     1     -42.829  59.321 -56.646  1.00  0.00     0.010 A 
HETATM   25  S   UNL     1     -42.788  57.617 -56.860  1.00  0.00    -0.075 SA
HETATM   26  C   UNL     1     -44.055  57.664 -57.985  1.00  0.00     0.076 A 
HETATM   27  C   UNL     1     -44.441  58.945 -58.289  1.00  0.00     0.038 A 
HETATM   28  C   UNL     1     -43.719  59.910 -57.522  1.00  0.00     0.019 A 
BRANCH  26  29
HETATM   29  N   UNL     1     -44.478  56.435 -58.429  1.00  0.00    -0.322 N 
HETATM   30  C   UNL     1     -44.002  55.861 -59.594  1.00  0.00     0.218 C 
HETATM   31  C   UNL     1     -44.538  54.472 -59.823  1.00  0.00     0.117 C 
HETATM   32  O   UNL     1     -43.286  56.426 -60.418  1.00  0.00    -0.274 OA
HETATM   33  H   UNL     1     -45.220  55.974 -57.913  1.00  0.00     0.169 HD
ENDBRANCH  26  29
ENDBRANCH  23  24
ENDBRANCH   1  23
TORSDOF 8
ENDMDL
MODEL 5
REMARK VINA RESULT:      -7.1     16.154     19.272
REMARK  8 active torsions:
REMARK  status: ('A' for Active; 'I' for Inactive)
REMARK       I    between atoms: C_2  and  N_3 
REMARK    1  A    between atoms: N_3  and  C_4 
REMARK    2  A    between atoms: C_6  and  C_7 
REMARK    3  A    between atoms: C_7  and  N_8 
REMARK    4  A    between atoms: C_11  and  C_12 
REMARK    5  A    between atoms: C_14  and  S_15 
REMARK    6  A    between atoms: S_15  and  C_16 
REMARK    7  A    between atoms: C_16  and  C_17 
REMARK    8  A    between atoms: C_17  and  N_18 
ROOT
HETATM    1  N   UNL     1     -36.095  41.729 -55.028  1.00  0.00    -0.066 N 
HETATM    2  H   UNL     1     -35.741  40.769 -55.134  1.00  0.00     0.280 HD
HETATM    3  C   UNL     1     -37.537  41.698 -55.491  1.00  0.00     0.246 C 
HETATM    4  C   UNL     1     -37.667  41.255 -56.951  1.00  0.00     0.064 C 
HETATM    5  C   UNL     1     -36.711  42.022 -57.874  1.00  0.00     0.014 C 
HETATM    6  C   UNL     1     -35.285  42.101 -57.341  1.00  0.00     0.028 C 
HETATM    7  C   UNL     1     -35.242  42.612 -55.909  1.00  0.00     0.235 C 
ENDROOT
BRANCH   4   8
HETATM    8  C   UNL     1     -37.549  39.744 -57.115  1.00  0.00     0.044 A 
HETATM    9  N   UNL     1     -36.875  39.025 -56.175  1.00  0.00    -0.227 NA
HETATM   10  C   UNL     1     -36.693  37.713 -56.465  1.00  0.00     0.188 A 
HETATM   11  N   UNL     1     -37.231  37.069 -57.506  1.00  0.00    -0.235 NA
HETATM   12  C   UNL     1     -37.911  37.808 -58.393  1.00  0.00     0.121 A 
HETATM   13  C   UNL     1     -38.088  39.161 -58.253  1.00  0.00     0.047 A 
BRANCH  10  14
HETATM   14  S   UNL     1     -35.581  36.723 -55.495  1.00  0.00    -0.088 SA
BRANCH  14  15
HETATM   15  C   UNL     1     -34.112  36.658 -56.548  1.00  0.00     0.110 C 
BRANCH  15  16
HETATM   16  C   UNL     1     -32.817  36.882 -55.767  1.00  0.00     0.245 C 
BRANCH  16  17
HETATM   17  N   UNL     1     -32.103  38.159 -56.137  1.00  0.00    -0.070 N 
HETATM   18  H   UNL     1     -31.651  38.018 -57.055  1.00  0.00     0.279 HD
HETATM   19  C   UNL     1     -31.007  38.512 -55.135  1.00  0.00     0.235 C 
HETATM   20  C   UNL     1     -31.640  39.589 -54.283  1.00  0.00     0.029 C 
HETATM   21  C   UNL     1     -32.377  40.418 -55.313  1.00  0.00     0.029 C 
HETATM   22  C   UNL     1     -33.003  39.387 -56.235  1.00  0.00     0.235 C 
ENDBRANCH  16  17
ENDBRANCH  15  16
ENDBRANCH  14  15
ENDBRANCH  10  14
ENDBRANCH   4   8
BRANCH   1  23
HETATM   23  C   UNL     1     -35.970  42.128 -53.563  1.00  0.00     0.280 C 
BRANCH  23  24
HETATM   24  C   UNL     1     -35.291  41.085 -52.729  1.00  0.00     0.010 A 
HETATM   25  S   UNL     1     -34.461  41.516 -51.288  1.00  0.00    -0.075 SA
HETATM   26  C   UNL     1     -34.085  39.898 -50.945  1.00  0.00     0.076 A 
HETATM   27  C   UNL     1     -34.476  39.045 -51.946  1.00  0.00     0.038 A 
HETATM   28  C   UNL     1     -35.164  39.735 -52.990  1.00  0.00     0.019 A 
BRANCH  26  29
HETATM   29  N   UNL     1     -33.439  39.697 -49.751  1.00  0.00    -0.322 N 
HETATM   30  C   UNL     1     -32.074  39.868 -49.605  1.00  0.00     0.218 C 
HETATM   31  C   UNL     1     -31.609  39.685 -48.184  1.00  0.00     0.117 C 
HETATM   32  O   UNL     1     -31.285  40.065 -50.527  1.00  0.00    -0.274 OA
HETATM   33  H   UNL     1     -33.981  39.340 -48.972  1.00  0.00     0.169 HD
ENDBRANCH  26  29
ENDBRANCH  23  24
ENDBRANCH   1  23
TORSDOF 8
ENDMDL
MODEL 6
REMARK VINA RESULT:      -7.1      2.417      6.412
REMARK  8 active torsions:
REMARK  status: ('A' for Active; 'I' for Inactive)
REMARK       I    between atoms: C_2  and  N_3 
REMARK    1  A    between atoms: N_3  and  C_4 
REMARK    2  A    between atoms: C_6  and  C_7 
REMARK    3  A    between atoms: C_7  and  N_8 
REMARK    4  A    between atoms: C_11  and  C_12 
REMARK    5  A    between atoms: C_14  and  S_15 
REMARK    6  A    between atoms: S_15  and  C_16 
REMARK    7  A    between atoms: C_16  and  C_17 
REMARK    8  A    between atoms: C_17  and  N_18 
ROOT
HETATM    1  N   UNL     1     -42.178  57.627 -51.410  1.00  0.00    -0.066 N 
HETATM    2  H   UNL     1     -41.937  57.870 -52.381  1.00  0.00     0.280 HD
HETATM    3  C   UNL     1     -43.402  58.450 -51.064  1.00  0.00     0.246 C 
HETATM    4  C   UNL     1     -43.138  59.955 -51.174  1.00  0.00     0.064 C 
HETATM    5  C   UNL     1     -41.855  60.371 -50.443  1.00  0.00     0.014 C 
HETATM    6  C   UNL     1     -40.662  59.475 -50.754  1.00  0.00     0.028 C 
HETATM    7  C   UNL     1     -40.989  58.003 -50.556  1.00  0.00     0.235 C 
ENDROOT
BRANCH   4   8
HETATM    8  C   UNL     1     -43.175  60.449 -52.616  1.00  0.00     0.044 A 
HETATM    9  N   UNL     1     -43.211  59.540 -53.628  1.00  0.00    -0.227 NA
HETATM   10  C   UNL     1     -43.098  60.055 -54.877  1.00  0.00     0.188 A 
HETATM   11  N   UNL     1     -43.096  61.358 -55.181  1.00  0.00    -0.235 NA
HETATM   12  C   UNL     1     -43.091  62.221 -54.155  1.00  0.00     0.121 A 
HETATM   13  C   UNL     1     -43.114  61.816 -52.844  1.00  0.00     0.047 A 
BRANCH  10  14
HETATM   14  S   UNL     1     -42.821  58.986 -56.270  1.00  0.00    -0.088 SA
BRANCH  14  15
HETATM   15  C   UNL     1     -44.492  58.403 -56.641  1.00  0.00     0.110 C 
BRANCH  15  16
HETATM   16  C   UNL     1     -44.687  58.080 -58.123  1.00  0.00     0.245 C 
BRANCH  16  17
HETATM   17  N   UNL     1     -44.805  56.603 -58.408  1.00  0.00    -0.070 N 
HETATM   18  H   UNL     1     -45.417  56.186 -57.688  1.00  0.00     0.279 HD
HETATM   19  C   UNL     1     -43.455  55.897 -58.330  1.00  0.00     0.235 C 
HETATM   20  C   UNL     1     -43.056  55.733 -59.779  1.00  0.00     0.029 C 
HETATM   21  C   UNL     1     -44.367  55.344 -60.429  1.00  0.00     0.029 C 
HETATM   22  C   UNL     1     -45.386  56.263 -59.778  1.00  0.00     0.235 C 
ENDBRANCH  16  17
ENDBRANCH  15  16
ENDBRANCH  14  15
ENDBRANCH  10  14
ENDBRANCH   4   8
BRANCH   1  23
HETATM   23  C   UNL     1     -42.452  56.131 -51.343  1.00  0.00     0.280 C 
BRANCH  23  24
HETATM   24  C   UNL     1     -41.763  55.360 -52.427  1.00  0.00     0.010 A 
HETATM   25  S   UNL     1     -41.780  53.642 -52.432  1.00  0.00    -0.075 SA
HETATM   26  C   UNL     1     -40.923  53.574 -53.893  1.00  0.00     0.076 A 
HETATM   27  C   UNL     1     -40.527  54.813 -54.328  1.00  0.00     0.038 A 
HETATM   28  C   UNL     1     -41.001  55.851 -53.469  1.00  0.00     0.019 A 
BRANCH  26  29
HETATM   29  N   UNL     1     -40.742  52.309 -54.397  1.00  0.00    -0.322 N 
HETATM   30  C   UNL     1     -39.894  51.389 -53.809  1.00  0.00     0.218 C 
HETATM   31  C   UNL     1     -39.934  50.042 -54.482  1.00  0.00     0.117 C 
HETATM   32  O   UNL     1     -39.116  51.634 -52.889  1.00  0.00    -0.274 OA
HETATM   33  H   UNL     1     -41.197  52.078 -55.273  1.00  0.00     0.169 HD
ENDBRANCH  26  29
ENDBRANCH  23  24
ENDBRANCH   1  23
TORSDOF 8
ENDMDL
MODEL 7
REMARK VINA RESULT:      -7.0      2.355      3.589
REMARK  8 active torsions:
REMARK  status: ('A' for Active; 'I' for Inactive)
REMARK       I    between atoms: C_2  and  N_3 
REMARK    1  A    between atoms: N_3  and  C_4 
REMARK    2  A    between atoms: C_6  and  C_7 
REMARK    3  A    between atoms: C_7  and  N_8 
REMARK    4  A    between atoms: C_11  and  C_12 
REMARK    5  A    between atoms: C_14  and  S_15 
REMARK    6  A    between atoms: S_15  and  C_16 
REMARK    7  A    between atoms: C_16  and  C_17 
REMARK    8  A    between atoms: C_17  and  N_18 
ROOT
HETATM    1  N   UNL     1     -43.204  57.369 -55.832  1.00  0.00    -0.066 N 
HETATM    2  H   UNL     1     -42.301  57.534 -55.365  1.00  0.00     0.280 HD
HETATM    3  C   UNL     1     -44.222  57.196 -54.723  1.00  0.00     0.246 C 
HETATM    4  C   UNL     1     -43.886  56.014 -53.808  1.00  0.00     0.064 C 
HETATM    5  C   UNL     1     -43.576  54.739 -54.602  1.00  0.00     0.014 C 
HETATM    6  C   UNL     1     -42.608  54.964 -55.758  1.00  0.00     0.028 C 
HETATM    7  C   UNL     1     -43.050  56.110 -56.654  1.00  0.00     0.235 C 
ENDROOT
BRANCH   4   8
HETATM    8  C   UNL     1     -42.796  56.352 -52.796  1.00  0.00     0.044 A 
HETATM    9  N   UNL     1     -42.466  55.435 -51.846  1.00  0.00    -0.227 NA
HETATM   10  C   UNL     1     -41.593  55.866 -50.901  1.00  0.00     0.188 A 
HETATM   11  N   UNL     1     -40.950  57.038 -50.917  1.00  0.00    -0.235 NA
HETATM   12  C   UNL     1     -41.284  57.901 -51.887  1.00  0.00     0.121 A 
HETATM   13  C   UNL     1     -42.219  57.613 -52.849  1.00  0.00     0.047 A 
BRANCH  10  14
HETATM   14  S   UNL     1     -41.304  54.900 -49.438  1.00  0.00    -0.088 SA
BRANCH  14  15
HETATM   15  C   UNL     1     -40.012  53.758 -49.984  1.00  0.00     0.110 C 
BRANCH  15  16
HETATM   16  C   UNL     1     -40.542  52.675 -50.924  1.00  0.00     0.245 C 
BRANCH  16  17
HETATM   17  N   UNL     1     -39.683  52.464 -52.147  1.00  0.00    -0.070 N 
HETATM   18  H   UNL     1     -38.757  52.882 -51.963  1.00  0.00     0.279 HD
HETATM   19  C   UNL     1     -40.262  53.155 -53.378  1.00  0.00     0.235 C 
HETATM   20  C   UNL     1     -40.918  52.027 -54.142  1.00  0.00     0.029 C 
HETATM   21  C   UNL     1     -39.910  50.909 -53.988  1.00  0.00     0.029 C 
HETATM   22  C   UNL     1     -39.476  51.003 -52.535  1.00  0.00     0.235 C 
ENDBRANCH  16  17
ENDBRANCH  15  16
ENDBRANCH  14  15
ENDBRANCH  10  14
ENDBRANCH   4   8
BRANCH   1  23
HETATM   23  C   UNL     1     -43.514  58.569 -56.716  1.00  0.00     0.280 C 
BRANCH  23  24
HETATM   24  C   UNL     1     -44.822  58.444 -57.434  1.00  0.00     0.010 A 
HETATM   25  S   UNL     1     -44.881  58.382 -59.150  1.00  0.00    -0.075 SA
HETATM   26  C   UNL     1     -46.564  58.181 -59.150  1.00  0.00     0.076 A 
HETATM   27  C   UNL     1     -47.103  58.267 -57.890  1.00  0.00     0.038 A 
HETATM   28  C   UNL     1     -46.093  58.434 -56.894  1.00  0.00     0.019 A 
BRANCH  26  29
HETATM   29  N   UNL     1     -47.123  57.989 -60.389  1.00  0.00    -0.322 N 
HETATM   30  C   UNL     1     -47.479  56.738 -60.858  1.00  0.00     0.218 C 
HETATM   31  C   UNL     1     -48.160  56.787 -62.200  1.00  0.00     0.117 C 
HETATM   32  O   UNL     1     -47.209  55.673 -60.304  1.00  0.00    -0.274 OA
HETATM   33  H   UNL     1     -47.205  58.792 -61.002  1.00  0.00     0.169 HD
ENDBRANCH  26  29
ENDBRANCH  23  24
ENDBRANCH   1  23
TORSDOF 8
ENDMDL
MODEL 8
REMARK VINA RESULT:      -7.0      3.095      6.044
REMARK  8 active torsions:
REMARK  status: ('A' for Active; 'I' for Inactive)
REMARK       I    between atoms: C_2  and  N_3 
REMARK    1  A    between atoms: N_3  and  C_4 
REMARK    2  A    between atoms: C_6  and  C_7 
REMARK    3  A    between atoms: C_7  and  N_8 
REMARK    4  A    between atoms: C_11  and  C_12 
REMARK    5  A    between atoms: C_14  and  S_15 
REMARK    6  A    between atoms: S_15  and  C_16 
REMARK    7  A    between atoms: C_16  and  C_17 
REMARK    8  A    between atoms: C_17  and  N_18 
ROOT
HETATM    1  N   UNL     1     -42.671  55.454 -54.245  1.00  0.00    -0.066 N 
HETATM    2  H   UNL     1     -42.367  55.522 -53.265  1.00  0.00     0.280 HD
HETATM    3  C   UNL     1     -42.690  53.976 -54.577  1.00  0.00     0.246 C 
HETATM    4  C   UNL     1     -41.311  53.329 -54.415  1.00  0.00     0.064 C 
HETATM    5  C   UNL     1     -40.210  54.133 -55.118  1.00  0.00     0.014 C 
HETATM    6  C   UNL     1     -40.267  55.628 -54.824  1.00  0.00     0.028 C 
HETATM    7  C   UNL     1     -41.653  56.203 -55.074  1.00  0.00     0.235 C 
ENDROOT
BRANCH   4   8
HETATM    8  C   UNL     1     -40.976  53.030 -52.958  1.00  0.00     0.044 A 
HETATM    9  N   UNL     1     -41.558  53.773 -51.977  1.00  0.00    -0.227 NA
HETATM   10  C   UNL     1     -41.101  53.540 -50.722  1.00  0.00     0.188 A 
HETATM   11  N   UNL     1     -40.249  52.568 -50.376  1.00  0.00    -0.235 NA
HETATM   12  C   UNL     1     -39.721  51.840 -51.369  1.00  0.00     0.121 A 
HETATM   13  C   UNL     1     -40.039  52.042 -52.688  1.00  0.00     0.047 A 
BRANCH  10  14
HETATM   14  S   UNL     1     -41.536  54.632 -49.389  1.00  0.00    -0.088 SA
BRANCH  14  15
HETATM   15  C   UNL     1     -40.725  56.172 -49.878  1.00  0.00     0.110 C 
BRANCH  15  16
HETATM   16  C   UNL     1     -41.264  56.728 -51.197  1.00  0.00     0.245 C 
BRANCH  16  17
HETATM   17  N   UNL     1     -41.249  58.236 -51.267  1.00  0.00    -0.070 N 
HETATM   18  H   UNL     1     -42.182  58.551 -51.578  1.00  0.00     0.279 HD
HETATM   19  C   UNL     1     -40.229  58.751 -52.278  1.00  0.00     0.235 C 
HETATM   20  C   UNL     1     -39.063  59.183 -51.418  1.00  0.00     0.029 C 
HETATM   21  C   UNL     1     -39.759  59.850 -50.250  1.00  0.00     0.029 C 
HETATM   22  C   UNL     1     -40.930  58.932 -49.947  1.00  0.00     0.235 C 
ENDBRANCH  16  17
ENDBRANCH  15  16
ENDBRANCH  14  15
ENDBRANCH  10  14
ENDBRANCH   4   8
BRANCH   1  23
HETATM   23  C   UNL     1     -44.051  56.088 -54.365  1.00  0.00     0.280 C 
BRANCH  23  24
HETATM   24  C   UNL     1     -44.298  57.150 -53.338  1.00  0.00     0.010 A 
HETATM   25  S   UNL     1     -44.132  58.813 -53.735  1.00  0.00    -0.075 SA
HETATM   26  C   UNL     1     -44.617  59.298 -52.184  1.00  0.00     0.076 A 
HETATM   27  C   UNL     1     -44.799  58.236 -51.335  1.00  0.00     0.038 A 
HETATM   28  C   UNL     1     -44.600  56.987 -52.000  1.00  0.00     0.019 A 
BRANCH  26  29
HETATM   29  N   UNL     1     -44.730  60.656 -52.013  1.00  0.00    -0.322 N 
HETATM   30  C   UNL     1     -45.952  61.301 -51.972  1.00  0.00     0.218 C 
HETATM   31  C   UNL     1     -45.827  62.773 -51.678  1.00  0.00     0.117 C 
HETATM   32  O   UNL     1     -47.035  60.777 -52.225  1.00  0.00    -0.274 OA
HETATM   33  H   UNL     1     -43.876  61.204 -51.990  1.00  0.00     0.169 HD
ENDBRANCH  26  29
ENDBRANCH  23  24
ENDBRANCH   1  23
TORSDOF 8
ENDMDL
MODEL 9
REMARK VINA RESULT:      -6.9      2.517      7.429
REMARK  8 active torsions:
REMARK  status: ('A' for Active; 'I' for Inactive)
REMARK       I    between atoms: C_2  and  N_3 
REMARK    1  A    between atoms: N_3  and  C_4 
REMARK    2  A    between atoms: C_6  and  C_7 
REMARK    3  A    between atoms: C_7  and  N_8 
REMARK    4  A    between atoms: C_11  and  C_12 
REMARK    5  A    between atoms: C_14  and  S_15 
REMARK    6  A    between atoms: S_15  and  C_16 
REMARK    7  A    between atoms: C_16  and  C_17 
REMARK    8  A    between atoms: C_17  and  N_18 
ROOT
HETATM    1  N   UNL     1     -42.416  56.843 -51.557  1.00  0.00    -0.066 N 
HETATM    2  H   UNL     1     -41.824  56.466 -52.309  1.00  0.00     0.280 HD
HETATM    3  C   UNL     1     -43.847  56.578 -51.978  1.00  0.00     0.246 C 
HETATM    4  C   UNL     1     -44.196  57.259 -53.305  1.00  0.00     0.064 C 
HETATM    5  C   UNL     1     -43.784  58.737 -53.320  1.00  0.00     0.014 C 
HETATM    6  C   UNL     1     -42.365  58.977 -52.817  1.00  0.00     0.028 C 
HETATM    7  C   UNL     1     -42.124  58.322 -51.465  1.00  0.00     0.235 C 
ENDROOT
BRANCH   4   8
HETATM    8  C   UNL     1     -43.666  56.493 -54.511  1.00  0.00     0.044 A 
HETATM    9  N   UNL     1     -43.333  57.178 -55.639  1.00  0.00    -0.227 NA
HETATM   10  C   UNL     1     -43.007  56.413 -56.710  1.00  0.00     0.188 A 
HETATM   11  N   UNL     1     -42.859  55.084 -56.696  1.00  0.00    -0.235 NA
HETATM   12  C   UNL     1     -43.169  54.450 -55.557  1.00  0.00     0.121 A 
HETATM   13  C   UNL     1     -43.596  55.109 -54.432  1.00  0.00     0.047 A 
BRANCH  10  14
HETATM   14  S   UNL     1     -42.849  57.144 -58.323  1.00  0.00    -0.088 SA
BRANCH  14  15
HETATM   15  C   UNL     1     -43.951  56.111 -59.318  1.00  0.00     0.110 C 
BRANCH  15  16
HETATM   16  C   UNL     1     -44.383  56.794 -60.617  1.00  0.00     0.245 C 
BRANCH  16  17
HETATM   17  N   UNL     1     -45.736  57.456 -60.530  1.00  0.00    -0.070 N 
HETATM   18  H   UNL     1     -46.236  57.279 -61.415  1.00  0.00     0.279 HD
HETATM   19  C   UNL     1     -45.621  58.968 -60.361  1.00  0.00     0.235 C 
HETATM   20  C   UNL     1     -45.872  59.181 -58.885  1.00  0.00     0.029 C 
HETATM   21  C   UNL     1     -47.004  58.213 -58.611  1.00  0.00     0.029 C 
HETATM   22  C   UNL     1     -46.613  56.964 -59.382  1.00  0.00     0.235 C 
ENDBRANCH  16  17
ENDBRANCH  15  16
ENDBRANCH  14  15
ENDBRANCH  10  14
ENDBRANCH   4   8
BRANCH   1  23
HETATM   23  C   UNL     1     -42.056  56.129 -50.260  1.00  0.00     0.280 C 
BRANCH  23  24
HETATM   24  C   UNL     1     -41.162  54.947 -50.472  1.00  0.00     0.010 A 
HETATM   25  S   UNL     1     -41.627  53.668 -51.520  1.00  0.00    -0.075 SA
HETATM   26  C   UNL     1     -40.163  52.849 -51.276  1.00  0.00     0.076 A 
HETATM   27  C   UNL     1     -39.369  53.461 -50.338  1.00  0.00     0.038 A 
HETATM   28  C   UNL     1     -39.955  54.672 -49.859  1.00  0.00     0.019 A 
BRANCH  26  29
HETATM   29  N   UNL     1     -40.007  51.709 -52.025  1.00  0.00    -0.322 N 
HETATM   30  C   UNL     1     -39.807  51.739 -53.393  1.00  0.00     0.218 C 
HETATM   31  C   UNL     1     -39.567  50.373 -53.980  1.00  0.00     0.117 C 
HETATM   32  O   UNL     1     -39.891  52.744 -54.096  1.00  0.00    -0.274 OA
HETATM   33  H   UNL     1     -40.118  50.816 -51.558  1.00  0.00     0.169 HD
ENDBRANCH  26  29
ENDBRANCH  23  24
ENDBRANCH   1  23
TORSDOF 8
ENDMDL
MODEL 10
REMARK VINA RESULT:      -6.9      2.587      4.192
REMARK  8 active torsions:
REMARK  status: ('A' for Active; 'I' for Inactive)
REMARK       I    between atoms: C_2  and  N_3 
REMARK    1  A    between atoms: N_3  and  C_4 
REMARK    2  A    between atoms: C_6  and  C_7 
REMARK    3  A    between atoms: C_7  and  N_8 
REMARK    4  A    between atoms: C_11  and  C_12 
REMARK    5  A    between atoms: C_14  and  S_15 
REMARK    6  A    between atoms: S_15  and  C_16 
REMARK    7  A    between atoms: C_16  and  C_17 
REMARK    8  A    between atoms: C_17  and  N_18 
ROOT
HETATM    1  N   UNL     1     -44.298  61.190 -55.428  1.00  0.00    -0.066 N 
HETATM    2  H   UNL     1     -44.012  60.337 -54.929  1.00  0.00     0.280 HD
HETATM    3  C   UNL     1     -43.412  62.300 -54.901  1.00  0.00     0.246 C 
HETATM    4  C   UNL     1     -43.573  62.503 -53.391  1.00  0.00     0.064 C 
HETATM    5  C   UNL     1     -45.047  62.604 -52.977  1.00  0.00     0.014 C 
HETATM    6  C   UNL     1     -45.925  61.517 -53.586  1.00  0.00     0.028 C 
HETATM    7  C   UNL     1     -45.753  61.428 -55.095  1.00  0.00     0.235 C 
ENDROOT
BRANCH   4   8
HETATM    8  C   UNL     1     -42.808  61.464 -52.579  1.00  0.00     0.044 A 
HETATM    9  N   UNL     1     -42.022  60.561 -53.228  1.00  0.00    -0.227 NA
HETATM   10  C   UNL     1     -41.491  59.586 -52.450  1.00  0.00     0.188 A 
HETATM   11  N   UNL     1     -41.568  59.532 -51.115  1.00  0.00    -0.235 NA
HETATM   12  C   UNL     1     -42.328  60.456 -50.512  1.00  0.00     0.121 A 
HETATM   13  C   UNL     1     -42.988  61.441 -51.203  1.00  0.00     0.047 A 
BRANCH  10  14
HETATM   14  S   UNL     1     -40.704  58.174 -53.188  1.00  0.00    -0.088 SA
BRANCH  14  15
HETATM   15  C   UNL     1     -41.365  56.810 -52.203  1.00  0.00     0.110 C 
BRANCH  15  16
HETATM   16  C   UNL     1     -42.221  55.848 -53.028  1.00  0.00     0.245 C 
BRANCH  16  17
HETATM   17  N   UNL     1     -43.705  56.062 -52.857  1.00  0.00    -0.070 N 
HETATM   18  H   UNL     1     -44.139  55.146 -52.659  1.00  0.00     0.279 HD
HETATM   19  C   UNL     1     -44.352  56.613 -54.124  1.00  0.00     0.235 C 
HETATM   20  C   UNL     1     -44.515  58.087 -53.827  1.00  0.00     0.029 C 
HETATM   21  C   UNL     1     -44.967  58.073 -52.382  1.00  0.00     0.029 C 
HETATM   22  C   UNL     1     -44.084  57.021 -51.732  1.00  0.00     0.235 C 
ENDBRANCH  16  17
ENDBRANCH  15  16
ENDBRANCH  14  15
ENDBRANCH  10  14
ENDBRANCH   4   8
BRANCH   1  23
HETATM   23  C   UNL     1     -44.106  60.960 -56.921  1.00  0.00     0.280 C 
BRANCH  23  24
HETATM   24  C   UNL     1     -43.734  59.548 -57.252  1.00  0.00     0.010 A 
HETATM   25  S   UNL     1     -44.939  58.395 -57.666  1.00  0.00    -0.075 SA
HETATM   26  C   UNL     1     -43.780  57.189 -57.943  1.00  0.00     0.076 A 
HETATM   27  C   UNL     1     -42.509  57.599 -57.628  1.00  0.00     0.038 A 
HETATM   28  C   UNL     1     -42.482  58.965 -57.213  1.00  0.00     0.019 A 
BRANCH  26  29
HETATM   29  N   UNL     1     -44.285  56.001 -58.411  1.00  0.00    -0.322 N 
HETATM   30  C   UNL     1     -44.124  55.589 -59.721  1.00  0.00     0.218 C 
HETATM   31  C   UNL     1     -44.678  54.212 -59.975  1.00  0.00     0.117 C 
HETATM   32  O   UNL     1     -43.660  56.280 -60.626  1.00  0.00    -0.274 OA
HETATM   33  H   UNL     1     -44.857  55.447 -57.782  1.00  0.00     0.169 HD
ENDBRANCH  26  29
ENDBRANCH  23  24
ENDBRANCH   1  23
TORSDOF 8
ENDMDL
