MODEL 1
REMARK VINA RESULT:      -8.7      0.000      0.000
REMARK  8 active torsions:
REMARK  status: ('A' for Active; 'I' for Inactive)
REMARK    1  A    between atoms: N_2  and  C_4 
REMARK    2  A    between atoms: N_2  and  C_27 
REMARK    3  A    between atoms: C_4  and  C_5 
REMARK    4  A    between atoms: C_8  and  C_9 
REMARK    5  A    between atoms: C_9  and  N_10 
REMARK       I    between atoms: N_10  and  C_11 
REMARK    6  A    between atoms: C_11  and  C_12 
REMARK    7  A    between atoms: C_27  and  C_28 
REMARK    8  A    between atoms: C_28  and  C_29 
ROOT
HETATM    1  C   UNL     1     -43.339  56.955 -53.235  1.00  0.00     0.041 C 
HETATM    2  C   UNL     1     -41.946  57.655 -53.222  1.00  0.00    -0.004 C 
HETATM    3  C   UNL     1     -40.997  56.936 -52.228  1.00  0.00     0.040 C 
HETATM    4  C   UNL     1     -41.483  57.146 -50.781  1.00  0.00     0.206 C 
HETATM    5  N   UNL     1     -42.921  57.649 -50.891  1.00  0.00    -0.065 N 
HETATM    6  H   UNL     1     -43.348  57.596 -49.943  1.00  0.00     0.280 HD
HETATM    7  C   UNL     1     -43.796  56.788 -51.778  1.00  0.00     0.242 C 
HETATM    8  C   UNL     1     -42.167  59.102 -52.710  1.00  0.00     0.032 C 
HETATM    9  C   UNL     1     -42.914  59.085 -51.369  1.00  0.00     0.236 C 
ENDROOT
BRANCH   4  10
HETATM   10  C   UNL     1     -41.336  55.898 -49.876  1.00  0.00     0.156 C 
BRANCH  10  11
HETATM   11  N   UNL     1     -40.865  54.705 -50.573  1.00  0.00    -0.355 N 
HETATM   12  C   UNL     1     -40.626  53.513 -49.923  1.00  0.00     0.251 C 
HETATM   13  O   UNL     1     -40.618  53.437 -48.697  1.00  0.00    -0.268 OA
HETATM   14  H   UNL     1     -41.020  54.661 -51.578  1.00  0.00     0.162 HD
BRANCH  12  15
HETATM   15  C   UNL     1     -40.341  52.328 -50.768  1.00  0.00     0.034 A 
HETATM   16  C   UNL     1     -40.151  52.459 -52.149  1.00  0.00     0.056 A 
HETATM   17  C   UNL     1     -39.842  51.316 -52.855  1.00  0.00     0.106 A 
HETATM   18  C   UNL     1     -39.726  50.090 -52.246  1.00  0.00     0.105 A 
HETATM   19  O   UNL     1     -39.604  51.256 -54.192  1.00  0.00    -0.323 OA
HETATM   20  O   UNL     1     -39.407  49.104 -53.124  1.00  0.00    -0.323 OA
HETATM   21  C   UNL     1     -39.907  49.932 -50.889  1.00  0.00     0.041 A 
HETATM   22  C   UNL     1     -39.315  49.848 -54.358  1.00  0.00     0.352 A 
HETATM   23  C   UNL     1     -40.212  51.072 -50.138  1.00  0.00     0.020 A 
ENDBRANCH  12  15
ENDBRANCH  10  11
ENDBRANCH   4  10
BRANCH   1  24
HETATM   24  C   UNL     1     -43.338  55.640 -54.041  1.00  0.00     0.241 C 
BRANCH  24  25
HETATM   25  N   UNL     1     -43.682  55.794 -55.505  1.00  0.00    -0.074 N 
HETATM   26  C   UNL     1     -42.633  55.129 -56.374  1.00  0.00     0.269 C 
HETATM   27  H   UNL     1     -44.568  55.292 -55.729  1.00  0.00     0.279 HD
BRANCH  25  28
HETATM   28  C   UNL     1     -43.959  57.228 -55.961  1.00  0.00     0.240 C 
BRANCH  28  29
HETATM   29  C   UNL     1     -43.568  57.469 -57.426  1.00  0.00     0.087 C 
BRANCH  29  30
HETATM   30  C   UNL     1     -44.674  57.185 -58.420  1.00  0.00     0.035 A 
HETATM   31  N   UNL     1     -45.863  57.840 -58.259  1.00  0.00    -0.266 NA
HETATM   32  C   UNL     1     -46.862  57.498 -59.120  1.00  0.00     0.117 A 
HETATM   33  C   UNL     1     -46.737  56.553 -60.122  1.00  0.00     0.019 A 
HETATM   34  C   UNL     1     -45.519  55.901 -60.260  1.00  0.00     0.003 A 
HETATM   35  C   UNL     1     -44.474  56.212 -59.396  1.00  0.00     0.027 A 
ENDBRANCH  29  30
ENDBRANCH  28  29
ENDBRANCH  25  28
ENDBRANCH  24  25
ENDBRANCH   1  24
TORSDOF 8
ENDMDL
MODEL 2
REMARK VINA RESULT:      -8.6      3.394      8.378
REMARK  8 active torsions:
REMARK  status: ('A' for Active; 'I' for Inactive)
REMARK    1  A    between atoms: N_2  and  C_4 
REMARK    2  A    between atoms: N_2  and  C_27 
REMARK    3  A    between atoms: C_4  and  C_5 
REMARK    4  A    between atoms: C_8  and  C_9 
REMARK    5  A    between atoms: C_9  and  N_10 
REMARK       I    between atoms: N_10  and  C_11 
REMARK    6  A    between atoms: C_11  and  C_12 
REMARK    7  A    between atoms: C_27  and  C_28 
REMARK    8  A    between atoms: C_28  and  C_29 
ROOT
HETATM    1  C   UNL     1     -42.121  57.199 -51.048  1.00  0.00     0.041 C 
HETATM    2  C   UNL     1     -43.307  57.970 -51.705  1.00  0.00    -0.004 C 
HETATM    3  C   UNL     1     -43.566  57.431 -53.136  1.00  0.00     0.040 C 
HETATM    4  C   UNL     1     -42.388  57.789 -54.062  1.00  0.00     0.206 C 
HETATM    5  N   UNL     1     -41.240  58.196 -53.142  1.00  0.00    -0.065 N 
HETATM    6  H   UNL     1     -40.372  58.235 -53.715  1.00  0.00     0.280 HD
HETATM    7  C   UNL     1     -40.956  57.186 -52.048  1.00  0.00     0.242 C 
HETATM    8  C   UNL     1     -42.875  59.454 -51.826  1.00  0.00     0.032 C 
HETATM    9  C   UNL     1     -41.527  59.561 -52.555  1.00  0.00     0.236 C 
ENDROOT
BRANCH   4  10
HETATM   10  C   UNL     1     -42.006  56.670 -55.063  1.00  0.00     0.156 C 
BRANCH  10  11
HETATM   11  N   UNL     1     -42.988  56.453 -56.121  1.00  0.00    -0.355 N 
HETATM   12  C   UNL     1     -42.937  57.118 -57.327  1.00  0.00     0.251 C 
HETATM   13  O   UNL     1     -42.174  58.064 -57.511  1.00  0.00    -0.268 OA
HETATM   14  H   UNL     1     -43.519  55.585 -56.094  1.00  0.00     0.162 HD
BRANCH  12  15
HETATM   15  C   UNL     1     -43.871  56.669 -58.387  1.00  0.00     0.034 A 
HETATM   16  C   UNL     1     -45.065  57.359 -58.632  1.00  0.00     0.056 A 
HETATM   17  C   UNL     1     -45.855  56.906 -59.668  1.00  0.00     0.106 A 
HETATM   18  C   UNL     1     -45.503  55.821 -60.435  1.00  0.00     0.105 A 
HETATM   19  O   UNL     1     -47.031  57.461 -60.062  1.00  0.00    -0.323 OA
HETATM   20  O   UNL     1     -46.417  55.554 -61.403  1.00  0.00    -0.323 OA
HETATM   21  C   UNL     1     -44.335  55.124 -60.216  1.00  0.00     0.041 A 
HETATM   22  C   UNL     1     -47.381  56.605 -61.176  1.00  0.00     0.352 A 
HETATM   23  C   UNL     1     -43.502  55.562 -59.180  1.00  0.00     0.020 A 
ENDBRANCH  12  15
ENDBRANCH  10  11
ENDBRANCH   4  10
BRANCH   1  24
HETATM   24  C   UNL     1     -42.527  55.797 -50.548  1.00  0.00     0.241 C 
BRANCH  24  25
HETATM   25  N   UNL     1     -41.988  54.650 -51.373  1.00  0.00    -0.074 N 
HETATM   26  C   UNL     1     -43.092  54.020 -52.198  1.00  0.00     0.269 C 
HETATM   27  H   UNL     1     -41.298  54.996 -52.074  1.00  0.00     0.279 HD
BRANCH  25  28
HETATM   28  C   UNL     1     -41.204  53.597 -50.588  1.00  0.00     0.240 C 
BRANCH  28  29
HETATM   29  C   UNL     1     -39.855  53.258 -51.238  1.00  0.00     0.087 C 
BRANCH  29  30
HETATM   30  C   UNL     1     -39.892  52.062 -52.164  1.00  0.00     0.035 A 
HETATM   31  N   UNL     1     -39.604  50.834 -51.636  1.00  0.00    -0.266 NA
HETATM   32  C   UNL     1     -39.563  49.793 -52.514  1.00  0.00     0.117 A 
HETATM   33  C   UNL     1     -39.796  49.911 -53.872  1.00  0.00     0.019 A 
HETATM   34  C   UNL     1     -40.082  51.170 -54.381  1.00  0.00     0.003 A 
HETATM   35  C   UNL     1     -40.124  52.263 -53.522  1.00  0.00     0.027 A 
ENDBRANCH  29  30
ENDBRANCH  28  29
ENDBRANCH  25  28
ENDBRANCH  24  25
ENDBRANCH   1  24
TORSDOF 8
ENDMDL
MODEL 3
REMARK VINA RESULT:      -8.4      3.442      7.966
REMARK  8 active torsions:
REMARK  status: ('A' for Active; 'I' for Inactive)
REMARK    1  A    between atoms: N_2  and  C_4 
REMARK    2  A    between atoms: N_2  and  C_27 
REMARK    3  A    between atoms: C_4  and  C_5 
REMARK    4  A    between atoms: C_8  and  C_9 
REMARK    5  A    between atoms: C_9  and  N_10 
REMARK       I    between atoms: N_10  and  C_11 
REMARK    6  A    between atoms: C_11  and  C_12 
REMARK    7  A    between atoms: C_27  and  C_28 
REMARK    8  A    between atoms: C_28  and  C_29 
ROOT
HETATM    1  C   UNL     1     -43.043  57.298 -51.328  1.00  0.00     0.041 C 
HETATM    2  C   UNL     1     -44.251  58.123 -51.868  1.00  0.00    -0.004 C 
HETATM    3  C   UNL     1     -43.968  58.595 -53.319  1.00  0.00     0.040 C 
HETATM    4  C   UNL     1     -42.829  59.632 -53.330  1.00  0.00     0.206 C 
HETATM    5  N   UNL     1     -42.147  59.520 -51.969  1.00  0.00    -0.065 N 
HETATM    6  H   UNL     1     -41.250  60.046 -52.019  1.00  0.00     0.280 HD
HETATM    7  C   UNL     1     -41.763  58.101 -51.600  1.00  0.00     0.242 C 
HETATM    8  C   UNL     1     -44.378  59.383 -50.974  1.00  0.00     0.032 C 
HETATM    9  C   UNL     1     -43.038  60.130 -50.909  1.00  0.00     0.236 C 
ENDROOT
BRANCH   4  10
HETATM   10  C   UNL     1     -41.851  59.486 -54.522  1.00  0.00     0.156 C 
BRANCH  10  11
HETATM   11  N   UNL     1     -42.429  58.838 -55.695  1.00  0.00    -0.355 N 
HETATM   12  C   UNL     1     -42.082  59.188 -56.982  1.00  0.00     0.251 C 
HETATM   13  O   UNL     1     -41.407  60.187 -57.219  1.00  0.00    -0.268 OA
HETATM   14  H   UNL     1     -42.844  57.918 -55.562  1.00  0.00     0.162 HD
BRANCH  12  15
HETATM   15  C   UNL     1     -42.589  58.328 -58.077  1.00  0.00     0.034 A 
HETATM   16  C   UNL     1     -42.974  57.004 -57.831  1.00  0.00     0.056 A 
HETATM   17  C   UNL     1     -43.482  56.286 -58.893  1.00  0.00     0.106 A 
HETATM   18  C   UNL     1     -43.606  56.829 -60.149  1.00  0.00     0.105 A 
HETATM   19  O   UNL     1     -43.924  55.002 -58.837  1.00  0.00    -0.323 OA
HETATM   20  O   UNL     1     -44.135  55.953 -61.042  1.00  0.00    -0.323 OA
HETATM   21  C   UNL     1     -43.235  58.128 -60.420  1.00  0.00     0.041 A 
HETATM   22  C   UNL     1     -44.351  54.797 -60.204  1.00  0.00     0.352 A 
HETATM   23  C   UNL     1     -42.726  58.891 -59.364  1.00  0.00     0.020 A 
ENDBRANCH  12  15
ENDBRANCH  10  11
ENDBRANCH   4  10
BRANCH   1  24
HETATM   24  C   UNL     1     -43.007  55.860 -51.888  1.00  0.00     0.241 C 
BRANCH  24  25
HETATM   25  N   UNL     1     -41.965  55.624 -52.958  1.00  0.00    -0.074 N 
HETATM   26  C   UNL     1     -42.624  55.259 -54.274  1.00  0.00     0.269 C 
HETATM   27  H   UNL     1     -41.441  56.503 -53.159  1.00  0.00     0.279 HD
BRANCH  25  28
HETATM   28  C   UNL     1     -40.866  54.628 -52.587  1.00  0.00     0.240 C 
BRANCH  28  29
HETATM   29  C   UNL     1     -40.491  53.701 -53.752  1.00  0.00     0.087 C 
BRANCH  29  30
HETATM   30  C   UNL     1     -40.226  52.267 -53.346  1.00  0.00     0.035 A 
HETATM   31  N   UNL     1     -39.825  52.029 -52.060  1.00  0.00    -0.266 NA
HETATM   32  C   UNL     1     -39.514  50.739 -51.754  1.00  0.00     0.117 A 
HETATM   33  C   UNL     1     -39.585  49.687 -52.649  1.00  0.00     0.019 A 
HETATM   34  C   UNL     1     -39.991  49.958 -53.948  1.00  0.00     0.003 A 
HETATM   35  C   UNL     1     -40.308  51.263 -54.308  1.00  0.00     0.027 A 
ENDBRANCH  29  30
ENDBRANCH  28  29
ENDBRANCH  25  28
ENDBRANCH  24  25
ENDBRANCH   1  24
TORSDOF 8
ENDMDL
MODEL 4
REMARK VINA RESULT:      -8.4      1.280      1.703
REMARK  8 active torsions:
REMARK  status: ('A' for Active; 'I' for Inactive)
REMARK    1  A    between atoms: N_2  and  C_4 
REMARK    2  A    between atoms: N_2  and  C_27 
REMARK    3  A    between atoms: C_4  and  C_5 
REMARK    4  A    between atoms: C_8  and  C_9 
REMARK    5  A    between atoms: C_9  and  N_10 
REMARK       I    between atoms: N_10  and  C_11 
REMARK    6  A    between atoms: C_11  and  C_12 
REMARK    7  A    between atoms: C_27  and  C_28 
REMARK    8  A    between atoms: C_28  and  C_29 
ROOT
HETATM    1  C   UNL     1     -43.484  57.040 -53.169  1.00  0.00     0.041 C 
HETATM    2  C   UNL     1     -42.058  57.670 -53.201  1.00  0.00    -0.004 C 
HETATM    3  C   UNL     1     -41.112  56.896 -52.245  1.00  0.00     0.040 C 
HETATM    4  C   UNL     1     -41.537  57.116 -50.781  1.00  0.00     0.206 C 
HETATM    5  N   UNL     1     -42.950  57.690 -50.836  1.00  0.00    -0.065 N 
HETATM    6  H   UNL     1     -43.347  57.649 -49.875  1.00  0.00     0.280 HD
HETATM    7  C   UNL     1     -43.898  56.881 -51.699  1.00  0.00     0.242 C 
HETATM    8  C   UNL     1     -42.189  59.121 -52.670  1.00  0.00     0.032 C 
HETATM    9  C   UNL     1     -42.890  59.129 -51.303  1.00  0.00     0.236 C 
ENDROOT
BRANCH   4  10
HETATM   10  C   UNL     1     -41.420  55.854 -49.891  1.00  0.00     0.156 C 
BRANCH  10  11
HETATM   11  N   UNL     1     -40.947  54.666 -50.596  1.00  0.00    -0.355 N 
HETATM   12  C   UNL     1     -40.571  53.515 -49.938  1.00  0.00     0.251 C 
HETATM   13  O   UNL     1     -40.436  53.483 -48.717  1.00  0.00    -0.268 OA
HETATM   14  H   UNL     1     -41.197  54.577 -51.579  1.00  0.00     0.162 HD
BRANCH  12  15
HETATM   15  C   UNL     1     -40.297  52.319 -50.771  1.00  0.00     0.034 A 
HETATM   16  C   UNL     1     -40.111  52.434 -52.154  1.00  0.00     0.056 A 
HETATM   17  C   UNL     1     -39.812  51.281 -52.849  1.00  0.00     0.106 A 
HETATM   18  C   UNL     1     -39.703  50.061 -52.227  1.00  0.00     0.105 A 
HETATM   19  O   UNL     1     -39.580  51.205 -54.186  1.00  0.00    -0.323 OA
HETATM   20  O   UNL     1     -39.395  49.063 -53.096  1.00  0.00    -0.323 OA
HETATM   21  C   UNL     1     -39.881  49.918 -50.868  1.00  0.00     0.041 A 
HETATM   22  C   UNL     1     -39.301  49.793 -54.338  1.00  0.00     0.352 A 
HETATM   23  C   UNL     1     -40.175  51.069 -50.128  1.00  0.00     0.020 A 
ENDBRANCH  12  15
ENDBRANCH  10  11
ENDBRANCH   4  10
BRANCH   1  24
HETATM   24  C   UNL     1     -43.575  55.733 -53.985  1.00  0.00     0.241 C 
BRANCH  24  25
HETATM   25  N   UNL     1     -43.728  55.928 -55.477  1.00  0.00    -0.074 N 
HETATM   26  C   UNL     1     -42.760  55.039 -56.234  1.00  0.00     0.269 C 
HETATM   27  H   UNL     1     -44.673  55.619 -55.792  1.00  0.00     0.279 HD
BRANCH  25  28
HETATM   28  C   UNL     1     -43.647  57.379 -55.955  1.00  0.00     0.240 C 
BRANCH  28  29
HETATM   29  C   UNL     1     -42.390  57.656 -56.793  1.00  0.00     0.087 C 
BRANCH  29  30
HETATM   30  C   UNL     1     -42.669  58.261 -58.152  1.00  0.00     0.035 A 
HETATM   31  N   UNL     1     -43.421  57.536 -59.034  1.00  0.00    -0.266 NA
HETATM   32  C   UNL     1     -43.580  58.072 -60.276  1.00  0.00     0.117 A 
HETATM   33  C   UNL     1     -43.040  59.280 -60.678  1.00  0.00     0.019 A 
HETATM   34  C   UNL     1     -42.277  59.994 -59.763  1.00  0.00     0.003 A 
HETATM   35  C   UNL     1     -42.080  59.478 -58.486  1.00  0.00     0.027 A 
ENDBRANCH  29  30
ENDBRANCH  28  29
ENDBRANCH  25  28
ENDBRANCH  24  25
ENDBRANCH   1  24
TORSDOF 8
ENDMDL
MODEL 5
REMARK VINA RESULT:      -8.1      1.883      3.098
REMARK  8 active torsions:
REMARK  status: ('A' for Active; 'I' for Inactive)
REMARK    1  A    between atoms: N_2  and  C_4 
REMARK    2  A    between atoms: N_2  and  C_27 
REMARK    3  A    between atoms: C_4  and  C_5 
REMARK    4  A    between atoms: C_8  and  C_9 
REMARK    5  A    between atoms: C_9  and  N_10 
REMARK       I    between atoms: N_10  and  C_11 
REMARK    6  A    between atoms: C_11  and  C_12 
REMARK    7  A    between atoms: C_27  and  C_28 
REMARK    8  A    between atoms: C_28  and  C_29 
ROOT
HETATM    1  C   UNL     1     -44.554  59.148 -54.322  1.00  0.00     0.041 C 
HETATM    2  C   UNL     1     -43.941  59.716 -53.005  1.00  0.00    -0.004 C 
HETATM    3  C   UNL     1     -42.455  59.290 -52.882  1.00  0.00     0.040 C 
HETATM    4  C   UNL     1     -42.352  57.769 -52.665  1.00  0.00     0.206 C 
HETATM    5  N   UNL     1     -43.718  57.198 -53.037  1.00  0.00    -0.065 N 
HETATM    6  H   UNL     1     -43.621  56.165 -53.109  1.00  0.00     0.280 HD
HETATM    7  C   UNL     1     -44.212  57.653 -54.396  1.00  0.00     0.242 C 
HETATM    8  C   UNL     1     -44.719  59.075 -51.827  1.00  0.00     0.032 C 
HETATM    9  C   UNL     1     -44.718  57.545 -51.956  1.00  0.00     0.236 C 
ENDROOT
BRANCH   4  10
HETATM   10  C   UNL     1     -41.178  57.098 -53.421  1.00  0.00     0.156 C 
BRANCH  10  11
HETATM   11  N   UNL     1     -40.981  55.690 -53.091  1.00  0.00    -0.355 N 
HETATM   12  C   UNL     1     -40.866  54.712 -54.056  1.00  0.00     0.251 C 
HETATM   13  O   UNL     1     -41.107  54.940 -55.238  1.00  0.00    -0.268 OA
HETATM   14  H   UNL     1     -40.609  55.475 -52.168  1.00  0.00     0.162 HD
BRANCH  12  15
HETATM   15  C   UNL     1     -40.474  53.357 -53.601  1.00  0.00     0.034 A 
HETATM   16  C   UNL     1     -40.339  53.067 -52.237  1.00  0.00     0.056 A 
HETATM   17  C   UNL     1     -40.019  51.770 -51.896  1.00  0.00     0.106 A 
HETATM   18  C   UNL     1     -39.832  50.791 -52.841  1.00  0.00     0.105 A 
HETATM   19  O   UNL     1     -39.869  51.304 -50.628  1.00  0.00    -0.323 OA
HETATM   20  O   UNL     1     -39.534  49.587 -52.286  1.00  0.00    -0.323 OA
HETATM   21  C   UNL     1     -39.958  51.047 -54.189  1.00  0.00     0.041 A 
HETATM   22  C   UNL     1     -39.573  49.910 -50.880  1.00  0.00     0.352 A 
HETATM   23  C   UNL     1     -40.293  52.350 -54.573  1.00  0.00     0.020 A 
ENDBRANCH  12  15
ENDBRANCH  10  11
ENDBRANCH   4  10
BRANCH   1  24
HETATM   24  C   UNL     1     -44.125  59.947 -55.571  1.00  0.00     0.241 C 
BRANCH  24  25
HETATM   25  N   UNL     1     -43.739  59.100 -56.762  1.00  0.00    -0.074 N 
HETATM   26  C   UNL     1     -42.241  59.151 -56.992  1.00  0.00     0.269 C 
HETATM   27  H   UNL     1     -43.944  58.094 -56.578  1.00  0.00     0.279 HD
BRANCH  25  28
HETATM   28  C   UNL     1     -44.513  59.394 -58.048  1.00  0.00     0.240 C 
BRANCH  28  29
HETATM   29  C   UNL     1     -45.706  58.448 -58.250  1.00  0.00     0.087 C 
BRANCH  29  30
HETATM   30  C   UNL     1     -45.379  57.191 -59.027  1.00  0.00     0.035 A 
HETATM   31  N   UNL     1     -44.154  56.616 -58.830  1.00  0.00    -0.266 NA
HETATM   32  C   UNL     1     -43.861  55.537 -59.608  1.00  0.00     0.117 A 
HETATM   33  C   UNL     1     -44.716  55.004 -60.555  1.00  0.00     0.019 A 
HETATM   34  C   UNL     1     -45.952  55.610 -60.737  1.00  0.00     0.003 A 
HETATM   35  C   UNL     1     -46.289  56.722 -59.972  1.00  0.00     0.027 A 
ENDBRANCH  29  30
ENDBRANCH  28  29
ENDBRANCH  25  28
ENDBRANCH  24  25
ENDBRANCH   1  24
TORSDOF 8
ENDMDL
MODEL 6
REMARK VINA RESULT:      -8.1      3.723      8.747
REMARK  8 active torsions:
REMARK  status: ('A' for Active; 'I' for Inactive)
REMARK    1  A    between atoms: N_2  and  C_4 
REMARK    2  A    between atoms: N_2  and  C_27 
REMARK    3  A    between atoms: C_4  and  C_5 
REMARK    4  A    between atoms: C_8  and  C_9 
REMARK    5  A    between atoms: C_9  and  N_10 
REMARK       I    between atoms: N_10  and  C_11 
REMARK    6  A    between atoms: C_11  and  C_12 
REMARK    7  A    between atoms: C_27  and  C_28 
REMARK    8  A    between atoms: C_28  and  C_29 
ROOT
HETATM    1  C   UNL     1     -41.905  56.280 -50.517  1.00  0.00     0.041 C 
HETATM    2  C   UNL     1     -43.184  55.462 -50.873  1.00  0.00    -0.004 C 
HETATM    3  C   UNL     1     -43.074  54.899 -52.314  1.00  0.00     0.040 C 
HETATM    4  C   UNL     1     -43.122  56.046 -53.340  1.00  0.00     0.206 C 
HETATM    5  N   UNL     1     -42.870  57.327 -52.549  1.00  0.00    -0.065 N 
HETATM    6  H   UNL     1     -42.682  58.090 -53.231  1.00  0.00     0.280 HD
HETATM    7  C   UNL     1     -41.638  57.261 -51.668  1.00  0.00     0.242 C 
HETATM    8  C   UNL     1     -44.381  56.448 -50.837  1.00  0.00     0.032 C 
HETATM    9  C   UNL     1     -44.099  57.663 -51.732  1.00  0.00     0.236 C 
ENDROOT
BRANCH   4  10
HETATM   10  C   UNL     1     -42.158  55.865 -54.539  1.00  0.00     0.156 C 
BRANCH  10  11
HETATM   11  N   UNL     1     -42.620  56.485 -55.777  1.00  0.00    -0.355 N 
HETATM   12  C   UNL     1     -42.413  57.819 -56.060  1.00  0.00     0.251 C 
HETATM   13  O   UNL     1     -41.994  58.601 -55.210  1.00  0.00    -0.268 OA
HETATM   14  H   UNL     1     -42.809  55.869 -56.565  1.00  0.00     0.162 HD
BRANCH  12  15
HETATM   15  C   UNL     1     -42.754  58.281 -57.426  1.00  0.00     0.034 A 
HETATM   16  C   UNL     1     -43.480  59.462 -57.625  1.00  0.00     0.056 A 
HETATM   17  C   UNL     1     -43.713  59.848 -58.928  1.00  0.00     0.106 A 
HETATM   18  C   UNL     1     -43.265  59.113 -59.999  1.00  0.00     0.105 A 
HETATM   19  O   UNL     1     -44.377  60.970 -59.311  1.00  0.00    -0.323 OA
HETATM   20  O   UNL     1     -43.596  59.677 -61.189  1.00  0.00    -0.323 OA
HETATM   21  C   UNL     1     -42.549  57.947 -59.833  1.00  0.00     0.041 A 
HETATM   22  C   UNL     1     -44.290  60.865 -60.751  1.00  0.00     0.352 A 
HETATM   23  C   UNL     1     -42.283  57.530 -58.524  1.00  0.00     0.020 A 
ENDBRANCH  12  15
ENDBRANCH  10  11
ENDBRANCH   4  10
BRANCH   1  24
HETATM   24  C   UNL     1     -40.700  55.381 -50.174  1.00  0.00     0.241 C 
BRANCH  24  25
HETATM   25  N   UNL     1     -41.042  54.139 -49.382  1.00  0.00    -0.074 N 
HETATM   26  C   UNL     1     -40.399  54.185 -48.010  1.00  0.00     0.269 C 
HETATM   27  H   UNL     1     -42.067  54.096 -49.192  1.00  0.00     0.279 HD
BRANCH  25  28
HETATM   28  C   UNL     1     -40.755  52.815 -50.091  1.00  0.00     0.240 C 
BRANCH  28  29
HETATM   29  C   UNL     1     -39.809  52.979 -51.290  1.00  0.00     0.087 C 
BRANCH  29  30
HETATM   30  C   UNL     1     -39.850  51.834 -52.278  1.00  0.00     0.035 A 
HETATM   31  N   UNL     1     -39.559  50.580 -51.818  1.00  0.00    -0.266 NA
HETATM   32  C   UNL     1     -39.523  49.588 -52.751  1.00  0.00     0.117 A 
HETATM   33  C   UNL     1     -39.763  49.777 -54.099  1.00  0.00     0.019 A 
HETATM   34  C   UNL     1     -40.052  51.062 -54.539  1.00  0.00     0.003 A 
HETATM   35  C   UNL     1     -40.090  52.107 -53.623  1.00  0.00     0.027 A 
ENDBRANCH  29  30
ENDBRANCH  28  29
ENDBRANCH  25  28
ENDBRANCH  24  25
ENDBRANCH   1  24
TORSDOF 8
ENDMDL
MODEL 7
REMARK VINA RESULT:      -7.8      3.746      8.146
REMARK  8 active torsions:
REMARK  status: ('A' for Active; 'I' for Inactive)
REMARK    1  A    between atoms: N_2  and  C_4 
REMARK    2  A    between atoms: N_2  and  C_27 
REMARK    3  A    between atoms: C_4  and  C_5 
REMARK    4  A    between atoms: C_8  and  C_9 
REMARK    5  A    between atoms: C_9  and  N_10 
REMARK       I    between atoms: N_10  and  C_11 
REMARK    6  A    between atoms: C_11  and  C_12 
REMARK    7  A    between atoms: C_27  and  C_28 
REMARK    8  A    between atoms: C_28  and  C_29 
ROOT
HETATM    1  C   UNL     1     -42.997  57.861 -53.633  1.00  0.00     0.041 C 
HETATM    2  C   UNL     1     -44.123  58.774 -53.057  1.00  0.00    -0.004 C 
HETATM    3  C   UNL     1     -44.467  59.899 -54.068  1.00  0.00     0.040 C 
HETATM    4  C   UNL     1     -43.285  60.877 -54.201  1.00  0.00     0.206 C 
HETATM    5  N   UNL     1     -42.081  60.165 -53.588  1.00  0.00    -0.065 N 
HETATM    6  H   UNL     1     -41.228  60.701 -53.851  1.00  0.00     0.280 HD
HETATM    7  C   UNL     1     -41.864  58.768 -54.134  1.00  0.00     0.242 C 
HETATM    8  C   UNL     1     -43.557  59.441 -51.776  1.00  0.00     0.032 C 
HETATM    9  C   UNL     1     -42.225  60.141 -52.082  1.00  0.00     0.236 C 
ENDROOT
BRANCH   4  10
HETATM   10  C   UNL     1     -43.034  61.377 -55.645  1.00  0.00     0.156 C 
BRANCH  10  11
HETATM   11  N   UNL     1     -43.348  60.397 -56.680  1.00  0.00    -0.355 N 
HETATM   12  C   UNL     1     -42.379  59.818 -57.471  1.00  0.00     0.251 C 
HETATM   13  O   UNL     1     -41.221  60.228 -57.476  1.00  0.00    -0.268 OA
HETATM   14  H   UNL     1     -44.237  59.906 -56.603  1.00  0.00     0.162 HD
BRANCH  12  15
HETATM   15  C   UNL     1     -42.801  58.699 -58.347  1.00  0.00     0.034 A 
HETATM   16  C   UNL     1     -44.125  58.243 -58.343  1.00  0.00     0.056 A 
HETATM   17  C   UNL     1     -44.447  57.232 -59.223  1.00  0.00     0.106 A 
HETATM   18  C   UNL     1     -43.519  56.678 -60.071  1.00  0.00     0.105 A 
HETATM   19  O   UNL     1     -45.681  56.681 -59.373  1.00  0.00    -0.323 OA
HETATM   20  O   UNL     1     -44.050  55.705 -60.856  1.00  0.00    -0.323 OA
HETATM   21  C   UNL     1     -42.209  57.106 -60.096  1.00  0.00     0.041 A 
HETATM   22  C   UNL     1     -45.428  55.718 -60.423  1.00  0.00     0.352 A 
HETATM   23  C   UNL     1     -41.848  58.140 -59.225  1.00  0.00     0.020 A 
ENDBRANCH  12  15
ENDBRANCH  10  11
ENDBRANCH   4  10
BRANCH   1  24
HETATM   24  C   UNL     1     -43.520  56.873 -54.697  1.00  0.00     0.241 C 
BRANCH  24  25
HETATM   25  N   UNL     1     -42.629  55.675 -54.939  1.00  0.00    -0.074 N 
HETATM   26  C   UNL     1     -42.527  55.376 -56.422  1.00  0.00     0.269 C 
HETATM   27  H   UNL     1     -41.650  55.880 -54.642  1.00  0.00     0.279 HD
BRANCH  25  28
HETATM   28  C   UNL     1     -42.991  54.423 -54.139  1.00  0.00     0.240 C 
BRANCH  28  29
HETATM   29  C   UNL     1     -41.755  53.645 -53.666  1.00  0.00     0.087 C 
BRANCH  29  30
HETATM   30  C   UNL     1     -41.262  54.036 -52.289  1.00  0.00     0.035 A 
HETATM   31  N   UNL     1     -41.605  55.271 -51.813  1.00  0.00    -0.266 NA
HETATM   32  C   UNL     1     -41.074  55.623 -50.609  1.00  0.00     0.117 A 
HETATM   33  C   UNL     1     -40.234  54.816 -49.862  1.00  0.00     0.019 A 
HETATM   34  C   UNL     1     -39.899  53.569 -50.372  1.00  0.00     0.003 A 
HETATM   35  C   UNL     1     -40.410  53.173 -51.603  1.00  0.00     0.027 A 
ENDBRANCH  29  30
ENDBRANCH  28  29
ENDBRANCH  25  28
ENDBRANCH  24  25
ENDBRANCH   1  24
TORSDOF 8
ENDMDL
MODEL 8
REMARK VINA RESULT:      -7.8      2.075      5.807
REMARK  8 active torsions:
REMARK  status: ('A' for Active; 'I' for Inactive)
REMARK    1  A    between atoms: N_2  and  C_4 
REMARK    2  A    between atoms: N_2  and  C_27 
REMARK    3  A    between atoms: C_4  and  C_5 
REMARK    4  A    between atoms: C_8  and  C_9 
REMARK    5  A    between atoms: C_9  and  N_10 
REMARK       I    between atoms: N_10  and  C_11 
REMARK    6  A    between atoms: C_11  and  C_12 
REMARK    7  A    between atoms: C_27  and  C_28 
REMARK    8  A    between atoms: C_28  and  C_29 
ROOT
HETATM    1  C   UNL     1     -43.033  59.707 -56.381  1.00  0.00     0.041 C 
HETATM    2  C   UNL     1     -44.172  58.909 -57.085  1.00  0.00    -0.004 C 
HETATM    3  C   UNL     1     -44.726  57.817 -56.133  1.00  0.00     0.040 C 
HETATM    4  C   UNL     1     -43.662  56.730 -55.892  1.00  0.00     0.206 C 
HETATM    5  N   UNL     1     -42.338  57.326 -56.365  1.00  0.00    -0.065 N 
HETATM    6  H   UNL     1     -41.573  56.710 -56.023  1.00  0.00     0.280 HD
HETATM    7  C   UNL     1     -42.049  58.693 -55.779  1.00  0.00     0.242 C 
HETATM    8  C   UNL     1     -43.541  58.197 -58.310  1.00  0.00     0.032 C 
HETATM    9  C   UNL     1     -42.320  57.372 -57.877  1.00  0.00     0.236 C 
ENDROOT
BRANCH   4  10
HETATM   10  C   UNL     1     -43.614  56.200 -54.437  1.00  0.00     0.156 C 
BRANCH  10  11
HETATM   11  N   UNL     1     -42.835  54.977 -54.271  1.00  0.00    -0.355 N 
HETATM   12  C   UNL     1     -41.521  54.986 -53.855  1.00  0.00     0.251 C 
HETATM   13  O   UNL     1     -40.876  56.029 -53.778  1.00  0.00    -0.268 OA
HETATM   14  H   UNL     1     -43.352  54.108 -54.153  1.00  0.00     0.162 HD
BRANCH  12  15
HETATM   15  C   UNL     1     -40.904  53.677 -53.537  1.00  0.00     0.034 A 
HETATM   16  C   UNL     1     -40.729  53.267 -52.210  1.00  0.00     0.056 A 
HETATM   17  C   UNL     1     -40.192  52.014 -52.000  1.00  0.00     0.106 A 
HETATM   18  C   UNL     1     -39.833  51.190 -53.039  1.00  0.00     0.105 A 
HETATM   19  O   UNL     1     -39.971  51.445 -50.786  1.00  0.00    -0.323 OA
HETATM   20  O   UNL     1     -39.335  50.002 -52.609  1.00  0.00    -0.323 OA
HETATM   21  C   UNL     1     -39.994  51.567 -54.355  1.00  0.00     0.041 A 
HETATM   22  C   UNL     1     -39.437  50.158 -51.178  1.00  0.00     0.352 A 
HETATM   23  C   UNL     1     -40.546  52.828 -54.607  1.00  0.00     0.020 A 
ENDBRANCH  12  15
ENDBRANCH  10  11
ENDBRANCH   4  10
BRANCH   1  24
HETATM   24  C   UNL     1     -43.568  60.735 -55.362  1.00  0.00     0.241 C 
BRANCH  24  25
HETATM   25  N   UNL     1     -43.623  60.241 -53.934  1.00  0.00    -0.074 N 
HETATM   26  C   UNL     1     -44.979  60.530 -53.321  1.00  0.00     0.269 C 
HETATM   27  H   UNL     1     -43.534  59.202 -53.902  1.00  0.00     0.279 HD
BRANCH  25  28
HETATM   28  C   UNL     1     -42.486  60.726 -53.034  1.00  0.00     0.240 C 
BRANCH  28  29
HETATM   29  C   UNL     1     -42.699  60.351 -51.560  1.00  0.00     0.087 C 
BRANCH  29  30
HETATM   30  C   UNL     1     -42.448  58.892 -51.246  1.00  0.00     0.035 A 
HETATM   31  N   UNL     1     -43.508  58.030 -51.315  1.00  0.00    -0.266 NA
HETATM   32  C   UNL     1     -43.264  56.742 -50.944  1.00  0.00     0.117 A 
HETATM   33  C   UNL     1     -42.035  56.274 -50.518  1.00  0.00     0.019 A 
HETATM   34  C   UNL     1     -40.978  57.171 -50.453  1.00  0.00     0.003 A 
HETATM   35  C   UNL     1     -41.184  58.499 -50.813  1.00  0.00     0.027 A 
ENDBRANCH  29  30
ENDBRANCH  28  29
ENDBRANCH  25  28
ENDBRANCH  24  25
ENDBRANCH   1  24
TORSDOF 8
ENDMDL
MODEL 9
REMARK VINA RESULT:      -7.6      3.354      8.170
REMARK  8 active torsions:
REMARK  status: ('A' for Active; 'I' for Inactive)
REMARK    1  A    between atoms: N_2  and  C_4 
REMARK    2  A    between atoms: N_2  and  C_27 
REMARK    3  A    between atoms: C_4  and  C_5 
REMARK    4  A    between atoms: C_8  and  C_9 
REMARK    5  A    between atoms: C_9  and  N_10 
REMARK       I    between atoms: N_10  and  C_11 
REMARK    6  A    between atoms: C_11  and  C_12 
REMARK    7  A    between atoms: C_27  and  C_28 
REMARK    8  A    between atoms: C_28  and  C_29 
ROOT
HETATM    1  C   UNL     1     -43.063  58.831 -51.150  1.00  0.00     0.041 C 
HETATM    2  C   UNL     1     -44.339  58.066 -51.616  1.00  0.00    -0.004 C 
HETATM    3  C   UNL     1     -44.521  58.216 -53.149  1.00  0.00     0.040 C 
HETATM    4  C   UNL     1     -44.864  59.675 -53.505  1.00  0.00     0.206 C 
HETATM    5  N   UNL     1     -44.516  60.501 -52.269  1.00  0.00    -0.065 N 
HETATM    6  H   UNL     1     -44.531  61.505 -52.543  1.00  0.00     0.280 HD
HETATM    7  C   UNL     1     -43.117  60.246 -51.746  1.00  0.00     0.242 C 
HETATM    8  C   UNL     1     -45.552  58.739 -50.924  1.00  0.00     0.032 C 
HETATM    9  C   UNL     1     -45.549  60.251 -51.191  1.00  0.00     0.236 C 
ENDROOT
BRANCH   4  10
HETATM   10  C   UNL     1     -44.184  60.189 -54.798  1.00  0.00     0.156 C 
BRANCH  10  11
HETATM   11  N   UNL     1     -44.652  59.539 -56.018  1.00  0.00    -0.355 N 
HETATM   12  C   UNL     1     -43.863  58.674 -56.747  1.00  0.00     0.251 C 
HETATM   13  O   UNL     1     -42.664  58.544 -56.514  1.00  0.00    -0.268 OA
HETATM   14  H   UNL     1     -45.659  59.473 -56.155  1.00  0.00     0.162 HD
BRANCH  12  15
HETATM   15  C   UNL     1     -44.516  57.931 -57.851  1.00  0.00     0.034 A 
HETATM   16  C   UNL     1     -43.775  57.078 -58.679  1.00  0.00     0.056 A 
HETATM   17  C   UNL     1     -44.466  56.385 -59.651  1.00  0.00     0.106 A 
HETATM   18  C   UNL     1     -45.823  56.519 -59.818  1.00  0.00     0.105 A 
HETATM   19  O   UNL     1     -43.919  55.502 -60.528  1.00  0.00    -0.323 OA
HETATM   20  O   UNL     1     -46.299  55.741 -60.825  1.00  0.00    -0.323 OA
HETATM   21  C   UNL     1     -46.577  57.350 -59.018  1.00  0.00     0.041 A 
HETATM   22  C   UNL     1     -45.092  55.084 -61.265  1.00  0.00     0.352 A 
HETATM   23  C   UNL     1     -45.911  58.061 -58.013  1.00  0.00     0.020 A 
ENDBRANCH  12  15
ENDBRANCH  10  11
ENDBRANCH   4  10
BRANCH   1  24
HETATM   24  C   UNL     1     -41.760  58.070 -51.474  1.00  0.00     0.241 C 
BRANCH  24  25
HETATM   25  N   UNL     1     -41.863  56.565 -51.362  1.00  0.00    -0.074 N 
HETATM   26  C   UNL     1     -41.153  56.071 -50.116  1.00  0.00     0.269 C 
HETATM   27  H   UNL     1     -42.857  56.274 -51.233  1.00  0.00     0.279 HD
BRANCH  25  28
HETATM   28  C   UNL     1     -41.421  55.789 -52.603  1.00  0.00     0.240 C 
BRANCH  28  29
HETATM   29  C   UNL     1     -42.101  54.417 -52.716  1.00  0.00     0.087 C 
BRANCH  29  30
HETATM   30  C   UNL     1     -41.146  53.266 -52.955  1.00  0.00     0.035 A 
HETATM   31  N   UNL     1     -41.195  52.634 -54.166  1.00  0.00    -0.266 NA
HETATM   32  C   UNL     1     -40.383  51.550 -54.315  1.00  0.00     0.117 A 
HETATM   33  C   UNL     1     -39.532  51.075 -53.334  1.00  0.00     0.019 A 
HETATM   34  C   UNL     1     -39.505  51.734 -52.113  1.00  0.00     0.003 A 
HETATM   35  C   UNL     1     -40.326  52.839 -51.913  1.00  0.00     0.027 A 
ENDBRANCH  29  30
ENDBRANCH  28  29
ENDBRANCH  25  28
ENDBRANCH  24  25
ENDBRANCH   1  24
TORSDOF 8
ENDMDL
MODEL 10
REMARK VINA RESULT:      -7.6      2.250      3.685
REMARK  8 active torsions:
REMARK  status: ('A' for Active; 'I' for Inactive)
REMARK    1  A    between atoms: N_2  and  C_4 
REMARK    2  A    between atoms: N_2  and  C_27 
REMARK    3  A    between atoms: C_4  and  C_5 
REMARK    4  A    between atoms: C_8  and  C_9 
REMARK    5  A    between atoms: C_9  and  N_10 
REMARK       I    between atoms: N_10  and  C_11 
REMARK    6  A    between atoms: C_11  and  C_12 
REMARK    7  A    between atoms: C_27  and  C_28 
REMARK    8  A    between atoms: C_28  and  C_29 
ROOT
HETATM    1  C   UNL     1     -44.029  59.185 -52.509  1.00  0.00     0.041 C 
HETATM    2  C   UNL     1     -42.568  59.560 -52.902  1.00  0.00    -0.004 C 
HETATM    3  C   UNL     1     -42.066  58.631 -54.038  1.00  0.00     0.040 C 
HETATM    4  C   UNL     1     -41.908  57.190 -53.518  1.00  0.00     0.206 C 
HETATM    5  N   UNL     1     -42.669  57.135 -52.195  1.00  0.00    -0.065 N 
HETATM    6  H   UNL     1     -42.765  56.135 -51.926  1.00  0.00     0.280 HD
HETATM    7  C   UNL     1     -44.085  57.666 -52.291  1.00  0.00     0.242 C 
HETATM    8  C   UNL     1     -41.682  59.308 -51.654  1.00  0.00     0.032 C 
HETATM    9  C   UNL     1     -41.885  57.877 -51.135  1.00  0.00     0.236 C 
ENDROOT
BRANCH   4  10
HETATM   10  C   UNL     1     -42.350  56.100 -54.526  1.00  0.00     0.156 C 
BRANCH  10  11
HETATM   11  N   UNL     1     -41.941  54.747 -54.162  1.00  0.00    -0.355 N 
HETATM   12  C   UNL     1     -40.660  54.280 -54.365  1.00  0.00     0.251 C 
HETATM   13  O   UNL     1     -39.841  54.909 -55.030  1.00  0.00    -0.268 OA
HETATM   14  H   UNL     1     -42.507  54.259 -53.471  1.00  0.00     0.162 HD
BRANCH  12  15
HETATM   15  C   UNL     1     -40.320  52.962 -53.777  1.00  0.00     0.034 A 
HETATM   16  C   UNL     1     -40.242  52.794 -52.388  1.00  0.00     0.056 A 
HETATM   17  C   UNL     1     -39.969  51.526 -51.920  1.00  0.00     0.106 A 
HETATM   18  C   UNL     1     -39.772  50.461 -52.766  1.00  0.00     0.105 A 
HETATM   19  O   UNL     1     -39.877  51.173 -50.611  1.00  0.00    -0.323 OA
HETATM   20  O   UNL     1     -39.526  49.306 -52.096  1.00  0.00    -0.323 OA
HETATM   21  C   UNL     1     -39.843  50.598 -54.136  1.00  0.00     0.041 A 
HETATM   22  C   UNL     1     -39.608  49.755 -50.726  1.00  0.00     0.352 A 
HETATM   23  C   UNL     1     -40.129  51.869 -54.647  1.00  0.00     0.020 A 
ENDBRANCH  12  15
ENDBRANCH  10  11
ENDBRANCH   4  10
BRANCH   1  24
HETATM   24  C   UNL     1     -45.070  59.707 -53.522  1.00  0.00     0.241 C 
BRANCH  24  25
HETATM   25  N   UNL     1     -44.794  61.095 -54.055  1.00  0.00    -0.074 N 
HETATM   26  C   UNL     1     -45.850  62.072 -53.576  1.00  0.00     0.269 C 
HETATM   27  H   UNL     1     -43.897  61.464 -53.669  1.00  0.00     0.279 HD
BRANCH  25  28
HETATM   28  C   UNL     1     -44.595  61.183 -55.569  1.00  0.00     0.240 C 
BRANCH  28  29
HETATM   29  C   UNL     1     -45.217  59.995 -56.317  1.00  0.00     0.087 C 
BRANCH  29  30
HETATM   30  C   UNL     1     -44.225  59.169 -57.108  1.00  0.00     0.035 A 
HETATM   31  N   UNL     1     -44.516  57.850 -57.322  1.00  0.00    -0.266 NA
HETATM   32  C   UNL     1     -43.563  57.118 -57.963  1.00  0.00     0.117 A 
HETATM   33  C   UNL     1     -42.354  57.626 -58.400  1.00  0.00     0.019 A 
HETATM   34  C   UNL     1     -42.083  58.968 -58.166  1.00  0.00     0.003 A 
HETATM   35  C   UNL     1     -43.023  59.750 -57.505  1.00  0.00     0.027 A 
ENDBRANCH  29  30
ENDBRANCH  28  29
ENDBRANCH  25  28
ENDBRANCH  24  25
ENDBRANCH   1  24
TORSDOF 8
ENDMDL
