MODEL 1
REMARK VINA RESULT:      -8.2      0.000      0.000
REMARK  6 active torsions:
REMARK  status: ('A' for Active; 'I' for Inactive)
REMARK    1  A    between atoms: O_2  and  C_3 
REMARK    2  A    between atoms: C_7  and  O_8 
REMARK    3  A    between atoms: O_8  and  C_9 
REMARK    4  A    between atoms: C_9  and  C_10 
REMARK    5  A    between atoms: C_13  and  O_14 
REMARK    6  A    between atoms: C_17  and  C_23 
ROOT
HETATM    1  C   UNL     1     -41.674  57.437 -51.387  1.00  0.00     0.132 A 
HETATM    2  N   UNL     1     -41.420  56.842 -52.507  1.00  0.00    -0.229 NA
HETATM    3  C   UNL     1     -41.074  55.473 -52.481  1.00  0.00     0.108 A 
HETATM    4  C   UNL     1     -40.829  54.783 -53.683  1.00  0.00     0.098 A 
HETATM    5  C   UNL     1     -40.460  53.428 -53.652  1.00  0.00     0.051 A 
HETATM    6  C   UNL     1     -40.346  52.732 -52.436  1.00  0.00    -0.019 A 
HETATM    7  C   UNL     1     -40.611  53.413 -51.246  1.00  0.00     0.032 A 
HETATM    8  C   UNL     1     -40.972  54.765 -51.279  1.00  0.00     0.064 A 
HETATM    9  C   UNL     1     -41.270  55.487 -50.030  1.00  0.00     0.259 A 
HETATM   10  O   UNL     1     -41.229  54.939 -48.936  1.00  0.00    -0.267 OA
HETATM   11  N   UNL     1     -41.603  56.807 -50.173  1.00  0.00    -0.309 N 
HETATM   12  H   UNL     1     -41.868  57.302 -49.331  1.00  0.00     0.170 HD
ENDROOT
BRANCH   1  13
HETATM   13  C   UNL     1     -42.029  58.911 -51.344  1.00  0.00     0.254 C 
BRANCH  13  14
HETATM   14  O   UNL     1     -43.443  59.006 -51.177  1.00  0.00    -0.344 OA
BRANCH  14  15
HETATM   15  C   UNL     1     -43.867  60.172 -50.598  1.00  0.00     0.071 A 
HETATM   16  C   UNL     1     -42.978  61.243 -50.677  1.00  0.00     0.037 A 
HETATM   17  C   UNL     1     -43.324  62.480 -50.137  1.00  0.00     0.005 A 
HETATM   18  C   UNL     1     -44.573  62.648 -49.540  1.00  0.00     0.037 A 
HETATM   19  C   UNL     1     -45.483  61.589 -49.485  1.00  0.00     0.070 A 
HETATM   20  C   UNL     1     -45.126  60.345 -50.014  1.00  0.00     0.073 A 
BRANCH  19  21
HETATM   21  O   UNL     1     -46.679  61.898 -48.895  1.00  0.00    -0.356 OA
HETATM   22  C   UNL     1     -46.651  62.214 -47.509  1.00  0.00     0.210 C 
ENDBRANCH  19  21
ENDBRANCH  14  15
ENDBRANCH  13  14
ENDBRANCH   1  13
BRANCH   4  23
HETATM   23  O   UNL     1     -40.950  55.518 -54.837  1.00  0.00    -0.354 OA
HETATM   24  C   UNL     1     -42.027  55.193 -55.706  1.00  0.00     0.210 C 
ENDBRANCH   4  23
BRANCH   6  25
HETATM   25  C   UNL     1     -39.950  51.332 -52.431  1.00  0.00     0.010 A 
HETATM   26  C   UNL     1     -39.792  50.408 -53.493  1.00  0.00     0.152 A 
HETATM   27  N   UNL     1     -39.419  49.196 -53.076  1.00  0.00    -0.187 NA
HETATM   28  N   UNL     1     -39.330  49.336 -51.745  1.00  0.00    -0.289 N 
HETATM   29  H   UNL     1     -39.053  48.529 -51.193  1.00  0.00     0.188 HD
HETATM   30  C   UNL     1     -39.640  50.592 -51.309  1.00  0.00     0.123 A 
ENDBRANCH   6  25
TORSDOF 6
ENDMDL
MODEL 2
REMARK VINA RESULT:      -8.2      2.426      3.701
REMARK  6 active torsions:
REMARK  status: ('A' for Active; 'I' for Inactive)
REMARK    1  A    between atoms: O_2  and  C_3 
REMARK    2  A    between atoms: C_7  and  O_8 
REMARK    3  A    between atoms: O_8  and  C_9 
REMARK    4  A    between atoms: C_9  and  C_10 
REMARK    5  A    between atoms: C_13  and  O_14 
REMARK    6  A    between atoms: C_17  and  C_23 
ROOT
HETATM    1  C   UNL     1     -41.943  57.203 -51.289  1.00  0.00     0.132 A 
HETATM    2  N   UNL     1     -41.630  56.649 -52.414  1.00  0.00    -0.229 NA
HETATM    3  C   UNL     1     -41.227  55.295 -52.413  1.00  0.00     0.108 A 
HETATM    4  C   UNL     1     -40.917  54.649 -53.624  1.00  0.00     0.098 A 
HETATM    5  C   UNL     1     -40.492  53.310 -53.616  1.00  0.00     0.051 A 
HETATM    6  C   UNL     1     -40.384  52.587 -52.415  1.00  0.00    -0.019 A 
HETATM    7  C   UNL     1     -40.713  53.225 -51.217  1.00  0.00     0.032 A 
HETATM    8  C   UNL     1     -41.131  54.561 -51.227  1.00  0.00     0.064 A 
HETATM    9  C   UNL     1     -41.496  55.236 -49.970  1.00  0.00     0.259 A 
HETATM   10  O   UNL     1     -41.464  54.661 -48.889  1.00  0.00    -0.267 OA
HETATM   11  N   UNL     1     -41.881  56.543 -50.090  1.00  0.00    -0.309 N 
HETATM   12  H   UNL     1     -42.192  57.004 -49.244  1.00  0.00     0.170 HD
ENDROOT
BRANCH   1  13
HETATM   13  C   UNL     1     -42.362  58.659 -51.219  1.00  0.00     0.254 C 
BRANCH  13  14
HETATM   14  O   UNL     1     -41.407  59.415 -51.963  1.00  0.00    -0.344 OA
BRANCH  14  15
HETATM   15  C   UNL     1     -41.894  59.950 -53.126  1.00  0.00     0.071 A 
HETATM   16  C   UNL     1     -42.754  61.037 -52.977  1.00  0.00     0.037 A 
HETATM   17  C   UNL     1     -43.286  61.666 -54.100  1.00  0.00     0.005 A 
HETATM   18  C   UNL     1     -42.935  61.220 -55.373  1.00  0.00     0.037 A 
HETATM   19  C   UNL     1     -42.048  60.153 -55.533  1.00  0.00     0.070 A 
HETATM   20  C   UNL     1     -41.528  59.514 -54.403  1.00  0.00     0.073 A 
BRANCH  19  21
HETATM   21  O   UNL     1     -41.770  59.835 -56.835  1.00  0.00    -0.356 OA
HETATM   22  C   UNL     1     -41.605  60.918 -57.742  1.00  0.00     0.210 C 
ENDBRANCH  19  21
ENDBRANCH  14  15
ENDBRANCH  13  14
ENDBRANCH   1  13
BRANCH   4  23
HETATM   23  O   UNL     1     -41.036  55.409 -54.762  1.00  0.00    -0.354 OA
HETATM   24  C   UNL     1     -41.978  54.981 -55.735  1.00  0.00     0.210 C 
ENDBRANCH   4  23
BRANCH   6  25
HETATM   25  C   UNL     1     -39.928  51.206 -52.434  1.00  0.00     0.010 A 
HETATM   26  C   UNL     1     -39.671  50.327 -53.515  1.00  0.00     0.152 A 
HETATM   27  N   UNL     1     -39.269  49.118 -53.117  1.00  0.00    -0.187 NA
HETATM   28  N   UNL     1     -39.262  49.214 -51.780  1.00  0.00    -0.289 N 
HETATM   29  H   UNL     1     -38.981  48.400 -51.240  1.00  0.00     0.188 HD
HETATM   30  C   UNL     1     -39.650  50.440 -51.321  1.00  0.00     0.123 A 
ENDBRANCH   6  25
TORSDOF 6
ENDMDL
MODEL 3
REMARK VINA RESULT:      -8.0      1.392      2.784
REMARK  6 active torsions:
REMARK  status: ('A' for Active; 'I' for Inactive)
REMARK    1  A    between atoms: O_2  and  C_3 
REMARK    2  A    between atoms: C_7  and  O_8 
REMARK    3  A    between atoms: O_8  and  C_9 
REMARK    4  A    between atoms: C_9  and  C_10 
REMARK    5  A    between atoms: C_13  and  O_14 
REMARK    6  A    between atoms: C_17  and  C_23 
ROOT
HETATM    1  C   UNL     1     -43.114  56.887 -53.324  1.00  0.00     0.132 A 
HETATM    2  N   UNL     1     -42.351  56.419 -52.391  1.00  0.00    -0.229 NA
HETATM    3  C   UNL     1     -41.778  55.140 -52.566  1.00  0.00     0.108 A 
HETATM    4  C   UNL     1     -40.911  54.615 -51.589  1.00  0.00     0.098 A 
HETATM    5  C   UNL     1     -40.363  53.332 -51.753  1.00  0.00     0.051 A 
HETATM    6  C   UNL     1     -40.649  52.558 -52.891  1.00  0.00    -0.019 A 
HETATM    7  C   UNL     1     -41.492  53.091 -53.870  1.00  0.00     0.032 A 
HETATM    8  C   UNL     1     -42.042  54.367 -53.701  1.00  0.00     0.064 A 
HETATM    9  C   UNL     1     -42.918  54.943 -54.735  1.00  0.00     0.259 A 
HETATM   10  O   UNL     1     -43.182  54.346 -55.771  1.00  0.00    -0.267 OA
HETATM   11  N   UNL     1     -43.410  56.191 -54.466  1.00  0.00    -0.309 N 
HETATM   12  H   UNL     1     -43.966  56.626 -55.192  1.00  0.00     0.170 HD
ENDROOT
BRANCH   1  13
HETATM   13  C   UNL     1     -43.779  58.244 -53.189  1.00  0.00     0.254 C 
BRANCH  13  14
HETATM   14  O   UNL     1     -44.688  58.167 -52.091  1.00  0.00    -0.344 OA
BRANCH  14  15
HETATM   15  C   UNL     1     -44.547  59.171 -51.170  1.00  0.00     0.071 A 
HETATM   16  C   UNL     1     -43.326  59.844 -51.192  1.00  0.00     0.037 A 
HETATM   17  C   UNL     1     -43.091  60.895 -50.309  1.00  0.00     0.005 A 
HETATM   18  C   UNL     1     -44.091  61.286 -49.419  1.00  0.00     0.037 A 
HETATM   19  C   UNL     1     -45.330  60.639 -49.412  1.00  0.00     0.070 A 
HETATM   20  C   UNL     1     -45.556  59.574 -50.290  1.00  0.00     0.073 A 
BRANCH  19  21
HETATM   21  O   UNL     1     -46.227  61.139 -48.508  1.00  0.00    -0.356 OA
HETATM   22  C   UNL     1     -45.915  60.975 -47.130  1.00  0.00     0.210 C 
ENDBRANCH  19  21
ENDBRANCH  14  15
ENDBRANCH  13  14
ENDBRANCH   1  13
BRANCH   4  23
HETATM   23  O   UNL     1     -40.676  55.415 -50.497  1.00  0.00    -0.354 OA
HETATM   24  C   UNL     1     -41.208  54.988 -49.251  1.00  0.00     0.210 C 
ENDBRANCH   4  23
BRANCH   6  25
HETATM   25  C   UNL     1     -40.079  51.228 -53.031  1.00  0.00     0.010 A 
HETATM   26  C   UNL     1     -39.900  50.409 -54.173  1.00  0.00     0.152 A 
HETATM   27  N   UNL     1     -39.340  49.231 -53.886  1.00  0.00    -0.187 NA
HETATM   28  N   UNL     1     -39.152  49.288 -52.559  1.00  0.00    -0.289 N 
HETATM   29  H   UNL     1     -38.727  48.489 -52.098  1.00  0.00     0.188 HD
HETATM   30  C   UNL     1     -39.579  50.459 -52.000  1.00  0.00     0.123 A 
ENDBRANCH   6  25
TORSDOF 6
ENDMDL
MODEL 4
REMARK VINA RESULT:      -7.9      4.644      9.750
REMARK  6 active torsions:
REMARK  status: ('A' for Active; 'I' for Inactive)
REMARK    1  A    between atoms: O_2  and  C_3 
REMARK    2  A    between atoms: C_7  and  O_8 
REMARK    3  A    between atoms: O_8  and  C_9 
REMARK    4  A    between atoms: C_9  and  C_10 
REMARK    5  A    between atoms: C_13  and  O_14 
REMARK    6  A    between atoms: C_17  and  C_23 
ROOT
HETATM    1  C   UNL     1     -42.979  55.589 -55.662  1.00  0.00     0.132 A 
HETATM    2  N   UNL     1     -42.556  56.796 -55.471  1.00  0.00    -0.229 NA
HETATM    3  C   UNL     1     -42.401  57.643 -56.591  1.00  0.00     0.108 A 
HETATM    4  C   UNL     1     -41.980  58.975 -56.417  1.00  0.00     0.098 A 
HETATM    5  C   UNL     1     -41.802  59.806 -57.535  1.00  0.00     0.051 A 
HETATM    6  C   UNL     1     -42.054  59.340 -58.837  1.00  0.00    -0.019 A 
HETATM    7  C   UNL     1     -42.492  58.024 -59.005  1.00  0.00     0.032 A 
HETATM    8  C   UNL     1     -42.663  57.196 -57.889  1.00  0.00     0.064 A 
HETATM    9  C   UNL     1     -43.142  55.813 -58.056  1.00  0.00     0.259 A 
HETATM   10  O   UNL     1     -43.418  55.347 -59.154  1.00  0.00    -0.267 OA
HETATM   11  N   UNL     1     -43.264  55.085 -56.903  1.00  0.00    -0.309 N 
HETATM   12  H   UNL     1     -43.647  54.153 -56.993  1.00  0.00     0.170 HD
ENDROOT
BRANCH   1  13
HETATM   13  C   UNL     1     -43.145  54.623 -54.504  1.00  0.00     0.254 C 
BRANCH  13  14
HETATM   14  O   UNL     1     -42.284  55.061 -53.454  1.00  0.00    -0.344 OA
BRANCH  14  15
HETATM   15  C   UNL     1     -41.422  54.102 -52.993  1.00  0.00     0.071 A 
HETATM   16  C   UNL     1     -41.178  54.119 -51.620  1.00  0.00     0.037 A 
HETATM   17  C   UNL     1     -40.332  53.172 -51.049  1.00  0.00     0.005 A 
HETATM   18  C   UNL     1     -39.750  52.191 -51.852  1.00  0.00     0.037 A 
HETATM   19  C   UNL     1     -40.014  52.146 -53.224  1.00  0.00     0.070 A 
HETATM   20  C   UNL     1     -40.852  53.109 -53.796  1.00  0.00     0.073 A 
BRANCH  19  21
HETATM   21  O   UNL     1     -39.399  51.119 -53.888  1.00  0.00    -0.356 OA
HETATM   22  C   UNL     1     -40.224  50.042 -54.314  1.00  0.00     0.210 C 
ENDBRANCH  19  21
ENDBRANCH  14  15
ENDBRANCH  13  14
ENDBRANCH   1  13
BRANCH   4  23
HETATM   23  O   UNL     1     -41.744  59.370 -55.122  1.00  0.00    -0.354 OA
HETATM   24  C   UNL     1     -42.426  60.527 -54.660  1.00  0.00     0.210 C 
ENDBRANCH   4  23
BRANCH   6  25
HETATM   25  C   UNL     1     -41.849  60.218 -59.978  1.00  0.00     0.010 A 
HETATM   26  C   UNL     1     -41.473  61.582 -60.045  1.00  0.00     0.152 A 
HETATM   27  N   UNL     1     -41.399  62.040 -61.297  1.00  0.00    -0.187 NA
HETATM   28  N   UNL     1     -41.723  60.972 -62.041  1.00  0.00    -0.289 N 
HETATM   29  H   UNL     1     -41.734  61.075 -63.052  1.00  0.00     0.188 HD
HETATM   30  C   UNL     1     -42.004  59.859 -61.302  1.00  0.00     0.123 A 
ENDBRANCH   6  25
TORSDOF 6
ENDMDL
MODEL 5
REMARK VINA RESULT:      -7.8      4.801      9.095
REMARK  6 active torsions:
REMARK  status: ('A' for Active; 'I' for Inactive)
REMARK    1  A    between atoms: O_2  and  C_3 
REMARK    2  A    between atoms: C_7  and  O_8 
REMARK    3  A    between atoms: O_8  and  C_9 
REMARK    4  A    between atoms: C_9  and  C_10 
REMARK    5  A    between atoms: C_13  and  O_14 
REMARK    6  A    between atoms: C_17  and  C_23 
ROOT
HETATM    1  C   UNL     1     -42.892  56.617 -54.611  1.00  0.00     0.132 A 
HETATM    2  N   UNL     1     -43.120  56.278 -55.838  1.00  0.00    -0.229 NA
HETATM    3  C   UNL     1     -42.803  57.197 -56.863  1.00  0.00     0.108 A 
HETATM    4  C   UNL     1     -43.001  56.848 -58.211  1.00  0.00     0.098 A 
HETATM    5  C   UNL     1     -42.709  57.773 -59.226  1.00  0.00     0.051 A 
HETATM    6  C   UNL     1     -42.202  59.049 -58.925  1.00  0.00    -0.019 A 
HETATM    7  C   UNL     1     -41.986  59.386 -57.586  1.00  0.00     0.032 A 
HETATM    8  C   UNL     1     -42.283  58.463 -56.576  1.00  0.00     0.064 A 
HETATM    9  C   UNL     1     -42.043  58.803 -55.163  1.00  0.00     0.259 A 
HETATM   10  O   UNL     1     -41.567  59.880 -54.825  1.00  0.00    -0.267 OA
HETATM   11  N   UNL     1     -42.377  57.835 -54.256  1.00  0.00    -0.309 N 
HETATM   12  H   UNL     1     -42.164  58.029 -53.286  1.00  0.00     0.170 HD
ENDROOT
BRANCH   1  13
HETATM   13  C   UNL     1     -43.231  55.685 -53.463  1.00  0.00     0.254 C 
BRANCH  13  14
HETATM   14  O   UNL     1     -43.090  54.347 -53.942  1.00  0.00    -0.344 OA
BRANCH  14  15
HETATM   15  C   UNL     1     -42.018  53.671 -53.424  1.00  0.00     0.071 A 
HETATM   16  C   UNL     1     -41.404  52.763 -54.285  1.00  0.00     0.037 A 
HETATM   17  C   UNL     1     -40.292  52.040 -53.860  1.00  0.00     0.005 A 
HETATM   18  C   UNL     1     -39.781  52.247 -52.579  1.00  0.00     0.037 A 
HETATM   19  C   UNL     1     -40.370  53.179 -51.721  1.00  0.00     0.070 A 
HETATM   20  C   UNL     1     -41.495  53.891 -52.146  1.00  0.00     0.073 A 
BRANCH  19  21
HETATM   21  O   UNL     1     -39.754  53.301 -50.505  1.00  0.00    -0.356 OA
HETATM   22  C   UNL     1     -40.031  54.477 -49.756  1.00  0.00     0.210 C 
ENDBRANCH  19  21
ENDBRANCH  14  15
ENDBRANCH  13  14
ENDBRANCH   1  13
BRANCH   4  23
HETATM   23  O   UNL     1     -43.505  55.590 -58.442  1.00  0.00    -0.354 OA
HETATM   24  C   UNL     1     -43.921  55.290 -59.767  1.00  0.00     0.210 C 
ENDBRANCH   4  23
BRANCH   6  25
HETATM   25  C   UNL     1     -41.920  59.994 -59.994  1.00  0.00     0.010 A 
HETATM   26  C   UNL     1     -41.573  61.367 -59.953  1.00  0.00     0.152 A 
HETATM   27  N   UNL     1     -41.402  61.897 -61.167  1.00  0.00    -0.187 NA
HETATM   28  N   UNL     1     -41.635  60.867 -61.994  1.00  0.00    -0.289 N 
HETATM   29  H   UNL     1     -41.561  61.027 -62.994  1.00  0.00     0.188 HD
HETATM   30  C   UNL     1     -41.951  59.709 -61.344  1.00  0.00     0.123 A 
ENDBRANCH   6  25
TORSDOF 6
ENDMDL
MODEL 6
REMARK VINA RESULT:      -7.6      5.717     10.327
REMARK  6 active torsions:
REMARK  status: ('A' for Active; 'I' for Inactive)
REMARK    1  A    between atoms: O_2  and  C_3 
REMARK    2  A    between atoms: C_7  and  O_8 
REMARK    3  A    between atoms: O_8  and  C_9 
REMARK    4  A    between atoms: C_9  and  C_10 
REMARK    5  A    between atoms: C_13  and  O_14 
REMARK    6  A    between atoms: C_17  and  C_23 
ROOT
HETATM    1  C   UNL     1     -42.567  56.563 -57.088  1.00  0.00     0.132 A 
HETATM    2  N   UNL     1     -42.255  57.806 -56.924  1.00  0.00    -0.229 NA
HETATM    3  C   UNL     1     -42.131  58.629 -58.066  1.00  0.00     0.108 A 
HETATM    4  C   UNL     1     -41.831  59.996 -57.923  1.00  0.00     0.098 A 
HETATM    5  C   UNL     1     -41.684  60.805 -59.062  1.00  0.00     0.051 A 
HETATM    6  C   UNL     1     -41.848  60.279 -60.355  1.00  0.00    -0.019 A 
HETATM    7  C   UNL     1     -42.168  58.926 -60.493  1.00  0.00     0.032 A 
HETATM    8  C   UNL     1     -42.308  58.121 -59.357  1.00  0.00     0.064 A 
HETATM    9  C   UNL     1     -42.662  56.698 -59.492  1.00  0.00     0.259 A 
HETATM   10  O   UNL     1     -42.859  56.177 -60.583  1.00  0.00    -0.267 OA
HETATM   11  N   UNL     1     -42.764  55.998 -58.321  1.00  0.00    -0.309 N 
HETATM   12  H   UNL     1     -43.064  55.035 -58.392  1.00  0.00     0.170 HD
ENDROOT
BRANCH   1  13
HETATM   13  C   UNL     1     -42.693  55.622 -55.905  1.00  0.00     0.254 C 
BRANCH  13  14
HETATM   14  O   UNL     1     -41.558  55.834 -55.067  1.00  0.00    -0.344 OA
BRANCH  14  15
HETATM   15  C   UNL     1     -41.209  54.752 -54.304  1.00  0.00     0.071 A 
HETATM   16  C   UNL     1     -40.443  53.781 -54.947  1.00  0.00     0.037 A 
HETATM   17  C   UNL     1     -40.019  52.651 -54.251  1.00  0.00     0.005 A 
HETATM   18  C   UNL     1     -40.343  52.508 -52.903  1.00  0.00     0.037 A 
HETATM   19  C   UNL     1     -41.082  53.492 -52.241  1.00  0.00     0.070 A 
HETATM   20  C   UNL     1     -41.519  54.617 -52.947  1.00  0.00     0.073 A 
BRANCH  19  21
HETATM   21  O   UNL     1     -41.307  53.238 -50.915  1.00  0.00    -0.356 OA
HETATM   22  C   UNL     1     -40.332  52.460 -50.233  1.00  0.00     0.210 C 
ENDBRANCH  19  21
ENDBRANCH  14  15
ENDBRANCH  13  14
ENDBRANCH   1  13
BRANCH   4  23
HETATM   23  O   UNL     1     -41.675  60.450 -56.635  1.00  0.00    -0.354 OA
HETATM   24  C   UNL     1     -42.750  61.190 -56.073  1.00  0.00     0.210 C 
ENDBRANCH   4  23
BRANCH   6  25
HETATM   25  C   UNL     1     -41.677  61.136 -61.519  1.00  0.00     0.010 A 
HETATM   26  C   UNL     1     -40.852  62.268 -61.724  1.00  0.00     0.152 A 
HETATM   27  N   UNL     1     -40.986  62.795 -62.944  1.00  0.00    -0.187 NA
HETATM   28  N   UNL     1     -41.895  62.002 -63.529  1.00  0.00    -0.289 N 
HETATM   29  H   UNL     1     -42.167  62.206 -64.486  1.00  0.00     0.188 HD
HETATM   30  C   UNL     1     -42.342  60.997 -62.719  1.00  0.00     0.123 A 
ENDBRANCH   6  25
TORSDOF 6
ENDMDL
MODEL 7
REMARK VINA RESULT:      -7.5      2.466      4.213
REMARK  6 active torsions:
REMARK  status: ('A' for Active; 'I' for Inactive)
REMARK    1  A    between atoms: O_2  and  C_3 
REMARK    2  A    between atoms: C_7  and  O_8 
REMARK    3  A    between atoms: O_8  and  C_9 
REMARK    4  A    between atoms: C_9  and  C_10 
REMARK    5  A    between atoms: C_13  and  O_14 
REMARK    6  A    between atoms: C_17  and  C_23 
ROOT
HETATM    1  C   UNL     1     -43.886  56.995 -54.164  1.00  0.00     0.132 A 
HETATM    2  N   UNL     1     -43.382  56.446 -53.108  1.00  0.00    -0.229 NA
HETATM    3  C   UNL     1     -42.641  55.252 -53.256  1.00  0.00     0.108 A 
HETATM    4  C   UNL     1     -42.044  54.647 -52.134  1.00  0.00     0.098 A 
HETATM    5  C   UNL     1     -41.330  53.447 -52.281  1.00  0.00     0.051 A 
HETATM    6  C   UNL     1     -41.180  52.837 -53.539  1.00  0.00    -0.019 A 
HETATM    7  C   UNL     1     -41.755  53.452 -54.654  1.00  0.00     0.032 A 
HETATM    8  C   UNL     1     -42.472  54.645 -54.504  1.00  0.00     0.064 A 
HETATM    9  C   UNL     1     -43.066  55.308 -55.677  1.00  0.00     0.259 A 
HETATM   10  O   UNL     1     -42.947  54.859 -56.810  1.00  0.00    -0.267 OA
HETATM   11  N   UNL     1     -43.754  56.463 -55.419  1.00  0.00    -0.309 N 
HETATM   12  H   UNL     1     -44.119  56.962 -56.220  1.00  0.00     0.170 HD
ENDROOT
BRANCH   1  13
HETATM   13  C   UNL     1     -44.711  58.265 -54.071  1.00  0.00     0.254 C 
BRANCH  13  14
HETATM   14  O   UNL     1     -43.811  59.368 -54.178  1.00  0.00    -0.344 OA
BRANCH  14  15
HETATM   15  C   UNL     1     -43.014  59.556 -53.080  1.00  0.00     0.071 A 
HETATM   16  C   UNL     1     -43.676  59.926 -51.910  1.00  0.00     0.037 A 
HETATM   17  C   UNL     1     -42.957  60.121 -50.733  1.00  0.00     0.005 A 
HETATM   18  C   UNL     1     -41.577  59.920 -50.725  1.00  0.00     0.037 A 
HETATM   19  C   UNL     1     -40.910  59.517 -51.885  1.00  0.00     0.070 A 
HETATM   20  C   UNL     1     -41.633  59.338 -53.068  1.00  0.00     0.073 A 
BRANCH  19  21
HETATM   21  O   UNL     1     -39.563  59.332 -51.730  1.00  0.00    -0.356 OA
HETATM   22  C   UNL     1     -39.005  59.678 -50.469  1.00  0.00     0.210 C 
ENDBRANCH  19  21
ENDBRANCH  14  15
ENDBRANCH  13  14
ENDBRANCH   1  13
BRANCH   4  23
HETATM   23  O   UNL     1     -42.231  55.287 -50.932  1.00  0.00    -0.354 OA
HETATM   24  C   UNL     1     -41.087  55.867 -50.320  1.00  0.00     0.210 C 
ENDBRANCH   4  23
BRANCH   6  25
HETATM   25  C   UNL     1     -40.447  51.587 -53.661  1.00  0.00     0.010 A 
HETATM   26  C   UNL     1     -40.617  50.494 -54.545  1.00  0.00     0.152 A 
HETATM   27  N   UNL     1     -39.737  49.512 -54.334  1.00  0.00    -0.187 NA
HETATM   28  N   UNL     1     -38.994  49.971 -53.316  1.00  0.00    -0.289 N 
HETATM   29  H   UNL     1     -38.238  49.388 -52.970  1.00  0.00     0.188 HD
HETATM   30  C   UNL     1     -39.379  51.205 -52.876  1.00  0.00     0.123 A 
ENDBRANCH   6  25
TORSDOF 6
ENDMDL
MODEL 8
REMARK VINA RESULT:      -7.5      4.360      9.195
REMARK  6 active torsions:
REMARK  status: ('A' for Active; 'I' for Inactive)
REMARK    1  A    between atoms: O_2  and  C_3 
REMARK    2  A    between atoms: C_7  and  O_8 
REMARK    3  A    between atoms: O_8  and  C_9 
REMARK    4  A    between atoms: C_9  and  C_10 
REMARK    5  A    between atoms: C_13  and  O_14 
REMARK    6  A    between atoms: C_17  and  C_23 
ROOT
HETATM    1  C   UNL     1     -42.812  56.888 -53.788  1.00  0.00     0.132 A 
HETATM    2  N   UNL     1     -42.864  56.624 -55.053  1.00  0.00    -0.229 NA
HETATM    3  C   UNL     1     -42.519  57.642 -55.970  1.00  0.00     0.108 A 
HETATM    4  C   UNL     1     -42.527  57.379 -57.353  1.00  0.00     0.098 A 
HETATM    5  C   UNL     1     -42.208  58.400 -58.263  1.00  0.00     0.051 A 
HETATM    6  C   UNL     1     -41.860  59.688 -57.820  1.00  0.00    -0.019 A 
HETATM    7  C   UNL     1     -41.832  59.940 -56.446  1.00  0.00     0.032 A 
HETATM    8  C   UNL     1     -42.156  58.922 -55.542  1.00  0.00     0.064 A 
HETATM    9  C   UNL     1     -42.112  59.174 -54.091  1.00  0.00     0.259 A 
HETATM   10  O   UNL     1     -41.781  60.258 -53.628  1.00  0.00    -0.267 OA
HETATM   11  N   UNL     1     -42.457  58.115 -53.295  1.00  0.00    -0.309 N 
HETATM   12  H   UNL     1     -42.375  58.254 -52.296  1.00  0.00     0.170 HD
ENDROOT
BRANCH   1  13
HETATM   13  C   UNL     1     -43.191  55.847 -52.753  1.00  0.00     0.254 C 
BRANCH  13  14
HETATM   14  O   UNL     1     -43.063  54.565 -53.368  1.00  0.00    -0.344 OA
BRANCH  14  15
HETATM   15  C   UNL     1     -41.992  53.833 -52.930  1.00  0.00     0.071 A 
HETATM   16  C   UNL     1     -41.710  53.931 -51.568  1.00  0.00     0.037 A 
HETATM   17  C   UNL     1     -40.653  53.208 -51.019  1.00  0.00     0.005 A 
HETATM   18  C   UNL     1     -39.894  52.368 -51.833  1.00  0.00     0.037 A 
HETATM   19  C   UNL     1     -40.190  52.238 -53.193  1.00  0.00     0.070 A 
HETATM   20  C   UNL     1     -41.242  52.977 -53.743  1.00  0.00     0.073 A 
BRANCH  19  21
HETATM   21  O   UNL     1     -39.384  51.363 -53.869  1.00  0.00    -0.356 OA
HETATM   22  C   UNL     1     -39.974  50.142 -54.297  1.00  0.00     0.210 C 
ENDBRANCH  19  21
ENDBRANCH  14  15
ENDBRANCH  13  14
ENDBRANCH   1  13
BRANCH   4  23
HETATM   23  O   UNL     1     -42.881  56.104 -57.724  1.00  0.00    -0.354 OA
HETATM   24  C   UNL     1     -43.264  55.904 -59.077  1.00  0.00     0.210 C 
ENDBRANCH   4  23
BRANCH   6  25
HETATM   25  C   UNL     1     -41.547  60.732 -58.784  1.00  0.00     0.010 A 
HETATM   26  C   UNL     1     -40.826  61.942 -58.641  1.00  0.00     0.152 A 
HETATM   27  N   UNL     1     -40.763  62.647 -59.773  1.00  0.00    -0.187 NA
HETATM   28  N   UNL     1     -41.439  61.891 -60.651  1.00  0.00    -0.289 N 
HETATM   29  H   UNL     1     -41.529  62.226 -61.606  1.00  0.00     0.188 HD
HETATM   30  C   UNL     1     -41.931  60.738 -60.109  1.00  0.00     0.123 A 
ENDBRANCH   6  25
TORSDOF 6
ENDMDL
MODEL 9
REMARK VINA RESULT:      -7.4     16.355     19.148
REMARK  6 active torsions:
REMARK  status: ('A' for Active; 'I' for Inactive)
REMARK    1  A    between atoms: O_2  and  C_3 
REMARK    2  A    between atoms: C_7  and  O_8 
REMARK    3  A    between atoms: O_8  and  C_9 
REMARK    4  A    between atoms: C_9  and  C_10 
REMARK    5  A    between atoms: C_13  and  O_14 
REMARK    6  A    between atoms: C_17  and  C_23 
ROOT
HETATM    1  C   UNL     1     -35.461  41.743 -56.550  1.00  0.00     0.132 A 
HETATM    2  N   UNL     1     -35.970  41.867 -55.367  1.00  0.00    -0.229 NA
HETATM    3  C   UNL     1     -35.211  41.434 -54.257  1.00  0.00     0.108 A 
HETATM    4  C   UNL     1     -35.716  41.589 -52.953  1.00  0.00     0.098 A 
HETATM    5  C   UNL     1     -34.971  41.134 -51.853  1.00  0.00     0.051 A 
HETATM    6  C   UNL     1     -33.710  40.537 -52.024  1.00  0.00    -0.019 A 
HETATM    7  C   UNL     1     -33.201  40.404 -53.319  1.00  0.00     0.032 A 
HETATM    8  C   UNL     1     -33.949  40.853 -54.414  1.00  0.00     0.064 A 
HETATM    9  C   UNL     1     -33.413  40.733 -55.780  1.00  0.00     0.259 A 
HETATM   10  O   UNL     1     -32.307  40.260 -56.007  1.00  0.00    -0.267 OA
HETATM   11  N   UNL     1     -34.228  41.193 -56.779  1.00  0.00    -0.309 N 
HETATM   12  H   UNL     1     -33.852  41.172 -57.718  1.00  0.00     0.170 HD
ENDROOT
BRANCH   1  13
HETATM   13  C   UNL     1     -36.233  42.168 -57.785  1.00  0.00     0.254 C 
BRANCH  13  14
HETATM   14  O   UNL     1     -37.518  41.551 -57.719  1.00  0.00    -0.344 OA
BRANCH  14  15
HETATM   15  C   UNL     1     -37.671  40.475 -58.552  1.00  0.00     0.071 A 
HETATM   16  C   UNL     1     -38.148  39.309 -57.952  1.00  0.00     0.037 A 
HETATM   17  C   UNL     1     -38.358  38.165 -58.718  1.00  0.00     0.005 A 
HETATM   18  C   UNL     1     -38.113  38.197 -60.090  1.00  0.00     0.037 A 
HETATM   19  C   UNL     1     -37.667  39.370 -60.706  1.00  0.00     0.070 A 
HETATM   20  C   UNL     1     -37.443  40.512 -59.931  1.00  0.00     0.073 A 
BRANCH  19  21
HETATM   21  O   UNL     1     -37.492  39.269 -62.059  1.00  0.00    -0.356 OA
HETATM   22  C   UNL     1     -36.589  38.272 -62.521  1.00  0.00     0.210 C 
ENDBRANCH  19  21
ENDBRANCH  14  15
ENDBRANCH  13  14
ENDBRANCH   1  13
BRANCH   4  23
HETATM   23  O   UNL     1     -36.956  42.173 -52.850  1.00  0.00    -0.354 OA
HETATM   24  C   UNL     1     -38.049  41.324 -52.527  1.00  0.00     0.210 C 
ENDBRANCH   4  23
BRANCH   6  25
HETATM   25  C   UNL     1     -32.964  40.062 -50.869  1.00  0.00     0.010 A 
HETATM   26  C   UNL     1     -31.570  39.999 -50.626  1.00  0.00     0.152 A 
HETATM   27  N   UNL     1     -31.274  39.483 -49.431  1.00  0.00    -0.187 NA
HETATM   28  N   UNL     1     -32.475  39.215 -48.898  1.00  0.00    -0.289 N 
HETATM   29  H   UNL     1     -32.510  38.808 -47.969  1.00  0.00     0.188 HD
HETATM   30  C   UNL     1     -33.517  39.540 -49.719  1.00  0.00     0.123 A 
ENDBRANCH   6  25
TORSDOF 6
ENDMDL
MODEL 10
REMARK VINA RESULT:      -7.3      4.517      6.911
REMARK  6 active torsions:
REMARK  status: ('A' for Active; 'I' for Inactive)
REMARK    1  A    between atoms: O_2  and  C_3 
REMARK    2  A    between atoms: C_7  and  O_8 
REMARK    3  A    between atoms: O_8  and  C_9 
REMARK    4  A    between atoms: C_9  and  C_10 
REMARK    5  A    between atoms: C_13  and  O_14 
REMARK    6  A    between atoms: C_17  and  C_23 
ROOT
HETATM    1  C   UNL     1     -42.798  55.548 -56.213  1.00  0.00     0.132 A 
HETATM    2  N   UNL     1     -42.040  54.601 -55.767  1.00  0.00    -0.229 NA
HETATM    3  C   UNL     1     -41.817  54.514 -54.375  1.00  0.00     0.108 A 
HETATM    4  C   UNL     1     -41.029  53.473 -53.849  1.00  0.00     0.098 A 
HETATM    5  C   UNL     1     -40.788  53.404 -52.467  1.00  0.00     0.051 A 
HETATM    6  C   UNL     1     -41.336  54.350 -51.584  1.00  0.00    -0.019 A 
HETATM    7  C   UNL     1     -42.136  55.370 -52.106  1.00  0.00     0.032 A 
HETATM    8  C   UNL     1     -42.369  55.440 -53.485  1.00  0.00     0.064 A 
HETATM    9  C   UNL     1     -43.226  56.501 -54.041  1.00  0.00     0.259 A 
HETATM   10  O   UNL     1     -43.769  57.338 -53.332  1.00  0.00    -0.267 OA
HETATM   11  N   UNL     1     -43.380  56.485 -55.401  1.00  0.00    -0.309 N 
HETATM   12  H   UNL     1     -44.012  57.171 -55.794  1.00  0.00     0.170 HD
ENDROOT
BRANCH   1  13
HETATM   13  C   UNL     1     -43.060  55.711 -57.699  1.00  0.00     0.254 C 
BRANCH  13  14
HETATM   14  O   UNL     1     -43.866  56.876 -57.866  1.00  0.00    -0.344 OA
BRANCH  14  15
HETATM   15  C   UNL     1     -43.283  57.865 -58.613  1.00  0.00     0.071 A 
HETATM   16  C   UNL     1     -42.542  57.433 -59.713  1.00  0.00     0.037 A 
HETATM   17  C   UNL     1     -41.926  58.362 -60.548  1.00  0.00     0.005 A 
HETATM   18  C   UNL     1     -42.074  59.725 -60.294  1.00  0.00     0.037 A 
HETATM   19  C   UNL     1     -42.841  60.167 -59.213  1.00  0.00     0.070 A 
HETATM   20  C   UNL     1     -43.444  59.232 -58.368  1.00  0.00     0.073 A 
BRANCH  19  21
HETATM   21  O   UNL     1     -42.923  61.529 -59.094  1.00  0.00    -0.356 OA
HETATM   22  C   UNL     1     -41.919  62.295 -59.748  1.00  0.00     0.210 C 
ENDBRANCH  19  21
ENDBRANCH  14  15
ENDBRANCH  13  14
ENDBRANCH   1  13
BRANCH   4  23
HETATM   23  O   UNL     1     -40.515  52.583 -54.762  1.00  0.00    -0.354 OA
HETATM   24  C   UNL     1     -40.023  51.348 -54.261  1.00  0.00     0.210 C 
ENDBRANCH   4  23
BRANCH   6  25
HETATM   25  C   UNL     1     -41.060  54.264 -50.159  1.00  0.00     0.010 A 
HETATM   26  C   UNL     1     -41.294  55.187 -49.110  1.00  0.00     0.152 A 
HETATM   27  N   UNL     1     -40.886  54.737 -47.921  1.00  0.00    -0.187 NA
HETATM   28  N   UNL     1     -40.391  53.522 -48.198  1.00  0.00    -0.289 N 
HETATM   29  H   UNL     1     -40.013  52.970 -47.434  1.00  0.00     0.188 HD
HETATM   30  C   UNL     1     -40.469  53.193 -49.521  1.00  0.00     0.123 A 
ENDBRANCH   6  25
TORSDOF 6
ENDMDL
