MODEL 1
REMARK VINA RESULT:      -7.9      0.000      0.000
REMARK  5 active torsions:
REMARK  status: ('A' for Active; 'I' for Inactive)
REMARK    1  A    between atoms: C_3  and  O_4 
REMARK    2  A    between atoms: O_4  and  C_5 
REMARK    3  A    between atoms: C_14  and  N_15 
REMARK       I    between atoms: N_15  and  C_16 
REMARK    4  A    between atoms: C_16  and  C_17 
REMARK    5  A    between atoms: C_17  and  C_18 
ROOT
HETATM    1  C   UNL     1     -40.658  54.674 -53.360  1.00  0.00     0.076 A 
HETATM    2  C   UNL     1     -40.388  54.113 -54.612  1.00  0.00     0.039 A 
HETATM    3  C   UNL     1     -40.111  52.748 -54.717  1.00  0.00     0.025 A 
HETATM    4  C   UNL     1     -40.081  51.947 -53.569  1.00  0.00     0.044 A 
HETATM    5  C   UNL     1     -39.801  50.545 -53.678  1.00  0.00     0.099 C 
HETATM    6  N   UNL     1     -39.572  49.410 -53.765  1.00  0.00    -0.191 NA
HETATM    7  C   UNL     1     -40.320  52.521 -52.316  1.00  0.00     0.025 A 
HETATM    8  C   UNL     1     -40.601  53.885 -52.211  1.00  0.00     0.039 A 
ENDROOT
BRANCH   1   9
HETATM    9  O   UNL     1     -40.925  56.014 -53.184  1.00  0.00    -0.311 OA
BRANCH   9  10
HETATM   10  C   UNL     1     -42.189  56.460 -53.505  1.00  0.00     0.078 A 
HETATM   11  C   UNL     1     -43.026  56.784 -52.440  1.00  0.00     0.037 A 
HETATM   12  C   UNL     1     -44.319  57.236 -52.692  1.00  0.00     0.005 A 
HETATM   13  C   UNL     1     -44.771  57.357 -54.009  1.00  0.00     0.029 A 
HETATM   14  C   UNL     1     -43.946  57.008 -55.087  1.00  0.00     0.037 A 
HETATM   15  C   UNL     1     -42.658  56.538 -54.823  1.00  0.00     0.066 A 
BRANCH  14  16
HETATM   16  N   UNL     1     -44.471  57.182 -56.385  1.00  0.00    -0.327 N 
HETATM   17  C   UNL     1     -44.206  58.217 -57.268  1.00  0.00     0.227 C 
HETATM   18  O   UNL     1     -43.395  59.125 -57.096  1.00  0.00    -0.273 OA
HETATM   19  H   UNL     1     -45.130  56.477 -56.689  1.00  0.00     0.169 HD
BRANCH  17  20
HETATM   20  C   UNL     1     -45.041  58.153 -58.548  1.00  0.00     0.159 C 
BRANCH  20  21
HETATM   21  C   UNL     1     -44.879  56.834 -59.240  1.00  0.00     0.017 A 
HETATM   22  N   UNL     1     -45.956  56.025 -59.533  1.00  0.00    -0.369 N 
HETATM   23  H   UNL     1     -46.917  56.234 -59.280  1.00  0.00     0.165 HD
HETATM   24  C   UNL     1     -45.523  54.895 -60.171  1.00  0.00     0.088 A 
HETATM   25  C   UNL     1     -44.157  54.978 -60.306  1.00  0.00     0.019 A 
HETATM   26  C   UNL     1     -43.749  56.202 -59.721  1.00  0.00     0.027 A 
ENDBRANCH  20  21
ENDBRANCH  17  20
ENDBRANCH  14  16
ENDBRANCH   9  10
ENDBRANCH   1   9
TORSDOF 5
ENDMDL
MODEL 2
REMARK VINA RESULT:      -7.5      1.267      1.820
REMARK  5 active torsions:
REMARK  status: ('A' for Active; 'I' for Inactive)
REMARK    1  A    between atoms: C_3  and  O_4 
REMARK    2  A    between atoms: O_4  and  C_5 
REMARK    3  A    between atoms: C_14  and  N_15 
REMARK       I    between atoms: N_15  and  C_16 
REMARK    4  A    between atoms: C_16  and  C_17 
REMARK    5  A    between atoms: C_17  and  C_18 
ROOT
HETATM    1  C   UNL     1     -41.109  54.257 -52.444  1.00  0.00     0.076 A 
HETATM    2  C   UNL     1     -40.274  53.423 -51.693  1.00  0.00     0.039 A 
HETATM    3  C   UNL     1     -39.839  52.209 -52.231  1.00  0.00     0.025 A 
HETATM    4  C   UNL     1     -40.257  51.816 -53.508  1.00  0.00     0.044 A 
HETATM    5  C   UNL     1     -39.807  50.571 -54.061  1.00  0.00     0.099 C 
HETATM    6  N   UNL     1     -39.445  49.563 -54.507  1.00  0.00    -0.191 NA
HETATM    7  C   UNL     1     -41.119  52.639 -54.240  1.00  0.00     0.025 A 
HETATM    8  C   UNL     1     -41.550  53.856 -53.705  1.00  0.00     0.039 A 
ENDROOT
BRANCH   1   9
HETATM    9  O   UNL     1     -41.584  55.459 -51.970  1.00  0.00    -0.311 OA
BRANCH   9  10
HETATM   10  C   UNL     1     -41.713  56.494 -52.871  1.00  0.00     0.078 A 
HETATM   11  C   UNL     1     -40.842  57.571 -52.714  1.00  0.00     0.037 A 
HETATM   12  C   UNL     1     -40.921  58.654 -53.586  1.00  0.00     0.005 A 
HETATM   13  C   UNL     1     -41.873  58.658 -54.609  1.00  0.00     0.029 A 
HETATM   14  C   UNL     1     -42.772  57.591 -54.758  1.00  0.00     0.037 A 
HETATM   15  C   UNL     1     -42.697  56.519 -53.867  1.00  0.00     0.066 A 
BRANCH  14  16
HETATM   16  N   UNL     1     -43.687  57.663 -55.830  1.00  0.00    -0.327 N 
HETATM   17  C   UNL     1     -43.407  57.557 -57.183  1.00  0.00     0.227 C 
HETATM   18  O   UNL     1     -42.311  57.297 -57.678  1.00  0.00    -0.273 OA
HETATM   19  H   UNL     1     -44.651  57.833 -55.573  1.00  0.00     0.169 HD
BRANCH  17  20
HETATM   20  C   UNL     1     -44.624  57.802 -58.076  1.00  0.00     0.159 C 
BRANCH  20  21
HETATM   21  C   UNL     1     -44.836  56.668 -59.033  1.00  0.00     0.017 A 
HETATM   22  N   UNL     1     -44.186  55.462 -58.892  1.00  0.00    -0.369 N 
HETATM   23  H   UNL     1     -43.502  55.258 -58.168  1.00  0.00     0.165 HD
HETATM   24  C   UNL     1     -44.573  54.610 -59.891  1.00  0.00     0.088 A 
HETATM   25  C   UNL     1     -45.491  55.265 -60.677  1.00  0.00     0.019 A 
HETATM   26  C   UNL     1     -45.661  56.563 -60.137  1.00  0.00     0.027 A 
ENDBRANCH  20  21
ENDBRANCH  17  20
ENDBRANCH  14  16
ENDBRANCH   9  10
ENDBRANCH   1   9
TORSDOF 5
ENDMDL
MODEL 3
REMARK VINA RESULT:      -7.5      1.452      1.986
REMARK  5 active torsions:
REMARK  status: ('A' for Active; 'I' for Inactive)
REMARK    1  A    between atoms: C_3  and  O_4 
REMARK    2  A    between atoms: O_4  and  C_5 
REMARK    3  A    between atoms: C_14  and  N_15 
REMARK       I    between atoms: N_15  and  C_16 
REMARK    4  A    between atoms: C_16  and  C_17 
REMARK    5  A    between atoms: C_17  and  C_18 
ROOT
HETATM    1  C   UNL     1     -40.877  55.029 -53.607  1.00  0.00     0.076 A 
HETATM    2  C   UNL     1     -41.094  54.140 -52.549  1.00  0.00     0.039 A 
HETATM    3  C   UNL     1     -40.776  52.788 -52.701  1.00  0.00     0.025 A 
HETATM    4  C   UNL     1     -40.264  52.319 -53.916  1.00  0.00     0.044 A 
HETATM    5  C   UNL     1     -39.934  50.932 -54.070  1.00  0.00     0.099 C 
HETATM    6  N   UNL     1     -39.670  49.809 -54.195  1.00  0.00    -0.191 NA
HETATM    7  C   UNL     1     -40.080  53.207 -54.982  1.00  0.00     0.025 A 
HETATM    8  C   UNL     1     -40.393  54.560 -54.829  1.00  0.00     0.039 A 
ENDROOT
BRANCH   1   9
HETATM    9  O   UNL     1     -41.180  56.370 -53.530  1.00  0.00    -0.311 OA
BRANCH   9  10
HETATM   10  C   UNL     1     -42.340  56.799 -54.139  1.00  0.00     0.078 A 
HETATM   11  C   UNL     1     -43.410  57.101 -53.300  1.00  0.00     0.037 A 
HETATM   12  C   UNL     1     -44.615  57.534 -53.849  1.00  0.00     0.005 A 
HETATM   13  C   UNL     1     -44.745  57.658 -55.235  1.00  0.00     0.029 A 
HETATM   14  C   UNL     1     -43.682  57.330 -56.089  1.00  0.00     0.037 A 
HETATM   15  C   UNL     1     -42.485  56.878 -55.529  1.00  0.00     0.066 A 
BRANCH  14  16
HETATM   16  N   UNL     1     -43.889  57.504 -57.474  1.00  0.00    -0.327 N 
HETATM   17  C   UNL     1     -43.573  56.617 -58.489  1.00  0.00     0.227 C 
HETATM   18  O   UNL     1     -43.128  55.479 -58.345  1.00  0.00    -0.273 OA
HETATM   19  H   UNL     1     -44.296  58.389 -57.748  1.00  0.00     0.169 HD
BRANCH  17  20
HETATM   20  C   UNL     1     -43.826  57.180 -59.889  1.00  0.00     0.159 C 
BRANCH  20  21
HETATM   21  C   UNL     1     -45.268  57.057 -60.274  1.00  0.00     0.017 A 
HETATM   22  N   UNL     1     -46.036  58.156 -60.595  1.00  0.00    -0.369 N 
HETATM   23  H   UNL     1     -45.706  59.116 -60.563  1.00  0.00     0.165 HD
HETATM   24  C   UNL     1     -47.304  57.754 -60.916  1.00  0.00     0.088 A 
HETATM   25  C   UNL     1     -47.355  56.384 -60.817  1.00  0.00     0.019 A 
HETATM   26  C   UNL     1     -46.071  55.941 -60.415  1.00  0.00     0.027 A 
ENDBRANCH  20  21
ENDBRANCH  17  20
ENDBRANCH  14  16
ENDBRANCH   9  10
ENDBRANCH   1   9
TORSDOF 5
ENDMDL
MODEL 4
REMARK VINA RESULT:      -7.4      3.896      6.732
REMARK  5 active torsions:
REMARK  status: ('A' for Active; 'I' for Inactive)
REMARK    1  A    between atoms: C_3  and  O_4 
REMARK    2  A    between atoms: O_4  and  C_5 
REMARK    3  A    between atoms: C_14  and  N_15 
REMARK       I    between atoms: N_15  and  C_16 
REMARK    4  A    between atoms: C_16  and  C_17 
REMARK    5  A    between atoms: C_17  and  C_18 
ROOT
HETATM    1  C   UNL     1     -40.798  55.144 -53.375  1.00  0.00     0.076 A 
HETATM    2  C   UNL     1     -40.379  54.760 -54.652  1.00  0.00     0.039 A 
HETATM    3  C   UNL     1     -40.157  53.409 -54.935  1.00  0.00     0.025 A 
HETATM    4  C   UNL     1     -40.331  52.445 -53.935  1.00  0.00     0.044 A 
HETATM    5  C   UNL     1     -40.107  51.059 -54.227  1.00  0.00     0.099 C 
HETATM    6  N   UNL     1     -39.924  49.937 -54.462  1.00  0.00    -0.191 NA
HETATM    7  C   UNL     1     -40.718  52.839 -52.650  1.00  0.00     0.025 A 
HETATM    8  C   UNL     1     -40.945  54.189 -52.368  1.00  0.00     0.039 A 
ENDROOT
BRANCH   1   9
HETATM    9  O   UNL     1     -41.022  56.457 -53.025  1.00  0.00    -0.311 OA
BRANCH   9  10
HETATM   10  C   UNL     1     -42.304  56.944 -53.164  1.00  0.00     0.078 A 
HETATM   11  C   UNL     1     -43.143  56.255 -54.037  1.00  0.00     0.037 A 
HETATM   12  C   UNL     1     -44.449  56.697 -54.229  1.00  0.00     0.005 A 
HETATM   13  C   UNL     1     -44.910  57.829 -53.551  1.00  0.00     0.029 A 
HETATM   14  C   UNL     1     -44.065  58.545 -52.691  1.00  0.00     0.037 A 
HETATM   15  C   UNL     1     -42.750  58.105 -52.520  1.00  0.00     0.066 A 
BRANCH  14  16
HETATM   16  N   UNL     1     -44.615  59.662 -52.028  1.00  0.00    -0.327 N 
HETATM   17  C   UNL     1     -45.564  59.658 -51.019  1.00  0.00     0.227 C 
HETATM   18  O   UNL     1     -46.032  58.662 -50.469  1.00  0.00    -0.273 OA
HETATM   19  H   UNL     1     -44.288  60.566 -52.345  1.00  0.00     0.169 HD
BRANCH  17  20
HETATM   20  C   UNL     1     -46.023  61.059 -50.609  1.00  0.00     0.159 C 
BRANCH  20  21
HETATM   21  C   UNL     1     -45.631  61.371 -49.198  1.00  0.00     0.017 A 
HETATM   22  N   UNL     1     -45.405  60.381 -48.266  1.00  0.00    -0.369 N 
HETATM   23  H   UNL     1     -45.517  59.387 -48.444  1.00  0.00     0.165 HD
HETATM   24  C   UNL     1     -45.053  60.945 -47.070  1.00  0.00     0.088 A 
HETATM   25  C   UNL     1     -45.036  62.311 -47.232  1.00  0.00     0.019 A 
HETATM   26  C   UNL     1     -45.398  62.581 -48.573  1.00  0.00     0.027 A 
ENDBRANCH  20  21
ENDBRANCH  17  20
ENDBRANCH  14  16
ENDBRANCH   9  10
ENDBRANCH   1   9
TORSDOF 5
ENDMDL
MODEL 5
REMARK VINA RESULT:      -7.3      1.749      2.102
REMARK  5 active torsions:
REMARK  status: ('A' for Active; 'I' for Inactive)
REMARK    1  A    between atoms: C_3  and  O_4 
REMARK    2  A    between atoms: O_4  and  C_5 
REMARK    3  A    between atoms: C_14  and  N_15 
REMARK       I    between atoms: N_15  and  C_16 
REMARK    4  A    between atoms: C_16  and  C_17 
REMARK    5  A    between atoms: C_17  and  C_18 
ROOT
HETATM    1  C   UNL     1     -40.623  54.029 -51.887  1.00  0.00     0.076 A 
HETATM    2  C   UNL     1     -40.949  53.860 -53.236  1.00  0.00     0.039 A 
HETATM    3  C   UNL     1     -40.638  52.660 -53.881  1.00  0.00     0.025 A 
HETATM    4  C   UNL     1     -39.980  51.639 -53.186  1.00  0.00     0.044 A 
HETATM    5  C   UNL     1     -39.664  50.406 -53.848  1.00  0.00     0.099 C 
HETATM    6  N   UNL     1     -39.406  49.410 -54.383  1.00  0.00    -0.191 NA
HETATM    7  C   UNL     1     -39.626  51.827 -51.845  1.00  0.00     0.025 A 
HETATM    8  C   UNL     1     -39.942  53.025 -51.199  1.00  0.00     0.039 A 
ENDROOT
BRANCH   1   9
HETATM    9  O   UNL     1     -40.889  55.190 -51.194  1.00  0.00    -0.311 OA
BRANCH   9  10
HETATM   10  C   UNL     1     -41.876  56.016 -51.688  1.00  0.00     0.078 A 
HETATM   11  C   UNL     1     -43.059  56.081 -50.954  1.00  0.00     0.037 A 
HETATM   12  C   UNL     1     -44.101  56.891 -51.398  1.00  0.00     0.005 A 
HETATM   13  C   UNL     1     -43.957  57.629 -52.577  1.00  0.00     0.029 A 
HETATM   14  C   UNL     1     -42.781  57.548 -53.336  1.00  0.00     0.037 A 
HETATM   15  C   UNL     1     -41.750  56.718 -52.892  1.00  0.00     0.066 A 
BRANCH  14  16
HETATM   16  N   UNL     1     -42.709  58.342 -54.501  1.00  0.00    -0.327 N 
HETATM   17  C   UNL     1     -43.206  58.038 -55.758  1.00  0.00     0.227 C 
HETATM   18  O   UNL     1     -43.875  57.048 -56.052  1.00  0.00    -0.273 OA
HETATM   19  H   UNL     1     -42.218  59.221 -54.402  1.00  0.00     0.169 HD
BRANCH  17  20
HETATM   20  C   UNL     1     -42.845  59.077 -56.821  1.00  0.00     0.159 C 
BRANCH  20  21
HETATM   21  C   UNL     1     -42.860  58.479 -58.195  1.00  0.00     0.017 A 
HETATM   22  N   UNL     1     -44.035  58.204 -58.860  1.00  0.00    -0.369 N 
HETATM   23  H   UNL     1     -44.963  58.347 -58.471  1.00  0.00     0.165 HD
HETATM   24  C   UNL     1     -43.756  57.677 -60.091  1.00  0.00     0.088 A 
HETATM   25  C   UNL     1     -42.389  57.622 -60.231  1.00  0.00     0.019 A 
HETATM   26  C   UNL     1     -41.822  58.130 -59.038  1.00  0.00     0.027 A 
ENDBRANCH  20  21
ENDBRANCH  17  20
ENDBRANCH  14  16
ENDBRANCH   9  10
ENDBRANCH   1   9
TORSDOF 5
ENDMDL
MODEL 6
REMARK VINA RESULT:      -7.3      2.172      8.392
REMARK  5 active torsions:
REMARK  status: ('A' for Active; 'I' for Inactive)
REMARK    1  A    between atoms: C_3  and  O_4 
REMARK    2  A    between atoms: O_4  and  C_5 
REMARK    3  A    between atoms: C_14  and  N_15 
REMARK       I    between atoms: N_15  and  C_16 
REMARK    4  A    between atoms: C_16  and  C_17 
REMARK    5  A    between atoms: C_17  and  C_18 
ROOT
HETATM    1  C   UNL     1     -44.824  57.467 -59.462  1.00  0.00     0.076 A 
HETATM    2  C   UNL     1     -45.673  58.522 -59.809  1.00  0.00     0.039 A 
HETATM    3  C   UNL     1     -46.813  58.273 -60.579  1.00  0.00     0.025 A 
HETATM    4  C   UNL     1     -47.091  56.975 -61.022  1.00  0.00     0.044 A 
HETATM    5  C   UNL     1     -48.263  56.720 -61.809  1.00  0.00     0.099 C 
HETATM    6  N   UNL     1     -49.210  56.514 -62.448  1.00  0.00    -0.191 NA
HETATM    7  C   UNL     1     -46.220  55.929 -60.700  1.00  0.00     0.025 A 
HETATM    8  C   UNL     1     -45.083  56.177 -59.925  1.00  0.00     0.039 A 
ENDROOT
BRANCH   1   9
HETATM    9  O   UNL     1     -43.679  57.643 -58.717  1.00  0.00    -0.311 OA
BRANCH   9  10
HETATM   10  C   UNL     1     -43.662  57.126 -57.440  1.00  0.00     0.078 A 
HETATM   11  C   UNL     1     -44.421  57.798 -56.484  1.00  0.00     0.037 A 
HETATM   12  C   UNL     1     -44.444  57.333 -55.171  1.00  0.00     0.005 A 
HETATM   13  C   UNL     1     -43.705  56.200 -54.820  1.00  0.00     0.029 A 
HETATM   14  C   UNL     1     -42.918  55.533 -55.768  1.00  0.00     0.037 A 
HETATM   15  C   UNL     1     -42.886  56.018 -57.077  1.00  0.00     0.066 A 
BRANCH  14  16
HETATM   16  N   UNL     1     -42.221  54.384 -55.336  1.00  0.00    -0.327 N 
HETATM   17  C   UNL     1     -40.923  54.320 -54.855  1.00  0.00     0.227 C 
HETATM   18  O   UNL     1     -40.180  55.278 -54.644  1.00  0.00    -0.273 OA
HETATM   19  H   UNL     1     -42.726  53.511 -55.409  1.00  0.00     0.169 HD
BRANCH  17  20
HETATM   20  C   UNL     1     -40.444  52.892 -54.589  1.00  0.00     0.159 C 
BRANCH  20  21
HETATM   21  C   UNL     1     -40.316  52.624 -53.120  1.00  0.00     0.017 A 
HETATM   22  N   UNL     1     -40.980  53.379 -52.178  1.00  0.00    -0.369 N 
HETATM   23  H   UNL     1     -41.568  54.179 -52.394  1.00  0.00     0.165 HD
HETATM   24  C   UNL     1     -40.693  52.911 -50.925  1.00  0.00     0.088 A 
HETATM   25  C   UNL     1     -39.846  51.835 -51.056  1.00  0.00     0.019 A 
HETATM   26  C   UNL     1     -39.609  51.651 -52.440  1.00  0.00     0.027 A 
ENDBRANCH  20  21
ENDBRANCH  17  20
ENDBRANCH  14  16
ENDBRANCH   9  10
ENDBRANCH   1   9
TORSDOF 5
ENDMDL
MODEL 7
REMARK VINA RESULT:      -7.2      4.279      5.222
REMARK  5 active torsions:
REMARK  status: ('A' for Active; 'I' for Inactive)
REMARK    1  A    between atoms: C_3  and  O_4 
REMARK    2  A    between atoms: O_4  and  C_5 
REMARK    3  A    between atoms: C_14  and  N_15 
REMARK       I    between atoms: N_15  and  C_16 
REMARK    4  A    between atoms: C_16  and  C_17 
REMARK    5  A    between atoms: C_17  and  C_18 
ROOT
HETATM    1  C   UNL     1     -40.396  53.725 -51.640  1.00  0.00     0.076 A 
HETATM    2  C   UNL     1     -40.638  53.791 -53.016  1.00  0.00     0.039 A 
HETATM    3  C   UNL     1     -40.421  52.665 -53.814  1.00  0.00     0.025 A 
HETATM    4  C   UNL     1     -39.940  51.481 -53.243  1.00  0.00     0.044 A 
HETATM    5  C   UNL     1     -39.721  50.324 -54.063  1.00  0.00     0.099 C 
HETATM    6  N   UNL     1     -39.542  49.389 -54.726  1.00  0.00    -0.191 NA
HETATM    7  C   UNL     1     -39.668  51.431 -51.872  1.00  0.00     0.025 A 
HETATM    8  C   UNL     1     -39.890  52.556 -51.072  1.00  0.00     0.039 A 
ENDROOT
BRANCH   1   9
HETATM    9  O   UNL     1     -40.576  54.800 -50.798  1.00  0.00    -0.311 OA
BRANCH   9  10
HETATM   10  C   UNL     1     -41.790  55.451 -50.846  1.00  0.00     0.078 A 
HETATM   11  C   UNL     1     -42.908  54.718 -50.455  1.00  0.00     0.037 A 
HETATM   12  C   UNL     1     -44.167  55.312 -50.484  1.00  0.00     0.005 A 
HETATM   13  C   UNL     1     -44.303  56.637 -50.909  1.00  0.00     0.029 A 
HETATM   14  C   UNL     1     -43.187  57.375 -51.330  1.00  0.00     0.037 A 
HETATM   15  C   UNL     1     -41.932  56.763 -51.315  1.00  0.00     0.066 A 
BRANCH  14  16
HETATM   16  N   UNL     1     -43.408  58.712 -51.721  1.00  0.00    -0.327 N 
HETATM   17  C   UNL     1     -43.850  59.165 -52.954  1.00  0.00     0.227 C 
HETATM   18  O   UNL     1     -44.207  58.463 -53.898  1.00  0.00    -0.273 OA
HETATM   19  H   UNL     1     -43.197  59.414 -51.023  1.00  0.00     0.169 HD
BRANCH  17  20
HETATM   20  C   UNL     1     -43.864  60.691 -53.071  1.00  0.00     0.159 C 
BRANCH  20  21
HETATM   21  C   UNL     1     -45.171  61.262 -52.613  1.00  0.00     0.017 A 
HETATM   22  N   UNL     1     -46.379  60.779 -53.068  1.00  0.00    -0.369 N 
HETATM   23  H   UNL     1     -46.480  60.041 -53.759  1.00  0.00     0.165 HD
HETATM   24  C   UNL     1     -47.403  61.472 -52.481  1.00  0.00     0.088 A 
HETATM   25  C   UNL     1     -46.854  62.401 -51.628  1.00  0.00     0.019 A 
HETATM   26  C   UNL     1     -45.447  62.269 -51.708  1.00  0.00     0.027 A 
ENDBRANCH  20  21
ENDBRANCH  17  20
ENDBRANCH  14  16
ENDBRANCH   9  10
ENDBRANCH   1   9
TORSDOF 5
ENDMDL
MODEL 8
REMARK VINA RESULT:      -7.2     15.277     17.398
REMARK  5 active torsions:
REMARK  status: ('A' for Active; 'I' for Inactive)
REMARK    1  A    between atoms: C_3  and  O_4 
REMARK    2  A    between atoms: O_4  and  C_5 
REMARK    3  A    between atoms: C_14  and  N_15 
REMARK       I    between atoms: N_15  and  C_16 
REMARK    4  A    between atoms: C_16  and  C_17 
REMARK    5  A    between atoms: C_17  and  C_18 
ROOT
HETATM    1  C   UNL     1     -36.051  42.346 -54.692  1.00  0.00     0.076 A 
HETATM    2  C   UNL     1     -35.012  42.368 -55.627  1.00  0.00     0.039 A 
HETATM    3  C   UNL     1     -35.238  41.912 -56.928  1.00  0.00     0.025 A 
HETATM    4  C   UNL     1     -36.495  41.412 -57.288  1.00  0.00     0.044 A 
HETATM    5  C   UNL     1     -36.728  40.947 -58.626  1.00  0.00     0.099 C 
HETATM    6  N   UNL     1     -36.916  40.569 -59.707  1.00  0.00    -0.191 NA
HETATM    7  C   UNL     1     -37.521  41.362 -56.339  1.00  0.00     0.025 A 
HETATM    8  C   UNL     1     -37.297  41.823 -55.039  1.00  0.00     0.039 A 
ENDROOT
BRANCH   1   9
HETATM    9  O   UNL     1     -35.893  42.768 -53.390  1.00  0.00    -0.311 OA
BRANCH   9  10
HETATM   10  C   UNL     1     -35.719  41.802 -52.423  1.00  0.00     0.078 A 
HETATM   11  C   UNL     1     -34.404  41.449 -52.123  1.00  0.00     0.037 A 
HETATM   12  C   UNL     1     -34.155  40.474 -51.160  1.00  0.00     0.005 A 
HETATM   13  C   UNL     1     -35.221  39.854 -50.504  1.00  0.00     0.029 A 
HETATM   14  C   UNL     1     -36.548  40.183 -50.817  1.00  0.00     0.037 A 
HETATM   15  C   UNL     1     -36.788  41.147 -51.798  1.00  0.00     0.066 A 
BRANCH  14  16
HETATM   16  N   UNL     1     -37.565  39.526 -50.092  1.00  0.00    -0.327 N 
HETATM   17  C   UNL     1     -38.201  38.341 -50.422  1.00  0.00     0.227 C 
HETATM   18  O   UNL     1     -37.925  37.611 -51.373  1.00  0.00    -0.273 OA
HETATM   19  H   UNL     1     -37.872  39.992 -49.248  1.00  0.00     0.169 HD
BRANCH  17  20
HETATM   20  C   UNL     1     -39.342  37.978 -49.470  1.00  0.00     0.159 C 
BRANCH  20  21
HETATM   21  C   UNL     1     -40.673  38.362 -50.040  1.00  0.00     0.017 A 
HETATM   22  N   UNL     1     -40.787  39.188 -51.138  1.00  0.00    -0.369 N 
HETATM   23  H   UNL     1     -40.002  39.620 -51.616  1.00  0.00     0.165 HD
HETATM   24  C   UNL     1     -42.108  39.362 -51.449  1.00  0.00     0.088 A 
HETATM   25  C   UNL     1     -42.856  38.632 -50.554  1.00  0.00     0.019 A 
HETATM   26  C   UNL     1     -41.953  37.999 -49.667  1.00  0.00     0.027 A 
ENDBRANCH  20  21
ENDBRANCH  17  20
ENDBRANCH  14  16
ENDBRANCH   9  10
ENDBRANCH   1   9
TORSDOF 5
ENDMDL
MODEL 9
REMARK VINA RESULT:      -7.2     15.495     16.971
REMARK  5 active torsions:
REMARK  status: ('A' for Active; 'I' for Inactive)
REMARK    1  A    between atoms: C_3  and  O_4 
REMARK    2  A    between atoms: O_4  and  C_5 
REMARK    3  A    between atoms: C_14  and  N_15 
REMARK       I    between atoms: N_15  and  C_16 
REMARK    4  A    between atoms: C_16  and  C_17 
REMARK    5  A    between atoms: C_17  and  C_18 
ROOT
HETATM    1  C   UNL     1     -35.490  41.257 -52.844  1.00  0.00     0.076 A 
HETATM    2  C   UNL     1     -34.790  40.097 -53.189  1.00  0.00     0.039 A 
HETATM    3  C   UNL     1     -33.709  39.679 -52.408  1.00  0.00     0.025 A 
HETATM    4  C   UNL     1     -33.312  40.433 -51.297  1.00  0.00     0.044 A 
HETATM    5  C   UNL     1     -32.205  40.001 -50.494  1.00  0.00     0.099 C 
HETATM    6  N   UNL     1     -31.308  39.654 -49.845  1.00  0.00    -0.191 NA
HETATM    7  C   UNL     1     -33.996  41.611 -50.977  1.00  0.00     0.025 A 
HETATM    8  C   UNL     1     -35.080  42.026 -51.754  1.00  0.00     0.039 A 
ENDROOT
BRANCH   1   9
HETATM    9  O   UNL     1     -36.555  41.732 -53.576  1.00  0.00    -0.311 OA
BRANCH   9  10
HETATM   10  C   UNL     1     -36.445  41.711 -54.950  1.00  0.00     0.078 A 
HETATM   11  C   UNL     1     -35.368  42.402 -55.501  1.00  0.00     0.037 A 
HETATM   12  C   UNL     1     -35.200  42.427 -56.883  1.00  0.00     0.005 A 
HETATM   13  C   UNL     1     -36.112  41.764 -57.709  1.00  0.00     0.029 A 
HETATM   14  C   UNL     1     -37.214  41.088 -57.165  1.00  0.00     0.037 A 
HETATM   15  C   UNL     1     -37.385  41.086 -55.779  1.00  0.00     0.066 A 
BRANCH  14  16
HETATM   16  N   UNL     1     -38.074  40.426 -58.067  1.00  0.00    -0.327 N 
HETATM   17  C   UNL     1     -38.056  39.085 -58.415  1.00  0.00     0.227 C 
HETATM   18  O   UNL     1     -37.329  38.220 -57.929  1.00  0.00    -0.273 OA
HETATM   19  H   UNL     1     -38.767  41.008 -58.521  1.00  0.00     0.169 HD
BRANCH  17  20
HETATM   20  C   UNL     1     -39.058  38.729 -59.515  1.00  0.00     0.159 C 
BRANCH  20  21
HETATM   21  C   UNL     1     -38.379  38.561 -60.839  1.00  0.00     0.017 A 
HETATM   22  N   UNL     1     -37.025  38.759 -60.997  1.00  0.00    -0.369 N 
HETATM   23  H   UNL     1     -36.398  39.062 -60.256  1.00  0.00     0.165 HD
HETATM   24  C   UNL     1     -36.673  38.529 -62.299  1.00  0.00     0.088 A 
HETATM   25  C   UNL     1     -37.806  38.164 -62.988  1.00  0.00     0.019 A 
HETATM   26  C   UNL     1     -38.883  38.181 -62.069  1.00  0.00     0.027 A 
ENDBRANCH  20  21
ENDBRANCH  17  20
ENDBRANCH  14  16
ENDBRANCH   9  10
ENDBRANCH   1   9
TORSDOF 5
ENDMDL
MODEL 10
REMARK VINA RESULT:      -7.1     15.116     18.491
REMARK  5 active torsions:
REMARK  status: ('A' for Active; 'I' for Inactive)
REMARK    1  A    between atoms: C_3  and  O_4 
REMARK    2  A    between atoms: O_4  and  C_5 
REMARK    3  A    between atoms: C_14  and  N_15 
REMARK       I    between atoms: N_15  and  C_16 
REMARK    4  A    between atoms: C_16  and  C_17 
REMARK    5  A    between atoms: C_17  and  C_18 
ROOT
HETATM    1  C   UNL     1     -32.212  38.592 -47.742  1.00  0.00     0.076 A 
HETATM    2  C   UNL     1     -32.272  38.066 -46.448  1.00  0.00     0.039 A 
HETATM    3  C   UNL     1     -31.507  38.639 -45.428  1.00  0.00     0.025 A 
HETATM    4  C   UNL     1     -30.664  39.721 -45.706  1.00  0.00     0.044 A 
HETATM    5  C   UNL     1     -29.882  40.311 -44.659  1.00  0.00     0.099 C 
HETATM    6  N   UNL     1     -29.247  40.787 -43.812  1.00  0.00    -0.191 NA
HETATM    7  C   UNL     1     -30.584  40.223 -47.010  1.00  0.00     0.025 A 
HETATM    8  C   UNL     1     -31.353  39.653 -48.029  1.00  0.00     0.039 A 
ENDROOT
BRANCH   1   9
HETATM    9  O   UNL     1     -32.929  38.069 -48.795  1.00  0.00    -0.311 OA
BRANCH   9  10
HETATM   10  C   UNL     1     -34.080  38.726 -49.173  1.00  0.00     0.078 A 
HETATM   11  C   UNL     1     -35.255  38.350 -48.526  1.00  0.00     0.037 A 
HETATM   12  C   UNL     1     -36.456  38.969 -48.863  1.00  0.00     0.005 A 
HETATM   13  C   UNL     1     -36.477  39.959 -49.850  1.00  0.00     0.029 A 
HETATM   14  C   UNL     1     -35.305  40.325 -50.526  1.00  0.00     0.037 A 
HETATM   15  C   UNL     1     -34.109  39.685 -50.194  1.00  0.00     0.066 A 
BRANCH  14  16
HETATM   16  N   UNL     1     -35.409  41.349 -51.492  1.00  0.00    -0.327 N 
HETATM   17  C   UNL     1     -35.783  41.217 -52.819  1.00  0.00     0.227 C 
HETATM   18  O   UNL     1     -36.170  40.184 -53.364  1.00  0.00    -0.273 OA
HETATM   19  H   UNL     1     -35.161  42.277 -51.175  1.00  0.00     0.169 HD
BRANCH  17  20
HETATM   20  C   UNL     1     -35.673  42.520 -53.614  1.00  0.00     0.159 C 
BRANCH  20  21
HETATM   21  C   UNL     1     -35.986  42.303 -55.063  1.00  0.00     0.017 A 
HETATM   22  N   UNL     1     -37.281  42.209 -55.525  1.00  0.00    -0.369 N 
HETATM   23  H   UNL     1     -38.106  42.242 -54.933  1.00  0.00     0.165 HD
HETATM   24  C   UNL     1     -37.274  42.024 -56.881  1.00  0.00     0.088 A 
HETATM   25  C   UNL     1     -35.965  42.013 -57.303  1.00  0.00     0.019 A 
HETATM   26  C   UNL     1     -35.151  42.191 -56.158  1.00  0.00     0.027 A 
ENDBRANCH  20  21
ENDBRANCH  17  20
ENDBRANCH  14  16
ENDBRANCH   9  10
ENDBRANCH   1   9
TORSDOF 5
ENDMDL
