MODEL 1
REMARK VINA RESULT:      -8.2      0.000      0.000
REMARK  8 active torsions:
REMARK  status: ('A' for Active; 'I' for Inactive)
REMARK    1  A    between atoms: O_2  and  C_3 
REMARK    2  A    between atoms: C_5  and  N_6 
REMARK    3  A    between atoms: N_6  and  C_7 
REMARK    4  A    between atoms: C_9  and  N_10 
REMARK    5  A    between atoms: C_12  and  C_13 
REMARK    6  A    between atoms: C_13  and  N_14 
REMARK    7  A    between atoms: N_18  and  C_19 
REMARK    8  A    between atoms: C_29  and  O_30 
ROOT
HETATM    1  C   UNL     1     -42.136  56.727 -51.699  1.00  0.00     0.731 A 
HETATM    2  N   UNL     1     -43.313  56.604 -51.096  1.00  0.00    -0.031 NA
HETATM    3  C   UNL     1     -44.299  57.359 -51.540  1.00  0.00     0.219 A 
HETATM    4  N   UNL     1     -44.211  58.168 -52.581  1.00  0.00    -0.200 NA
HETATM    5  C   UNL     1     -43.010  58.213 -53.155  1.00  0.00     0.174 A 
HETATM    6  N   UNL     1     -41.949  57.510 -52.761  1.00  0.00    -0.045 NA
ENDROOT
BRANCH   5   7
HETATM    7  C   UNL     1     -42.934  58.867 -54.521  1.00  0.00     0.316 C 
BRANCH   7   8
HETATM    8  N   UNL     1     -42.575  57.916 -55.687  1.00  0.00    -0.061 N 
HETATM    9  H   UNL     1     -41.582  57.693 -55.550  1.00  0.00     0.280 HD
HETATM   10  C   UNL     1     -43.359  56.608 -55.629  1.00  0.00     0.255 C 
HETATM   11  C   UNL     1     -42.911  55.664 -56.772  1.00  0.00     0.152 C 
HETATM   12  N   UNL     1     -42.936  56.315 -58.107  1.00  0.00    -0.364 N 
HETATM   13  C   UNL     1     -42.251  57.630 -58.173  1.00  0.00     0.152 C 
HETATM   14  C   UNL     1     -42.724  58.587 -57.050  1.00  0.00     0.255 C 
BRANCH  12  15
HETATM   15  C   UNL     1     -44.010  56.111 -58.955  1.00  0.00     0.102 A 
HETATM   16  N   UNL     1     -45.097  56.887 -58.781  1.00  0.00    -0.352 N 
HETATM   17  H   UNL     1     -45.045  57.605 -58.063  1.00  0.00     0.166 HD
HETATM   18  C   UNL     1     -46.200  56.819 -59.542  1.00  0.00     0.089 A 
HETATM   19  C   UNL     1     -46.266  55.910 -60.585  1.00  0.00     0.017 A 
HETATM   20  C   UNL     1     -45.169  55.096 -60.828  1.00  0.00     0.005 A 
HETATM   21  C   UNL     1     -44.036  55.200 -60.020  1.00  0.00     0.048 A 
ENDBRANCH  12  15
ENDBRANCH   7   8
ENDBRANCH   5   7
BRANCH   3  22
HETATM   22  N   UNL     1     -45.521  57.251 -50.914  1.00  0.00    -0.270 NA
HETATM   23  H   UNL     1     -45.504  57.779 -50.046  1.00  0.00     0.127 HD
HETATM   24  H   UNL     1     -46.280  57.496 -51.535  1.00  0.00     0.127 HD
ENDBRANCH   3  22
BRANCH   1  25
HETATM   25  N   UNL     1     -41.030  56.006 -51.267  1.00  0.00    -0.185 N 
HETATM   26  H   UNL     1     -40.606  56.416 -50.442  1.00  0.00     0.184 HD
BRANCH  25  27
HETATM   27  C   UNL     1     -40.734  54.632 -51.396  1.00  0.00     0.085 A 
HETATM   28  C   UNL     1     -40.530  54.027 -52.643  1.00  0.00     0.069 A 
HETATM   29  C   UNL     1     -40.212  52.671 -52.749  1.00  0.00     0.070 A 
HETATM   30  C   UNL     1     -40.112  51.901 -51.593  1.00  0.00     0.039 A 
HETATM   31  C   UNL     1     -40.322  52.484 -50.338  1.00  0.00     0.042 A 
HETATM   32  C   UNL     1     -40.633  53.842 -50.232  1.00  0.00     0.095 A 
BRANCH  29  33
HETATM   33  O   UNL     1     -40.013  52.233 -54.030  1.00  0.00    -0.356 OA
HETATM   34  C   UNL     1     -40.243  50.851 -54.281  1.00  0.00     0.210 C 
ENDBRANCH  29  33
BRANCH  32  35
HETATM   35  O   UNL     1     -40.856  54.512 -49.050  1.00  0.00    -0.354 OA
HETATM   36  C   UNL     1     -40.323  53.912 -47.872  1.00  0.00     0.210 C 
ENDBRANCH  32  35
ENDBRANCH  25  27
ENDBRANCH   1  25
TORSDOF 8
ENDMDL
MODEL 2
REMARK VINA RESULT:      -7.9      1.809      2.486
REMARK  8 active torsions:
REMARK  status: ('A' for Active; 'I' for Inactive)
REMARK    1  A    between atoms: O_2  and  C_3 
REMARK    2  A    between atoms: C_5  and  N_6 
REMARK    3  A    between atoms: N_6  and  C_7 
REMARK    4  A    between atoms: C_9  and  N_10 
REMARK    5  A    between atoms: C_12  and  C_13 
REMARK    6  A    between atoms: C_13  and  N_14 
REMARK    7  A    between atoms: N_18  and  C_19 
REMARK    8  A    between atoms: C_29  and  O_30 
ROOT
HETATM    1  C   UNL     1     -41.937  57.006 -53.476  1.00  0.00     0.731 A 
HETATM    2  N   UNL     1     -40.839  57.486 -52.904  1.00  0.00    -0.031 NA
HETATM    3  C   UNL     1     -40.455  58.697 -53.259  1.00  0.00     0.219 A 
HETATM    4  N   UNL     1     -41.126  59.482 -54.083  1.00  0.00    -0.200 NA
HETATM    5  C   UNL     1     -42.234  58.945 -54.590  1.00  0.00     0.174 A 
HETATM    6  N   UNL     1     -42.685  57.723 -54.314  1.00  0.00    -0.045 NA
ENDROOT
BRANCH   5   7
HETATM    7  C   UNL     1     -43.194  59.896 -55.279  1.00  0.00     0.316 C 
BRANCH   7   8
HETATM    8  N   UNL     1     -43.341  59.693 -56.806  1.00  0.00    -0.061 N 
HETATM    9  H   UNL     1     -43.153  60.617 -57.214  1.00  0.00     0.280 HD
HETATM   10  C   UNL     1     -42.305  58.718 -57.361  1.00  0.00     0.255 C 
HETATM   11  C   UNL     1     -42.446  58.607 -58.899  1.00  0.00     0.152 C 
HETATM   12  N   UNL     1     -43.835  58.313 -59.336  1.00  0.00    -0.364 N 
HETATM   13  C   UNL     1     -44.874  59.195 -58.747  1.00  0.00     0.152 C 
HETATM   14  C   UNL     1     -44.755  59.280 -57.204  1.00  0.00     0.255 C 
BRANCH  12  15
HETATM   15  C   UNL     1     -44.201  57.017 -59.652  1.00  0.00     0.102 A 
HETATM   16  N   UNL     1     -45.103  56.849 -60.638  1.00  0.00    -0.352 N 
HETATM   17  H   UNL     1     -45.426  57.684 -61.120  1.00  0.00     0.166 HD
HETATM   18  C   UNL     1     -45.533  55.652 -61.068  1.00  0.00     0.089 A 
HETATM   19  C   UNL     1     -45.043  54.493 -60.490  1.00  0.00     0.017 A 
HETATM   20  C   UNL     1     -44.097  54.601 -59.482  1.00  0.00     0.005 A 
HETATM   21  C   UNL     1     -43.667  55.862 -59.066  1.00  0.00     0.048 A 
ENDBRANCH  12  15
ENDBRANCH   7   8
ENDBRANCH   5   7
BRANCH   3  22
HETATM   22  N   UNL     1     -39.310  59.201 -52.682  1.00  0.00    -0.270 NA
HETATM   23  H   UNL     1     -39.394  60.210 -52.593  1.00  0.00     0.127 HD
HETATM   24  H   UNL     1     -39.087  58.723 -51.819  1.00  0.00     0.127 HD
ENDBRANCH   3  22
BRANCH   1  25
HETATM   25  N   UNL     1     -42.389  55.722 -53.198  1.00  0.00    -0.185 N 
HETATM   26  H   UNL     1     -43.231  55.494 -53.716  1.00  0.00     0.184 HD
BRANCH  25  27
HETATM   27  C   UNL     1     -41.672  54.571 -52.806  1.00  0.00     0.085 A 
HETATM   28  C   UNL     1     -41.091  53.701 -53.738  1.00  0.00     0.069 A 
HETATM   29  C   UNL     1     -40.362  52.581 -53.330  1.00  0.00     0.070 A 
HETATM   30  C   UNL     1     -40.225  52.315 -51.970  1.00  0.00     0.039 A 
HETATM   31  C   UNL     1     -40.805  53.167 -51.023  1.00  0.00     0.042 A 
HETATM   32  C   UNL     1     -41.527  54.290 -51.432  1.00  0.00     0.095 A 
BRANCH  29  33
HETATM   33  O   UNL     1     -39.832  51.845 -54.355  1.00  0.00    -0.356 OA
HETATM   34  C   UNL     1     -39.935  50.429 -54.251  1.00  0.00     0.210 C 
ENDBRANCH  29  33
BRANCH  32  35
HETATM   35  O   UNL     1     -42.135  55.191 -50.585  1.00  0.00    -0.354 OA
HETATM   36  C   UNL     1     -41.295  55.814 -49.616  1.00  0.00     0.210 C 
ENDBRANCH  32  35
ENDBRANCH  25  27
ENDBRANCH   1  25
TORSDOF 8
ENDMDL
MODEL 3
REMARK VINA RESULT:      -7.9      1.338      2.043
REMARK  8 active torsions:
REMARK  status: ('A' for Active; 'I' for Inactive)
REMARK    1  A    between atoms: O_2  and  C_3 
REMARK    2  A    between atoms: C_5  and  N_6 
REMARK    3  A    between atoms: N_6  and  C_7 
REMARK    4  A    between atoms: C_9  and  N_10 
REMARK    5  A    between atoms: C_12  and  C_13 
REMARK    6  A    between atoms: C_13  and  N_14 
REMARK    7  A    between atoms: N_18  and  C_19 
REMARK    8  A    between atoms: C_29  and  O_30 
ROOT
HETATM    1  C   UNL     1     -41.345  57.089 -51.597  1.00  0.00     0.731 A 
HETATM    2  N   UNL     1     -40.569  57.905 -50.895  1.00  0.00    -0.031 NA
HETATM    3  C   UNL     1     -40.218  59.042 -51.464  1.00  0.00     0.219 A 
HETATM    4  N   UNL     1     -40.645  59.449 -52.646  1.00  0.00    -0.200 NA
HETATM    5  C   UNL     1     -41.448  58.593 -53.276  1.00  0.00     0.174 A 
HETATM    6  N   UNL     1     -41.833  57.413 -52.795  1.00  0.00    -0.045 NA
ENDROOT
BRANCH   5   7
HETATM    7  C   UNL     1     -42.210  59.132 -54.471  1.00  0.00     0.316 C 
BRANCH   7   8
HETATM    8  N   UNL     1     -42.179  58.235 -55.731  1.00  0.00    -0.061 N 
HETATM    9  H   UNL     1     -41.206  57.911 -55.801  1.00  0.00     0.280 HD
HETATM   10  C   UNL     1     -43.070  57.005 -55.586  1.00  0.00     0.255 C 
HETATM   11  C   UNL     1     -42.948  56.104 -56.840  1.00  0.00     0.152 C 
HETATM   12  N   UNL     1     -43.156  56.844 -58.111  1.00  0.00    -0.364 N 
HETATM   13  C   UNL     1     -42.362  58.091 -58.243  1.00  0.00     0.152 C 
HETATM   14  C   UNL     1     -42.511  59.009 -57.004  1.00  0.00     0.255 C 
BRANCH  12  15
HETATM   15  C   UNL     1     -44.386  56.800 -58.743  1.00  0.00     0.102 A 
HETATM   16  N   UNL     1     -44.600  55.798 -59.616  1.00  0.00    -0.352 N 
HETATM   17  H   UNL     1     -43.860  55.109 -59.725  1.00  0.00     0.166 HD
HETATM   18  C   UNL     1     -45.750  55.615 -60.284  1.00  0.00     0.089 A 
HETATM   19  C   UNL     1     -46.809  56.486 -60.090  1.00  0.00     0.017 A 
HETATM   20  C   UNL     1     -46.656  57.528 -59.187  1.00  0.00     0.005 A 
HETATM   21  C   UNL     1     -45.448  57.682 -58.505  1.00  0.00     0.048 A 
ENDBRANCH  12  15
ENDBRANCH   7   8
ENDBRANCH   5   7
BRANCH   3  22
HETATM   22  N   UNL     1     -39.401  59.891 -50.750  1.00  0.00    -0.270 NA
HETATM   23  H   UNL     1     -38.439  59.571 -50.820  1.00  0.00     0.127 HD
HETATM   24  H   UNL     1     -39.540  60.856 -51.021  1.00  0.00     0.127 HD
ENDBRANCH   3  22
BRANCH   1  25
HETATM   25  N   UNL     1     -41.725  55.850 -51.096  1.00  0.00    -0.185 N 
HETATM   26  H   UNL     1     -42.718  55.809 -50.895  1.00  0.00     0.184 HD
BRANCH  25  27
HETATM   27  C   UNL     1     -41.168  54.572 -51.314  1.00  0.00     0.085 A 
HETATM   28  C   UNL     1     -40.911  54.081 -52.600  1.00  0.00     0.069 A 
HETATM   29  C   UNL     1     -40.335  52.823 -52.796  1.00  0.00     0.070 A 
HETATM   30  C   UNL     1     -40.024  52.036 -51.690  1.00  0.00     0.039 A 
HETATM   31  C   UNL     1     -40.281  52.505 -50.396  1.00  0.00     0.042 A 
HETATM   32  C   UNL     1     -40.851  53.765 -50.202  1.00  0.00     0.095 A 
BRANCH  29  33
HETATM   33  O   UNL     1     -40.119  52.496 -54.107  1.00  0.00    -0.356 OA
HETATM   34  C   UNL     1     -40.172  53.558 -55.053  1.00  0.00     0.210 C 
ENDBRANCH  29  33
BRANCH  32  35
HETATM   35  O   UNL     1     -41.142  54.321 -48.976  1.00  0.00    -0.354 OA
HETATM   36  C   UNL     1     -40.327  53.903 -47.882  1.00  0.00     0.210 C 
ENDBRANCH  32  35
ENDBRANCH  25  27
ENDBRANCH   1  25
TORSDOF 8
ENDMDL
MODEL 4
REMARK VINA RESULT:      -7.9      1.958      3.385
REMARK  8 active torsions:
REMARK  status: ('A' for Active; 'I' for Inactive)
REMARK    1  A    between atoms: O_2  and  C_3 
REMARK    2  A    between atoms: C_5  and  N_6 
REMARK    3  A    between atoms: N_6  and  C_7 
REMARK    4  A    between atoms: C_9  and  N_10 
REMARK    5  A    between atoms: C_12  and  C_13 
REMARK    6  A    between atoms: C_13  and  N_14 
REMARK    7  A    between atoms: N_18  and  C_19 
REMARK    8  A    between atoms: C_29  and  O_30 
ROOT
HETATM    1  C   UNL     1     -42.068  56.792 -52.897  1.00  0.00     0.731 A 
HETATM    2  N   UNL     1     -40.879  57.339 -52.672  1.00  0.00    -0.031 NA
HETATM    3  C   UNL     1     -40.706  58.587 -53.059  1.00  0.00     0.219 A 
HETATM    4  N   UNL     1     -41.654  59.345 -53.584  1.00  0.00    -0.200 NA
HETATM    5  C   UNL     1     -42.828  58.740 -53.748  1.00  0.00     0.174 A 
HETATM    6  N   UNL     1     -43.089  57.477 -53.414  1.00  0.00    -0.045 NA
ENDROOT
BRANCH   5   7
HETATM    7  C   UNL     1     -44.017  59.633 -54.043  1.00  0.00     0.316 C 
BRANCH   7   8
HETATM    8  N   UNL     1     -44.520  59.598 -55.506  1.00  0.00    -0.061 N 
HETATM    9  H   UNL     1     -45.030  60.481 -55.632  1.00  0.00     0.280 HD
HETATM   10  C   UNL     1     -43.373  59.574 -56.511  1.00  0.00     0.255 C 
HETATM   11  C   UNL     1     -43.927  59.614 -57.957  1.00  0.00     0.152 C 
HETATM   12  N   UNL     1     -44.962  58.580 -58.211  1.00  0.00    -0.364 N 
HETATM   13  C   UNL     1     -46.050  58.525 -57.202  1.00  0.00     0.152 C 
HETATM   14  C   UNL     1     -45.496  58.451 -55.757  1.00  0.00     0.255 C 
BRANCH  12  15
HETATM   15  C   UNL     1     -44.620  57.399 -58.846  1.00  0.00     0.102 A 
HETATM   16  N   UNL     1     -45.623  56.586 -59.228  1.00  0.00    -0.352 N 
HETATM   17  H   UNL     1     -46.573  56.910 -59.065  1.00  0.00     0.166 HD
HETATM   18  C   UNL     1     -45.444  55.423 -59.874  1.00  0.00     0.089 A 
HETATM   19  C   UNL     1     -44.165  54.996 -60.189  1.00  0.00     0.017 A 
HETATM   20  C   UNL     1     -43.091  55.801 -59.839  1.00  0.00     0.005 A 
HETATM   21  C   UNL     1     -43.316  57.008 -59.175  1.00  0.00     0.048 A 
ENDBRANCH  12  15
ENDBRANCH   7   8
ENDBRANCH   5   7
BRANCH   3  22
HETATM   22  N   UNL     1     -39.473  59.161 -52.844  1.00  0.00    -0.270 NA
HETATM   23  H   UNL     1     -39.588  60.157 -52.681  1.00  0.00     0.127 HD
HETATM   24  H   UNL     1     -38.959  58.677 -52.120  1.00  0.00     0.127 HD
ENDBRANCH   3  22
BRANCH   1  25
HETATM   25  N   UNL     1     -42.324  55.468 -52.565  1.00  0.00    -0.185 N 
HETATM   26  H   UNL     1     -43.301  55.315 -52.334  1.00  0.00     0.184 HD
BRANCH  25  27
HETATM   27  C   UNL     1     -41.681  54.285 -52.987  1.00  0.00     0.085 A 
HETATM   28  C   UNL     1     -40.732  53.629 -52.192  1.00  0.00     0.069 A 
HETATM   29  C   UNL     1     -40.125  52.444 -52.614  1.00  0.00     0.070 A 
HETATM   30  C   UNL     1     -40.458  51.913 -53.858  1.00  0.00     0.039 A 
HETATM   31  C   UNL     1     -41.397  52.558 -54.671  1.00  0.00     0.042 A 
HETATM   32  C   UNL     1     -42.008  53.739 -54.245  1.00  0.00     0.095 A 
BRANCH  29  33
HETATM   33  O   UNL     1     -39.243  51.907 -51.717  1.00  0.00    -0.356 OA
HETATM   34  C   UNL     1     -39.465  50.557 -51.324  1.00  0.00     0.210 C 
ENDBRANCH  29  33
BRANCH  32  35
HETATM   35  O   UNL     1     -42.943  54.450 -54.964  1.00  0.00    -0.354 OA
HETATM   36  C   UNL     1     -42.495  55.025 -56.190  1.00  0.00     0.210 C 
ENDBRANCH  32  35
ENDBRANCH  25  27
ENDBRANCH   1  25
TORSDOF 8
ENDMDL
MODEL 5
REMARK VINA RESULT:      -7.7      2.051      2.840
REMARK  8 active torsions:
REMARK  status: ('A' for Active; 'I' for Inactive)
REMARK    1  A    between atoms: O_2  and  C_3 
REMARK    2  A    between atoms: C_5  and  N_6 
REMARK    3  A    between atoms: N_6  and  C_7 
REMARK    4  A    between atoms: C_9  and  N_10 
REMARK    5  A    between atoms: C_12  and  C_13 
REMARK    6  A    between atoms: C_13  and  N_14 
REMARK    7  A    between atoms: N_18  and  C_19 
REMARK    8  A    between atoms: C_29  and  O_30 
ROOT
HETATM    1  C   UNL     1     -42.362  56.284 -52.723  1.00  0.00     0.731 A 
HETATM    2  N   UNL     1     -41.413  57.211 -52.658  1.00  0.00    -0.031 NA
HETATM    3  C   UNL     1     -41.479  58.202 -53.525  1.00  0.00     0.219 A 
HETATM    4  N   UNL     1     -42.458  58.370 -54.397  1.00  0.00    -0.200 NA
HETATM    5  C   UNL     1     -43.390  57.419 -54.380  1.00  0.00     0.174 A 
HETATM    6  N   UNL     1     -43.394  56.367 -53.563  1.00  0.00    -0.045 NA
ENDROOT
BRANCH   5   7
HETATM    7  C   UNL     1     -44.678  57.719 -55.123  1.00  0.00     0.316 C 
BRANCH   7   8
HETATM    8  N   UNL     1     -44.683  57.326 -56.619  1.00  0.00    -0.061 N 
HETATM    9  H   UNL     1     -45.100  56.387 -56.645  1.00  0.00     0.280 HD
HETATM   10  C   UNL     1     -45.562  58.250 -57.457  1.00  0.00     0.255 C 
HETATM   11  C   UNL     1     -45.591  57.771 -58.930  1.00  0.00     0.152 C 
HETATM   12  N   UNL     1     -44.236  57.560 -59.499  1.00  0.00    -0.364 N 
HETATM   13  C   UNL     1     -43.330  56.732 -58.665  1.00  0.00     0.152 C 
HETATM   14  C   UNL     1     -43.274  57.231 -57.199  1.00  0.00     0.255 C 
BRANCH  12  15
HETATM   15  C   UNL     1     -43.659  58.537 -60.291  1.00  0.00     0.102 A 
HETATM   16  N   UNL     1     -44.485  59.354 -60.972  1.00  0.00    -0.352 N 
HETATM   17  H   UNL     1     -45.484  59.231 -60.828  1.00  0.00     0.166 HD
HETATM   18  C   UNL     1     -44.070  60.360 -61.758  1.00  0.00     0.089 A 
HETATM   19  C   UNL     1     -42.716  60.610 -61.904  1.00  0.00     0.017 A 
HETATM   20  C   UNL     1     -41.814  59.814 -61.212  1.00  0.00     0.005 A 
HETATM   21  C   UNL     1     -42.283  58.782 -60.397  1.00  0.00     0.048 A 
ENDBRANCH  12  15
ENDBRANCH   7   8
ENDBRANCH   5   7
BRANCH   3  22
HETATM   22  N   UNL     1     -40.493  59.163 -53.476  1.00  0.00    -0.270 NA
HETATM   23  H   UNL     1     -40.292  59.391 -52.507  1.00  0.00     0.127 HD
HETATM   24  H   UNL     1     -39.683  58.892 -54.017  1.00  0.00     0.127 HD
ENDBRANCH   3  22
BRANCH   1  25
HETATM   25  N   UNL     1     -42.345  55.180 -51.881  1.00  0.00    -0.185 N 
HETATM   26  H   UNL     1     -43.269  54.960 -51.524  1.00  0.00     0.184 HD
BRANCH  25  27
HETATM   27  C   UNL     1     -41.483  54.062 -51.863  1.00  0.00     0.085 A 
HETATM   28  C   UNL     1     -41.093  53.403 -53.036  1.00  0.00     0.069 A 
HETATM   29  C   UNL     1     -40.217  52.316 -53.001  1.00  0.00     0.070 A 
HETATM   30  C   UNL     1     -39.736  51.867 -51.774  1.00  0.00     0.039 A 
HETATM   31  C   UNL     1     -40.121  52.506 -50.589  1.00  0.00     0.042 A 
HETATM   32  C   UNL     1     -40.991  53.598 -50.626  1.00  0.00     0.095 A 
BRANCH  29  33
HETATM   33  O   UNL     1     -39.907  51.797 -54.229  1.00  0.00    -0.356 OA
HETATM   34  C   UNL     1     -39.929  50.379 -54.352  1.00  0.00     0.210 C 
ENDBRANCH  29  33
BRANCH  32  35
HETATM   35  O   UNL     1     -41.430  54.297 -49.524  1.00  0.00    -0.354 OA
HETATM   36  C   UNL     1     -40.584  54.264 -48.376  1.00  0.00     0.210 C 
ENDBRANCH  32  35
ENDBRANCH  25  27
ENDBRANCH   1  25
TORSDOF 8
ENDMDL
MODEL 6
REMARK VINA RESULT:      -7.7      2.741      7.530
REMARK  8 active torsions:
REMARK  status: ('A' for Active; 'I' for Inactive)
REMARK    1  A    between atoms: O_2  and  C_3 
REMARK    2  A    between atoms: C_5  and  N_6 
REMARK    3  A    between atoms: N_6  and  C_7 
REMARK    4  A    between atoms: C_9  and  N_10 
REMARK    5  A    between atoms: C_12  and  C_13 
REMARK    6  A    between atoms: C_13  and  N_14 
REMARK    7  A    between atoms: N_18  and  C_19 
REMARK    8  A    between atoms: C_29  and  O_30 
ROOT
HETATM    1  C   UNL     1     -42.936  58.295 -54.784  1.00  0.00     0.731 A 
HETATM    2  N   UNL     1     -44.010  59.028 -55.055  1.00  0.00    -0.031 NA
HETATM    3  C   UNL     1     -44.763  59.393 -54.036  1.00  0.00     0.219 A 
HETATM    4  N   UNL     1     -44.481  59.143 -52.769  1.00  0.00    -0.200 NA
HETATM    5  C   UNL     1     -43.371  58.434 -52.574  1.00  0.00     0.174 A 
HETATM    6  N   UNL     1     -42.564  57.997 -53.539  1.00  0.00    -0.045 NA
ENDROOT
BRANCH   5   7
HETATM    7  C   UNL     1     -42.835  58.389 -51.156  1.00  0.00     0.316 C 
BRANCH   7   8
HETATM    8  N   UNL     1     -42.503  56.976 -50.621  1.00  0.00    -0.061 N 
HETATM    9  H   UNL     1     -42.788  56.993 -49.634  1.00  0.00     0.280 HD
HETATM   10  C   UNL     1     -43.313  55.888 -51.321  1.00  0.00     0.255 C 
HETATM   11  C   UNL     1     -42.999  54.504 -50.701  1.00  0.00     0.152 C 
HETATM   12  N   UNL     1     -41.544  54.214 -50.634  1.00  0.00    -0.364 N 
HETATM   13  C   UNL     1     -40.720  55.292 -50.031  1.00  0.00     0.152 C 
HETATM   14  C   UNL     1     -41.009  56.671 -50.674  1.00  0.00     0.255 C 
BRANCH  12  15
HETATM   15  C   UNL     1     -40.951  53.423 -51.601  1.00  0.00     0.102 A 
HETATM   16  N   UNL     1     -40.146  52.427 -51.183  1.00  0.00    -0.352 N 
HETATM   17  H   UNL     1     -40.059  52.290 -50.179  1.00  0.00     0.166 HD
HETATM   18  C   UNL     1     -39.524  51.566 -52.004  1.00  0.00     0.089 A 
HETATM   19  C   UNL     1     -39.696  51.671 -53.374  1.00  0.00     0.017 A 
HETATM   20  C   UNL     1     -40.528  52.666 -53.866  1.00  0.00     0.005 A 
HETATM   21  C   UNL     1     -41.165  53.538 -52.981  1.00  0.00     0.048 A 
ENDBRANCH  12  15
ENDBRANCH   7   8
ENDBRANCH   5   7
BRANCH   3  22
HETATM   22  N   UNL     1     -45.888  60.142 -54.306  1.00  0.00    -0.270 NA
HETATM   23  H   UNL     1     -46.493  60.147 -53.489  1.00  0.00     0.127 HD
HETATM   24  H   UNL     1     -45.649  61.061 -54.653  1.00  0.00     0.127 HD
ENDBRANCH   3  22
BRANCH   1  25
HETATM   25  N   UNL     1     -42.112  57.826 -55.799  1.00  0.00    -0.185 N 
HETATM   26  H   UNL     1     -41.358  57.249 -55.441  1.00  0.00     0.184 HD
BRANCH  25  27
HETATM   27  C   UNL     1     -42.404  57.550 -57.152  1.00  0.00     0.085 A 
HETATM   28  C   UNL     1     -43.041  56.367 -57.550  1.00  0.00     0.069 A 
HETATM   29  C   UNL     1     -43.346  56.123 -58.891  1.00  0.00     0.070 A 
HETATM   30  C   UNL     1     -42.994  57.066 -59.853  1.00  0.00     0.039 A 
HETATM   31  C   UNL     1     -42.348  58.250 -59.477  1.00  0.00     0.042 A 
HETATM   32  C   UNL     1     -42.051  58.496 -58.135  1.00  0.00     0.095 A 
BRANCH  29  33
HETATM   33  O   UNL     1     -43.994  54.940 -59.120  1.00  0.00    -0.356 OA
HETATM   34  C   UNL     1     -44.954  54.924 -60.171  1.00  0.00     0.210 C 
ENDBRANCH  29  33
BRANCH  32  35
HETATM   35  O   UNL     1     -41.422  59.625 -57.659  1.00  0.00    -0.354 OA
HETATM   36  C   UNL     1     -41.460  60.774 -58.503  1.00  0.00     0.210 C 
ENDBRANCH  32  35
ENDBRANCH  25  27
ENDBRANCH   1  25
TORSDOF 8
ENDMDL
MODEL 7
REMARK VINA RESULT:      -7.6      2.501      7.454
REMARK  8 active torsions:
REMARK  status: ('A' for Active; 'I' for Inactive)
REMARK    1  A    between atoms: O_2  and  C_3 
REMARK    2  A    between atoms: C_5  and  N_6 
REMARK    3  A    between atoms: N_6  and  C_7 
REMARK    4  A    between atoms: C_9  and  N_10 
REMARK    5  A    between atoms: C_12  and  C_13 
REMARK    6  A    between atoms: C_13  and  N_14 
REMARK    7  A    between atoms: N_18  and  C_19 
REMARK    8  A    between atoms: C_29  and  O_30 
ROOT
HETATM    1  C   UNL     1     -42.923  58.626 -54.874  1.00  0.00     0.731 A 
HETATM    2  N   UNL     1     -44.064  59.265 -55.101  1.00  0.00    -0.031 NA
HETATM    3  C   UNL     1     -44.829  59.522 -54.059  1.00  0.00     0.219 A 
HETATM    4  N   UNL     1     -44.503  59.253 -52.807  1.00  0.00    -0.200 NA
HETATM    5  C   UNL     1     -43.329  58.644 -52.654  1.00  0.00     0.174 A 
HETATM    6  N   UNL     1     -42.502  58.318 -53.647  1.00  0.00    -0.045 NA
ENDROOT
BRANCH   5   7
HETATM    7  C   UNL     1     -42.766  58.598 -51.246  1.00  0.00     0.316 C 
BRANCH   7   8
HETATM    8  N   UNL     1     -42.663  57.185 -50.624  1.00  0.00    -0.061 N 
HETATM    9  H   UNL     1     -43.161  57.255 -49.727  1.00  0.00     0.280 HD
HETATM   10  C   UNL     1     -43.370  56.129 -51.468  1.00  0.00     0.255 C 
HETATM   11  C   UNL     1     -43.302  54.749 -50.767  1.00  0.00     0.152 C 
HETATM   12  N   UNL     1     -41.923  54.368 -50.367  1.00  0.00    -0.364 N 
HETATM   13  C   UNL     1     -41.181  55.411 -49.614  1.00  0.00     0.152 C 
HETATM   14  C   UNL     1     -41.220  56.783 -50.332  1.00  0.00     0.255 C 
BRANCH  12  15
HETATM   15  C   UNL     1     -41.186  53.507 -51.160  1.00  0.00     0.102 A 
HETATM   16  N   UNL     1     -40.525  52.508 -50.545  1.00  0.00    -0.352 N 
HETATM   17  H   UNL     1     -40.644  52.421 -49.539  1.00  0.00     0.166 HD
HETATM   18  C   UNL     1     -39.791  51.584 -51.186  1.00  0.00     0.089 A 
HETATM   19  C   UNL     1     -39.683  51.623 -52.566  1.00  0.00     0.017 A 
HETATM   20  C   UNL     1     -40.357  52.619 -53.258  1.00  0.00     0.005 A 
HETATM   21  C   UNL     1     -41.117  53.557 -52.558  1.00  0.00     0.048 A 
ENDBRANCH  12  15
ENDBRANCH   7   8
ENDBRANCH   5   7
BRANCH   3  22
HETATM   22  N   UNL     1     -46.023  60.172 -54.284  1.00  0.00    -0.270 NA
HETATM   23  H   UNL     1     -46.451  60.410 -53.394  1.00  0.00     0.127 HD
HETATM   24  H   UNL     1     -45.907  60.956 -54.912  1.00  0.00     0.127 HD
ENDBRANCH   3  22
BRANCH   1  25
HETATM   25  N   UNL     1     -42.077  58.272 -55.918  1.00  0.00    -0.185 N 
HETATM   26  H   UNL     1     -41.133  58.084 -55.596  1.00  0.00     0.184 HD
BRANCH  25  27
HETATM   27  C   UNL     1     -42.364  57.634 -57.143  1.00  0.00     0.085 A 
HETATM   28  C   UNL     1     -42.080  58.231 -58.378  1.00  0.00     0.069 A 
HETATM   29  C   UNL     1     -42.346  57.573 -59.581  1.00  0.00     0.070 A 
HETATM   30  C   UNL     1     -42.922  56.305 -59.552  1.00  0.00     0.039 A 
HETATM   31  C   UNL     1     -43.222  55.695 -58.329  1.00  0.00     0.042 A 
HETATM   32  C   UNL     1     -42.948  56.351 -57.126  1.00  0.00     0.095 A 
BRANCH  29  33
HETATM   33  O   UNL     1     -41.987  58.270 -60.702  1.00  0.00    -0.356 OA
HETATM   34  C   UNL     1     -42.010  59.691 -60.611  1.00  0.00     0.210 C 
ENDBRANCH  29  33
BRANCH  32  35
HETATM   35  O   UNL     1     -43.202  55.842 -55.872  1.00  0.00    -0.354 OA
HETATM   36  C   UNL     1     -42.979  54.443 -55.700  1.00  0.00     0.210 C 
ENDBRANCH  32  35
ENDBRANCH  25  27
ENDBRANCH   1  25
TORSDOF 8
ENDMDL
MODEL 8
REMARK VINA RESULT:      -7.5      2.098      3.113
REMARK  8 active torsions:
REMARK  status: ('A' for Active; 'I' for Inactive)
REMARK    1  A    between atoms: O_2  and  C_3 
REMARK    2  A    between atoms: C_5  and  N_6 
REMARK    3  A    between atoms: N_6  and  C_7 
REMARK    4  A    between atoms: C_9  and  N_10 
REMARK    5  A    between atoms: C_12  and  C_13 
REMARK    6  A    between atoms: C_13  and  N_14 
REMARK    7  A    between atoms: N_18  and  C_19 
REMARK    8  A    between atoms: C_29  and  O_30 
ROOT
HETATM    1  C   UNL     1     -41.621  54.489 -53.085  1.00  0.00     0.731 A 
HETATM    2  N   UNL     1     -42.095  53.939 -54.197  1.00  0.00    -0.031 NA
HETATM    3  C   UNL     1     -43.175  54.481 -54.725  1.00  0.00     0.219 A 
HETATM    4  N   UNL     1     -43.767  55.569 -54.264  1.00  0.00    -0.200 NA
HETATM    5  C   UNL     1     -43.216  56.084 -53.167  1.00  0.00     0.174 A 
HETATM    6  N   UNL     1     -42.144  55.591 -52.547  1.00  0.00    -0.045 NA
ENDROOT
BRANCH   5   7
HETATM    7  C   UNL     1     -43.649  57.485 -52.783  1.00  0.00     0.316 C 
BRANCH   7   8
HETATM    8  N   UNL     1     -43.538  58.541 -53.909  1.00  0.00    -0.061 N 
HETATM    9  H   UNL     1     -43.566  59.447 -53.426  1.00  0.00     0.280 HD
HETATM   10  C   UNL     1     -42.210  58.451 -54.656  1.00  0.00     0.255 C 
HETATM   11  C   UNL     1     -42.119  59.572 -55.721  1.00  0.00     0.152 C 
HETATM   12  N   UNL     1     -43.303  59.623 -56.615  1.00  0.00    -0.364 N 
HETATM   13  C   UNL     1     -44.613  59.627 -55.916  1.00  0.00     0.152 C 
HETATM   14  C   UNL     1     -44.718  58.485 -54.875  1.00  0.00     0.255 C 
BRANCH  12  15
HETATM   15  C   UNL     1     -43.250  59.037 -57.867  1.00  0.00     0.102 A 
HETATM   16  N   UNL     1     -42.051  58.602 -58.300  1.00  0.00    -0.352 N 
HETATM   17  H   UNL     1     -41.266  58.691 -57.660  1.00  0.00     0.166 HD
HETATM   18  C   UNL     1     -41.852  57.994 -59.479  1.00  0.00     0.089 A 
HETATM   19  C   UNL     1     -42.920  57.777 -60.335  1.00  0.00     0.017 A 
HETATM   20  C   UNL     1     -44.184  58.186 -59.937  1.00  0.00     0.005 A 
HETATM   21  C   UNL     1     -44.354  58.808 -58.699  1.00  0.00     0.048 A 
ENDBRANCH  12  15
ENDBRANCH   7   8
ENDBRANCH   5   7
BRANCH   3  22
HETATM   22  N   UNL     1     -43.683  53.911 -55.871  1.00  0.00    -0.270 NA
HETATM   23  H   UNL     1     -44.666  53.692 -55.731  1.00  0.00     0.127 HD
HETATM   24  H   UNL     1     -43.496  54.481 -56.685  1.00  0.00     0.127 HD
ENDBRANCH   3  22
BRANCH   1  25
HETATM   25  N   UNL     1     -40.516  53.955 -52.434  1.00  0.00    -0.185 N 
HETATM   26  H   UNL     1     -40.010  54.657 -51.905  1.00  0.00     0.184 HD
BRANCH  25  27
HETATM   27  C   UNL     1     -40.291  52.649 -51.947  1.00  0.00     0.085 A 
HETATM   28  C   UNL     1     -39.914  51.595 -52.789  1.00  0.00     0.069 A 
HETATM   29  C   UNL     1     -39.669  50.315 -52.285  1.00  0.00     0.070 A 
HETATM   30  C   UNL     1     -39.820  50.080 -50.920  1.00  0.00     0.039 A 
HETATM   31  C   UNL     1     -40.205  51.117 -50.064  1.00  0.00     0.042 A 
HETATM   32  C   UNL     1     -40.442  52.398 -50.568  1.00  0.00     0.095 A 
BRANCH  29  33
HETATM   33  O   UNL     1     -39.281  49.400 -53.224  1.00  0.00    -0.356 OA
HETATM   34  C   UNL     1     -39.567  49.712 -54.584  1.00  0.00     0.210 C 
ENDBRANCH  29  33
BRANCH  32  35
HETATM   35  O   UNL     1     -40.822  53.487 -49.815  1.00  0.00    -0.354 OA
HETATM   36  C   UNL     1     -39.830  54.034 -48.949  1.00  0.00     0.210 C 
ENDBRANCH  32  35
ENDBRANCH  25  27
ENDBRANCH   1  25
TORSDOF 8
ENDMDL
MODEL 9
REMARK VINA RESULT:      -7.4      1.852      2.914
REMARK  8 active torsions:
REMARK  status: ('A' for Active; 'I' for Inactive)
REMARK    1  A    between atoms: O_2  and  C_3 
REMARK    2  A    between atoms: C_5  and  N_6 
REMARK    3  A    between atoms: N_6  and  C_7 
REMARK    4  A    between atoms: C_9  and  N_10 
REMARK    5  A    between atoms: C_12  and  C_13 
REMARK    6  A    between atoms: C_13  and  N_14 
REMARK    7  A    between atoms: N_18  and  C_19 
REMARK    8  A    between atoms: C_29  and  O_30 
ROOT
HETATM    1  C   UNL     1     -41.448  57.286 -51.206  1.00  0.00     0.731 A 
HETATM    2  N   UNL     1     -40.334  57.919 -50.860  1.00  0.00    -0.031 NA
HETATM    3  C   UNL     1     -40.175  59.149 -51.309  1.00  0.00     0.219 A 
HETATM    4  N   UNL     1     -41.078  59.810 -52.013  1.00  0.00    -0.200 NA
HETATM    5  C   UNL     1     -42.183  59.122 -52.291  1.00  0.00     0.174 A 
HETATM    6  N   UNL     1     -42.421  57.869 -51.906  1.00  0.00    -0.045 NA
ENDROOT
BRANCH   5   7
HETATM    7  C   UNL     1     -43.365  59.919 -52.811  1.00  0.00     0.316 C 
BRANCH   7   8
HETATM    8  N   UNL     1     -43.367  60.173 -54.337  1.00  0.00    -0.061 N 
HETATM    9  H   UNL     1     -43.558  61.178 -54.437  1.00  0.00     0.280 HD
HETATM   10  C   UNL     1     -42.009  59.891 -54.972  1.00  0.00     0.255 C 
HETATM   11  C   UNL     1     -42.043  60.231 -56.483  1.00  0.00     0.152 C 
HETATM   12  N   UNL     1     -43.178  59.593 -57.197  1.00  0.00    -0.364 N 
HETATM   13  C   UNL     1     -44.504  59.781 -56.556  1.00  0.00     0.152 C 
HETATM   14  C   UNL     1     -44.478  59.409 -55.052  1.00  0.00     0.255 C 
BRANCH  12  15
HETATM   15  C   UNL     1     -42.977  58.428 -57.915  1.00  0.00     0.102 A 
HETATM   16  N   UNL     1     -43.431  57.280 -57.377  1.00  0.00    -0.352 N 
HETATM   17  H   UNL     1     -43.934  57.346 -56.496  1.00  0.00     0.166 HD
HETATM   18  C   UNL     1     -43.329  56.079 -57.969  1.00  0.00     0.089 A 
HETATM   19  C   UNL     1     -42.728  55.970 -59.212  1.00  0.00     0.017 A 
HETATM   20  C   UNL     1     -42.257  57.121 -59.826  1.00  0.00     0.005 A 
HETATM   21  C   UNL     1     -42.388  58.353 -59.184  1.00  0.00     0.048 A 
ENDBRANCH  12  15
ENDBRANCH   7   8
ENDBRANCH   5   7
BRANCH   3  22
HETATM   22  N   UNL     1     -39.016  59.812 -50.969  1.00  0.00    -0.270 NA
HETATM   23  H   UNL     1     -38.498  59.259 -50.292  1.00  0.00     0.127 HD
HETATM   24  H   UNL     1     -38.483  60.074 -51.787  1.00  0.00     0.127 HD
ENDBRANCH   3  22
BRANCH   1  25
HETATM   25  N   UNL     1     -41.677  55.972 -50.818  1.00  0.00    -0.185 N 
HETATM   26  H   UNL     1     -42.584  55.857 -50.378  1.00  0.00     0.184 HD
BRANCH  25  27
HETATM   27  C   UNL     1     -41.188  54.765 -51.361  1.00  0.00     0.085 A 
HETATM   28  C   UNL     1     -41.593  54.295 -52.618  1.00  0.00     0.069 A 
HETATM   29  C   UNL     1     -41.078  53.112 -53.152  1.00  0.00     0.070 A 
HETATM   30  C   UNL     1     -40.156  52.375 -52.412  1.00  0.00     0.039 A 
HETATM   31  C   UNL     1     -39.745  52.822 -51.151  1.00  0.00     0.042 A 
HETATM   32  C   UNL     1     -40.255  54.009 -50.622  1.00  0.00     0.095 A 
BRANCH  29  33
HETATM   33  O   UNL     1     -41.547  52.800 -54.398  1.00  0.00    -0.356 OA
HETATM   34  C   UNL     1     -42.265  53.817 -55.089  1.00  0.00     0.210 C 
ENDBRANCH  29  33
BRANCH  32  35
HETATM   35  O   UNL     1     -39.918  54.538 -49.395  1.00  0.00    -0.354 OA
HETATM   36  C   UNL     1     -40.404  53.840 -48.250  1.00  0.00     0.210 C 
ENDBRANCH  32  35
ENDBRANCH  25  27
ENDBRANCH   1  25
TORSDOF 8
ENDMDL
MODEL 10
REMARK VINA RESULT:      -7.4      3.298      8.442
REMARK  8 active torsions:
REMARK  status: ('A' for Active; 'I' for Inactive)
REMARK    1  A    between atoms: O_2  and  C_3 
REMARK    2  A    between atoms: C_5  and  N_6 
REMARK    3  A    between atoms: N_6  and  C_7 
REMARK    4  A    between atoms: C_9  and  N_10 
REMARK    5  A    between atoms: C_12  and  C_13 
REMARK    6  A    between atoms: C_13  and  N_14 
REMARK    7  A    between atoms: N_18  and  C_19 
REMARK    8  A    between atoms: C_29  and  O_30 
ROOT
HETATM    1  C   UNL     1     -44.018  59.395 -57.100  1.00  0.00     0.731 A 
HETATM    2  N   UNL     1     -43.112  60.132 -57.730  1.00  0.00    -0.031 NA
HETATM    3  C   UNL     1     -41.990  60.388 -57.086  1.00  0.00     0.219 A 
HETATM    4  N   UNL     1     -41.683  59.901 -55.896  1.00  0.00    -0.200 NA
HETATM    5  C   UNL     1     -42.626  59.143 -55.342  1.00  0.00     0.174 A 
HETATM    6  N   UNL     1     -43.800  58.853 -55.902  1.00  0.00    -0.045 NA
ENDROOT
BRANCH   5   7
HETATM    7  C   UNL     1     -42.212  58.312 -54.143  1.00  0.00     0.316 C 
BRANCH   7   8
HETATM    8  N   UNL     1     -42.576  56.811 -54.223  1.00  0.00    -0.061 N 
HETATM    9  H   UNL     1     -43.526  56.790 -54.615  1.00  0.00     0.280 HD
HETATM   10  C   UNL     1     -41.662  56.045 -55.174  1.00  0.00     0.255 C 
HETATM   11  C   UNL     1     -42.113  54.566 -55.276  1.00  0.00     0.152 C 
HETATM   12  N   UNL     1     -42.274  53.916 -53.950  1.00  0.00    -0.364 N 
HETATM   13  C   UNL     1     -43.092  54.680 -52.975  1.00  0.00     0.152 C 
HETATM   14  C   UNL     1     -42.620  56.150 -52.848  1.00  0.00     0.255 C 
BRANCH  12  15
HETATM   15  C   UNL     1     -41.266  53.112 -53.447  1.00  0.00     0.102 A 
HETATM   16  N   UNL     1     -41.012  53.188 -52.127  1.00  0.00    -0.352 N 
HETATM   17  H   UNL     1     -41.606  53.800 -51.573  1.00  0.00     0.166 HD
HETATM   18  C   UNL     1     -40.082  52.453 -51.496  1.00  0.00     0.089 A 
HETATM   19  C   UNL     1     -39.318  51.545 -52.209  1.00  0.00     0.017 A 
HETATM   20  C   UNL     1     -39.547  51.407 -53.570  1.00  0.00     0.005 A 
HETATM   21  C   UNL     1     -40.527  52.183 -54.191  1.00  0.00     0.048 A 
ENDBRANCH  12  15
ENDBRANCH   7   8
ENDBRANCH   5   7
BRANCH   3  22
HETATM   22  N   UNL     1     -41.047  61.164 -57.724  1.00  0.00    -0.270 NA
HETATM   23  H   UNL     1     -41.507  61.948 -58.178  1.00  0.00     0.127 HD
HETATM   24  H   UNL     1     -40.297  61.427 -57.099  1.00  0.00     0.127 HD
ENDBRANCH   3  22
BRANCH   1  25
HETATM   25  N   UNL     1     -45.248  59.116 -57.683  1.00  0.00    -0.185 N 
HETATM   26  H   UNL     1     -45.873  59.914 -57.655  1.00  0.00     0.184 HD
BRANCH  25  27
HETATM   27  C   UNL     1     -45.581  58.210 -58.713  1.00  0.00     0.085 A 
HETATM   28  C   UNL     1     -44.765  57.117 -59.037  1.00  0.00     0.069 A 
HETATM   29  C   UNL     1     -45.124  56.216 -60.041  1.00  0.00     0.070 A 
HETATM   30  C   UNL     1     -46.308  56.417 -60.747  1.00  0.00     0.039 A 
HETATM   31  C   UNL     1     -47.132  57.507 -60.445  1.00  0.00     0.042 A 
HETATM   32  C   UNL     1     -46.776  58.404 -59.435  1.00  0.00     0.095 A 
BRANCH  29  33
HETATM   33  O   UNL     1     -44.242  55.185 -60.221  1.00  0.00    -0.356 OA
HETATM   34  C   UNL     1     -44.455  54.013 -59.442  1.00  0.00     0.210 C 
ENDBRANCH  29  33
BRANCH  32  35
HETATM   35  O   UNL     1     -47.513  59.504 -59.059  1.00  0.00    -0.354 OA
HETATM   36  C   UNL     1     -48.372  60.061 -60.052  1.00  0.00     0.210 C 
ENDBRANCH  32  35
ENDBRANCH  25  27
ENDBRANCH   1  25
TORSDOF 8
ENDMDL
