MODEL 1
REMARK VINA RESULT:      -7.5      0.000      0.000
REMARK  2 active torsions:
REMARK  status: ('A' for Active; 'I' for Inactive)
REMARK       I    between atoms: C_2  and  N_3 
REMARK    1  A    between atoms: N_3  and  C_4 
REMARK    2  A    between atoms: C_15  and  N_16 
REMARK       I    between atoms: N_16  and  C_17 
ROOT
HETATM    1  C   UNL     1     -40.222  52.967 -53.445  1.00  0.00     0.036 A 
HETATM    2  C   UNL     1     -40.816  53.805 -52.495  1.00  0.00     0.062 A 
HETATM    3  C   UNL     1     -41.312  55.063 -52.828  1.00  0.00     0.070 A 
HETATM    4  C   UNL     1     -41.209  55.493 -54.162  1.00  0.00    -0.006 A 
HETATM    5  C   UNL     1     -40.616  54.664 -55.126  1.00  0.00     0.016 A 
HETATM    6  C   UNL     1     -40.129  53.408 -54.767  1.00  0.00     0.030 A 
HETATM    7  N   UNL     1     -41.876  55.829 -51.876  1.00  0.00    -0.247 NA
HETATM    8  C   UNL     1     -42.359  57.044 -52.190  1.00  0.00     0.070 A 
HETATM    9  C   UNL     1     -42.297  57.554 -53.499  1.00  0.00    -0.006 A 
HETATM   10  C   UNL     1     -41.711  56.756 -54.487  1.00  0.00     0.027 A 
HETATM   11  C   UNL     1     -42.942  57.831 -51.200  1.00  0.00     0.062 A 
HETATM   12  C   UNL     1     -43.462  59.100 -51.470  1.00  0.00     0.036 A 
HETATM   13  C   UNL     1     -43.391  59.593 -52.776  1.00  0.00     0.030 A 
HETATM   14  C   UNL     1     -42.813  58.826 -53.786  1.00  0.00     0.016 A 
ENDROOT
BRANCH   1  15
HETATM   15  N   UNL     1     -39.709  51.683 -53.162  1.00  0.00    -0.327 N 
HETATM   16  C   UNL     1     -40.105  50.476 -53.710  1.00  0.00     0.218 C 
HETATM   17  C   UNL     1     -39.318  49.309 -53.166  1.00  0.00     0.117 C 
HETATM   18  O   UNL     1     -41.002  50.295 -54.524  1.00  0.00    -0.274 OA
HETATM   19  H   UNL     1     -38.972  51.645 -52.469  1.00  0.00     0.169 HD
ENDBRANCH   1  15
BRANCH  12  20
HETATM   20  N   UNL     1     -44.063  59.938 -50.505  1.00  0.00    -0.327 N 
HETATM   21  C   UNL     1     -45.336  59.835 -49.976  1.00  0.00     0.218 C 
HETATM   22  C   UNL     1     -45.644  60.913 -48.963  1.00  0.00     0.117 C 
HETATM   23  O   UNL     1     -46.183  58.993 -50.253  1.00  0.00    -0.274 OA
HETATM   24  H   UNL     1     -43.492  60.702 -50.169  1.00  0.00     0.169 HD
ENDBRANCH  12  20
TORSDOF 2
ENDMDL
MODEL 2
REMARK VINA RESULT:      -7.5      0.908      7.893
REMARK  2 active torsions:
REMARK  status: ('A' for Active; 'I' for Inactive)
REMARK       I    between atoms: C_2  and  N_3 
REMARK    1  A    between atoms: N_3  and  C_4 
REMARK    2  A    between atoms: C_15  and  N_16 
REMARK       I    between atoms: N_16  and  C_17 
ROOT
HETATM    1  C   UNL     1     -43.337  59.205 -51.241  1.00  0.00     0.036 A 
HETATM    2  C   UNL     1     -43.074  57.834 -51.140  1.00  0.00     0.062 A 
HETATM    3  C   UNL     1     -42.423  57.132 -52.150  1.00  0.00     0.070 A 
HETATM    4  C   UNL     1     -42.023  57.831 -53.302  1.00  0.00    -0.006 A 
HETATM    5  C   UNL     1     -42.279  59.205 -53.419  1.00  0.00     0.016 A 
HETATM    6  C   UNL     1     -42.931  59.886 -52.391  1.00  0.00     0.030 A 
HETATM    7  N   UNL     1     -42.193  55.814 -52.003  1.00  0.00    -0.247 NA
HETATM    8  C   UNL     1     -41.564  55.129 -52.973  1.00  0.00     0.070 A 
HETATM    9  C   UNL     1     -41.129  55.748 -54.159  1.00  0.00    -0.006 A 
HETATM   10  C   UNL     1     -41.369  57.117 -54.311  1.00  0.00     0.027 A 
HETATM   11  C   UNL     1     -41.327  53.766 -52.813  1.00  0.00     0.062 A 
HETATM   12  C   UNL     1     -40.676  53.005 -53.788  1.00  0.00     0.036 A 
HETATM   13  C   UNL     1     -40.252  53.635 -54.961  1.00  0.00     0.030 A 
HETATM   14  C   UNL     1     -40.475  54.998 -55.148  1.00  0.00     0.016 A 
ENDROOT
BRANCH   1  15
HETATM   15  N   UNL     1     -43.988  59.965 -50.245  1.00  0.00    -0.327 N 
HETATM   16  C   UNL     1     -45.311  59.883 -49.850  1.00  0.00     0.218 C 
HETATM   17  C   UNL     1     -45.645  60.855 -48.745  1.00  0.00     0.117 C 
HETATM   18  O   UNL     1     -46.176  59.153 -50.318  1.00  0.00    -0.274 OA
HETATM   19  H   UNL     1     -43.417  60.656 -49.774  1.00  0.00     0.169 HD
ENDBRANCH   1  15
BRANCH  12  20
HETATM   20  N   UNL     1     -40.411  51.622 -53.676  1.00  0.00    -0.327 N 
HETATM   21  C   UNL     1     -39.636  50.987 -52.724  1.00  0.00     0.218 C 
HETATM   22  C   UNL     1     -39.572  49.491 -52.915  1.00  0.00     0.117 C 
HETATM   23  O   UNL     1     -39.029  51.514 -51.798  1.00  0.00    -0.274 OA
HETATM   24  H   UNL     1     -40.839  51.034 -54.379  1.00  0.00     0.169 HD
ENDBRANCH  12  20
TORSDOF 2
ENDMDL
MODEL 3
REMARK VINA RESULT:      -7.4      3.101      4.076
REMARK  2 active torsions:
REMARK  status: ('A' for Active; 'I' for Inactive)
REMARK       I    between atoms: C_2  and  N_3 
REMARK    1  A    between atoms: N_3  and  C_4 
REMARK    2  A    between atoms: C_15  and  N_16 
REMARK       I    between atoms: N_16  and  C_17 
ROOT
HETATM    1  C   UNL     1     -40.888  53.350 -50.888  1.00  0.00     0.036 A 
HETATM    2  C   UNL     1     -41.815  53.657 -51.890  1.00  0.00     0.062 A 
HETATM    3  C   UNL     1     -42.262  54.958 -52.108  1.00  0.00     0.070 A 
HETATM    4  C   UNL     1     -41.760  55.985 -51.290  1.00  0.00    -0.006 A 
HETATM    5  C   UNL     1     -40.830  55.693 -50.281  1.00  0.00     0.016 A 
HETATM    6  C   UNL     1     -40.398  54.382 -50.084  1.00  0.00     0.030 A 
HETATM    7  N   UNL     1     -43.153  55.200 -53.087  1.00  0.00    -0.247 NA
HETATM    8  C   UNL     1     -43.588  56.453 -53.304  1.00  0.00     0.070 A 
HETATM    9  C   UNL     1     -43.140  57.541 -52.533  1.00  0.00    -0.006 A 
HETATM   10  C   UNL     1     -42.214  57.288 -51.517  1.00  0.00     0.027 A 
HETATM   11  C   UNL     1     -44.509  56.697 -54.320  1.00  0.00     0.062 A 
HETATM   12  C   UNL     1     -44.993  57.980 -54.591  1.00  0.00     0.036 A 
HETATM   13  C   UNL     1     -44.539  59.049 -53.816  1.00  0.00     0.030 A 
HETATM   14  C   UNL     1     -43.617  58.834 -52.792  1.00  0.00     0.016 A 
ENDROOT
BRANCH   1  15
HETATM   15  N   UNL     1     -40.399  52.051 -50.629  1.00  0.00    -0.327 N 
HETATM   16  C   UNL     1     -39.678  51.235 -51.482  1.00  0.00     0.218 C 
HETATM   17  C   UNL     1     -39.320  49.912 -50.851  1.00  0.00     0.117 C 
HETATM   18  O   UNL     1     -39.357  51.479 -52.640  1.00  0.00    -0.274 OA
HETATM   19  H   UNL     1     -40.611  51.673 -49.715  1.00  0.00     0.169 HD
ENDBRANCH   1  15
BRANCH  12  20
HETATM   20  N   UNL     1     -45.926  58.282 -55.608  1.00  0.00    -0.327 N 
HETATM   21  C   UNL     1     -45.708  58.301 -56.973  1.00  0.00     0.218 C 
HETATM   22  C   UNL     1     -46.940  58.672 -57.763  1.00  0.00     0.117 C 
HETATM   23  O   UNL     1     -44.655  58.061 -57.554  1.00  0.00    -0.274 OA
HETATM   24  H   UNL     1     -46.859  58.513 -55.294  1.00  0.00     0.169 HD
ENDBRANCH  12  20
TORSDOF 2
ENDMDL
MODEL 4
REMARK VINA RESULT:      -7.1      3.896      5.109
REMARK  2 active torsions:
REMARK  status: ('A' for Active; 'I' for Inactive)
REMARK       I    between atoms: C_2  and  N_3 
REMARK    1  A    between atoms: N_3  and  C_4 
REMARK    2  A    between atoms: C_15  and  N_16 
REMARK       I    between atoms: N_16  and  C_17 
ROOT
HETATM    1  C   UNL     1     -41.523  54.091 -51.516  1.00  0.00     0.036 A 
HETATM    2  C   UNL     1     -42.329  55.099 -52.056  1.00  0.00     0.062 A 
HETATM    3  C   UNL     1     -42.471  55.274 -53.430  1.00  0.00     0.070 A 
HETATM    4  C   UNL     1     -41.779  54.405 -54.291  1.00  0.00    -0.006 A 
HETATM    5  C   UNL     1     -40.968  53.389 -53.766  1.00  0.00     0.016 A 
HETATM    6  C   UNL     1     -40.844  53.234 -52.386  1.00  0.00     0.030 A 
HETATM    7  N   UNL     1     -43.260  56.259 -53.897  1.00  0.00    -0.247 NA
HETATM    8  C   UNL     1     -43.404  56.433 -55.222  1.00  0.00     0.070 A 
HETATM    9  C   UNL     1     -42.749  55.611 -56.157  1.00  0.00    -0.006 A 
HETATM   10  C   UNL     1     -41.930  54.588 -55.669  1.00  0.00     0.027 A 
HETATM   11  C   UNL     1     -44.224  57.453 -55.698  1.00  0.00     0.062 A 
HETATM   12  C   UNL     1     -44.411  57.679 -57.066  1.00  0.00     0.036 A 
HETATM   13  C   UNL     1     -43.752  56.854 -57.980  1.00  0.00     0.030 A 
HETATM   14  C   UNL     1     -42.925  55.824 -57.531  1.00  0.00     0.016 A 
ENDROOT
BRANCH   1  15
HETATM   15  N   UNL     1     -41.349  53.867 -50.133  1.00  0.00    -0.327 N 
HETATM   16  C   UNL     1     -40.213  54.095 -49.378  1.00  0.00     0.218 C 
HETATM   17  C   UNL     1     -40.406  53.740 -47.924  1.00  0.00     0.117 C 
HETATM   18  O   UNL     1     -39.131  54.505 -49.779  1.00  0.00    -0.274 OA
HETATM   19  H   UNL     1     -42.149  53.486 -49.644  1.00  0.00     0.169 HD
ENDBRANCH   1  15
BRANCH  12  20
HETATM   20  N   UNL     1     -45.230  58.697 -57.601  1.00  0.00    -0.327 N 
HETATM   21  C   UNL     1     -46.606  58.691 -57.730  1.00  0.00     0.218 C 
HETATM   22  C   UNL     1     -47.147  59.956 -58.354  1.00  0.00     0.117 C 
HETATM   23  O   UNL     1     -47.372  57.792 -57.404  1.00  0.00    -0.274 OA
HETATM   24  H   UNL     1     -44.746  59.523 -57.930  1.00  0.00     0.169 HD
ENDBRANCH  12  20
TORSDOF 2
ENDMDL
MODEL 5
REMARK VINA RESULT:      -7.1      3.884      5.317
REMARK  2 active torsions:
REMARK  status: ('A' for Active; 'I' for Inactive)
REMARK       I    between atoms: C_2  and  N_3 
REMARK    1  A    between atoms: N_3  and  C_4 
REMARK    2  A    between atoms: C_15  and  N_16 
REMARK       I    between atoms: N_16  and  C_17 
ROOT
HETATM    1  C   UNL     1     -40.704  54.164 -51.773  1.00  0.00     0.036 A 
HETATM    2  C   UNL     1     -40.988  55.412 -52.339  1.00  0.00     0.062 A 
HETATM    3  C   UNL     1     -41.467  55.540 -53.640  1.00  0.00     0.070 A 
HETATM    4  C   UNL     1     -41.666  54.373 -54.399  1.00  0.00    -0.006 A 
HETATM    5  C   UNL     1     -41.386  53.115 -53.846  1.00  0.00     0.016 A 
HETATM    6  C   UNL     1     -40.909  53.014 -52.539  1.00  0.00     0.030 A 
HETATM    7  N   UNL     1     -41.726  56.764 -54.137  1.00  0.00    -0.247 NA
HETATM    8  C   UNL     1     -42.190  56.895 -55.392  1.00  0.00     0.070 A 
HETATM    9  C   UNL     1     -42.418  55.783 -56.222  1.00  0.00    -0.006 A 
HETATM   10  C   UNL     1     -42.148  54.512 -55.704  1.00  0.00     0.027 A 
HETATM   11  C   UNL     1     -42.457  58.165 -55.898  1.00  0.00     0.062 A 
HETATM   12  C   UNL     1     -42.942  58.360 -57.195  1.00  0.00     0.036 A 
HETATM   13  C   UNL     1     -43.162  57.245 -58.006  1.00  0.00     0.030 A 
HETATM   14  C   UNL     1     -42.903  55.962 -57.525  1.00  0.00     0.016 A 
ENDROOT
BRANCH   1  15
HETATM   15  N   UNL     1     -40.223  53.978 -50.459  1.00  0.00    -0.327 N 
HETATM   16  C   UNL     1     -40.910  54.172 -49.274  1.00  0.00     0.218 C 
HETATM   17  C   UNL     1     -40.067  53.864 -48.061  1.00  0.00     0.117 C 
HETATM   18  O   UNL     1     -42.060  54.574 -49.145  1.00  0.00    -0.274 OA
HETATM   19  H   UNL     1     -39.260  53.678 -50.379  1.00  0.00     0.169 HD
ENDBRANCH   1  15
BRANCH  12  20
HETATM   20  N   UNL     1     -43.230  59.624 -57.756  1.00  0.00    -0.327 N 
HETATM   21  C   UNL     1     -42.341  60.646 -58.030  1.00  0.00     0.218 C 
HETATM   22  C   UNL     1     -43.005  61.862 -58.630  1.00  0.00     0.117 C 
HETATM   23  O   UNL     1     -41.131  60.643 -57.830  1.00  0.00    -0.274 OA
HETATM   24  H   UNL     1     -44.202  59.795 -57.979  1.00  0.00     0.169 HD
ENDBRANCH  12  20
TORSDOF 2
ENDMDL
MODEL 6
REMARK VINA RESULT:      -7.0      2.162      2.357
REMARK  2 active torsions:
REMARK  status: ('A' for Active; 'I' for Inactive)
REMARK       I    between atoms: C_2  and  N_3 
REMARK    1  A    between atoms: N_3  and  C_4 
REMARK    2  A    between atoms: C_15  and  N_16 
REMARK       I    between atoms: N_16  and  C_17 
ROOT
HETATM    1  C   UNL     1     -40.368  52.636 -52.734  1.00  0.00     0.036 A 
HETATM    2  C   UNL     1     -41.289  53.624 -52.370  1.00  0.00     0.062 A 
HETATM    3  C   UNL     1     -41.771  54.556 -53.285  1.00  0.00     0.070 A 
HETATM    4  C   UNL     1     -41.311  54.493 -54.612  1.00  0.00    -0.006 A 
HETATM    5  C   UNL     1     -40.388  53.509 -54.992  1.00  0.00     0.016 A 
HETATM    6  C   UNL     1     -39.922  52.586 -54.057  1.00  0.00     0.030 A 
HETATM    7  N   UNL     1     -42.658  55.486 -52.883  1.00  0.00    -0.247 NA
HETATM    8  C   UNL     1     -43.129  56.388 -53.761  1.00  0.00     0.070 A 
HETATM    9  C   UNL     1     -42.724  56.399 -55.108  1.00  0.00    -0.006 A 
HETATM   10  C   UNL     1     -41.802  55.433 -55.523  1.00  0.00     0.027 A 
HETATM   11  C   UNL     1     -44.048  57.346 -53.339  1.00  0.00     0.062 A 
HETATM   12  C   UNL     1     -44.573  58.307 -54.209  1.00  0.00     0.036 A 
HETATM   13  C   UNL     1     -44.158  58.304 -55.543  1.00  0.00     0.030 A 
HETATM   14  C   UNL     1     -43.239  57.357 -55.993  1.00  0.00     0.016 A 
ENDROOT
BRANCH   1  15
HETATM   15  N   UNL     1     -39.852  51.665 -51.848  1.00  0.00    -0.327 N 
HETATM   16  C   UNL     1     -39.679  50.313 -52.086  1.00  0.00     0.218 C 
HETATM   17  C   UNL     1     -39.092  49.589 -50.899  1.00  0.00     0.117 C 
HETATM   18  O   UNL     1     -39.975  49.700 -53.104  1.00  0.00    -0.274 OA
HETATM   19  H   UNL     1     -39.589  52.000 -50.930  1.00  0.00     0.169 HD
ENDBRANCH   1  15
BRANCH  12  20
HETATM   20  N   UNL     1     -45.505  59.298 -53.833  1.00  0.00    -0.327 N 
HETATM   21  C   UNL     1     -45.239  60.549 -53.308  1.00  0.00     0.218 C 
HETATM   22  C   UNL     1     -46.489  61.347 -53.020  1.00  0.00     0.117 C 
HETATM   23  O   UNL     1     -44.137  61.027 -53.067  1.00  0.00    -0.274 OA
HETATM   24  H   UNL     1     -46.479  59.058 -53.963  1.00  0.00     0.169 HD
ENDBRANCH  12  20
TORSDOF 2
ENDMDL
MODEL 7
REMARK VINA RESULT:      -7.0      2.281      3.188
REMARK  2 active torsions:
REMARK  status: ('A' for Active; 'I' for Inactive)
REMARK       I    between atoms: C_2  and  N_3 
REMARK    1  A    between atoms: N_3  and  C_4 
REMARK    2  A    between atoms: C_15  and  N_16 
REMARK       I    between atoms: N_16  and  C_17 
ROOT
HETATM    1  C   UNL     1     -40.737  53.308 -53.237  1.00  0.00     0.036 A 
HETATM    2  C   UNL     1     -40.959  54.511 -53.915  1.00  0.00     0.062 A 
HETATM    3  C   UNL     1     -41.269  55.690 -53.244  1.00  0.00     0.070 A 
HETATM    4  C   UNL     1     -41.361  55.659 -51.841  1.00  0.00    -0.006 A 
HETATM    5  C   UNL     1     -41.141  54.461 -51.146  1.00  0.00     0.016 A 
HETATM    6  C   UNL     1     -40.830  53.294 -51.843  1.00  0.00     0.030 A 
HETATM    7  N   UNL     1     -41.472  56.822 -53.944  1.00  0.00    -0.247 NA
HETATM    8  C   UNL     1     -41.770  57.965 -53.303  1.00  0.00     0.070 A 
HETATM    9  C   UNL     1     -41.883  58.025 -51.902  1.00  0.00    -0.006 A 
HETATM   10  C   UNL     1     -41.672  56.849 -51.176  1.00  0.00     0.027 A 
HETATM   11  C   UNL     1     -41.976  59.132 -54.034  1.00  0.00     0.062 A 
HETATM   12  C   UNL     1     -42.288  60.348 -53.420  1.00  0.00     0.036 A 
HETATM   13  C   UNL     1     -42.397  60.391 -52.027  1.00  0.00     0.030 A 
HETATM   14  C   UNL     1     -42.196  59.237 -51.271  1.00  0.00     0.016 A 
ENDROOT
BRANCH   1  15
HETATM   15  N   UNL     1     -40.413  52.087 -53.868  1.00  0.00    -0.327 N 
HETATM   16  C   UNL     1     -39.684  51.034 -53.346  1.00  0.00     0.218 C 
HETATM   17  C   UNL     1     -39.549  49.887 -54.317  1.00  0.00     0.117 C 
HETATM   18  O   UNL     1     -39.153  50.980 -52.243  1.00  0.00    -0.274 OA
HETATM   19  H   UNL     1     -40.748  51.978 -54.817  1.00  0.00     0.169 HD
ENDBRANCH   1  15
BRANCH  12  20
HETATM   20  N   UNL     1     -42.506  61.559 -54.113  1.00  0.00    -0.327 N 
HETATM   21  C   UNL     1     -43.663  61.968 -54.751  1.00  0.00     0.218 C 
HETATM   22  C   UNL     1     -43.533  63.328 -55.394  1.00  0.00     0.117 C 
HETATM   23  O   UNL     1     -44.716  61.346 -54.836  1.00  0.00    -0.274 OA
HETATM   24  H   UNL     1     -41.721  62.195 -54.145  1.00  0.00     0.169 HD
ENDBRANCH  12  20
TORSDOF 2
ENDMDL
MODEL 8
REMARK VINA RESULT:      -6.9      3.420      4.899
REMARK  2 active torsions:
REMARK  status: ('A' for Active; 'I' for Inactive)
REMARK       I    between atoms: C_2  and  N_3 
REMARK    1  A    between atoms: N_3  and  C_4 
REMARK    2  A    between atoms: C_15  and  N_16 
REMARK       I    between atoms: N_16  and  C_17 
ROOT
HETATM    1  C   UNL     1     -40.649  53.289 -51.382  1.00  0.00     0.036 A 
HETATM    2  C   UNL     1     -40.956  53.516 -52.728  1.00  0.00     0.062 A 
HETATM    3  C   UNL     1     -41.276  54.783 -53.209  1.00  0.00     0.070 A 
HETATM    4  C   UNL     1     -41.289  55.859 -52.304  1.00  0.00    -0.006 A 
HETATM    5  C   UNL     1     -40.985  55.648 -50.951  1.00  0.00     0.016 A 
HETATM    6  C   UNL     1     -40.665  54.369 -50.496  1.00  0.00     0.030 A 
HETATM    7  N   UNL     1     -41.561  54.948 -54.514  1.00  0.00    -0.247 NA
HETATM    8  C   UNL     1     -41.869  56.168 -54.985  1.00  0.00     0.070 A 
HETATM    9  C   UNL     1     -41.907  57.301 -54.152  1.00  0.00    -0.006 A 
HETATM   10  C   UNL     1     -41.611  57.128 -52.796  1.00  0.00     0.027 A 
HETATM   11  C   UNL     1     -42.161  56.331 -56.337  1.00  0.00     0.062 A 
HETATM   12  C   UNL     1     -42.487  57.578 -56.881  1.00  0.00     0.036 A 
HETATM   13  C   UNL     1     -42.521  58.692 -56.040  1.00  0.00     0.030 A 
HETATM   14  C   UNL     1     -42.233  58.557 -54.682  1.00  0.00     0.016 A 
ENDROOT
BRANCH   1  15
HETATM   15  N   UNL     1     -40.313  52.027 -50.845  1.00  0.00    -0.327 N 
HETATM   16  C   UNL     1     -39.687  50.976 -51.489  1.00  0.00     0.218 C 
HETATM   17  C   UNL     1     -39.486  49.783 -50.587  1.00  0.00     0.117 C 
HETATM   18  O   UNL     1     -39.336  50.934 -52.662  1.00  0.00    -0.274 OA
HETATM   19  H   UNL     1     -40.571  51.876 -49.878  1.00  0.00     0.169 HD
ENDBRANCH   1  15
BRANCH  12  20
HETATM   20  N   UNL     1     -42.791  57.798 -58.243  1.00  0.00    -0.327 N 
HETATM   21  C   UNL     1     -44.022  57.684 -58.860  1.00  0.00     0.218 C 
HETATM   22  C   UNL     1     -43.974  57.993 -60.338  1.00  0.00     0.117 C 
HETATM   23  O   UNL     1     -45.082  57.363 -58.335  1.00  0.00    -0.274 OA
HETATM   24  H   UNL     1     -42.012  58.068 -58.829  1.00  0.00     0.169 HD
ENDBRANCH  12  20
TORSDOF 2
ENDMDL
MODEL 9
REMARK VINA RESULT:      -6.9      3.356      4.452
REMARK  2 active torsions:
REMARK  status: ('A' for Active; 'I' for Inactive)
REMARK       I    between atoms: C_2  and  N_3 
REMARK    1  A    between atoms: N_3  and  C_4 
REMARK    2  A    between atoms: C_15  and  N_16 
REMARK       I    between atoms: N_16  and  C_17 
ROOT
HETATM    1  C   UNL     1     -41.250  53.329 -53.891  1.00  0.00     0.036 A 
HETATM    2  C   UNL     1     -41.510  54.327 -54.837  1.00  0.00     0.062 A 
HETATM    3  C   UNL     1     -41.662  55.663 -54.477  1.00  0.00     0.070 A 
HETATM    4  C   UNL     1     -41.548  56.008 -53.118  1.00  0.00    -0.006 A 
HETATM    5  C   UNL     1     -41.287  55.020 -52.158  1.00  0.00     0.016 A 
HETATM    6  C   UNL     1     -41.138  53.689 -52.546  1.00  0.00     0.030 A 
HETATM    7  N   UNL     1     -41.910  56.585 -55.426  1.00  0.00    -0.247 NA
HETATM    8  C   UNL     1     -42.055  57.877 -55.086  1.00  0.00     0.070 A 
HETATM    9  C   UNL     1     -41.958  58.312 -53.752  1.00  0.00    -0.006 A 
HETATM   10  C   UNL     1     -41.700  57.353 -52.767  1.00  0.00     0.027 A 
HETATM   11  C   UNL     1     -42.310  58.825 -56.074  1.00  0.00     0.062 A 
HETATM   12  C   UNL     1     -42.469  60.182 -55.778  1.00  0.00     0.036 A 
HETATM   13  C   UNL     1     -42.370  60.597 -54.447  1.00  0.00     0.030 A 
HETATM   14  C   UNL     1     -42.116  59.669 -53.438  1.00  0.00     0.016 A 
ENDROOT
BRANCH   1  15
HETATM   15  N   UNL     1     -41.082  51.962 -54.204  1.00  0.00    -0.327 N 
HETATM   16  C   UNL     1     -39.964  51.178 -53.986  1.00  0.00     0.218 C 
HETATM   17  C   UNL     1     -40.159  49.754 -54.447  1.00  0.00     0.117 C 
HETATM   18  O   UNL     1     -38.894  51.536 -53.509  1.00  0.00    -0.274 OA
HETATM   19  H   UNL     1     -41.872  51.511 -54.647  1.00  0.00     0.169 HD
ENDBRANCH   1  15
BRANCH  12  20
HETATM   20  N   UNL     1     -42.727  61.183 -56.739  1.00  0.00    -0.327 N 
HETATM   21  C   UNL     1     -41.863  61.670 -57.703  1.00  0.00     0.218 C 
HETATM   22  C   UNL     1     -42.482  62.747 -58.561  1.00  0.00     0.117 C 
HETATM   23  O   UNL     1     -40.704  61.321 -57.896  1.00  0.00    -0.274 OA
HETATM   24  H   UNL     1     -43.653  61.590 -56.713  1.00  0.00     0.169 HD
ENDBRANCH  12  20
TORSDOF 2
ENDMDL
MODEL 10
REMARK VINA RESULT:      -6.8      2.268      2.325
REMARK  2 active torsions:
REMARK  status: ('A' for Active; 'I' for Inactive)
REMARK       I    between atoms: C_2  and  N_3 
REMARK    1  A    between atoms: N_3  and  C_4 
REMARK    2  A    between atoms: C_15  and  N_16 
REMARK       I    between atoms: N_16  and  C_17 
ROOT
HETATM    1  C   UNL     1     -40.725  53.017 -53.437  1.00  0.00     0.036 A 
HETATM    2  C   UNL     1     -41.703  53.884 -52.938  1.00  0.00     0.062 A 
HETATM    3  C   UNL     1     -42.114  55.015 -53.639  1.00  0.00     0.070 A 
HETATM    4  C   UNL     1     -41.520  55.283 -54.885  1.00  0.00    -0.006 A 
HETATM    5  C   UNL     1     -40.538  54.424 -55.399  1.00  0.00     0.016 A 
HETATM    6  C   UNL     1     -40.146  53.297 -54.677  1.00  0.00     0.030 A 
HETATM    7  N   UNL     1     -43.060  55.816 -53.115  1.00  0.00    -0.247 NA
HETATM    8  C   UNL     1     -43.462  56.908 -53.787  1.00  0.00     0.070 A 
HETATM    9  C   UNL     1     -42.923  57.254 -55.038  1.00  0.00    -0.006 A 
HETATM   10  C   UNL     1     -41.940  56.421 -55.581  1.00  0.00     0.027 A 
HETATM   11  C   UNL     1     -44.443  57.732 -53.239  1.00  0.00     0.062 A 
HETATM   12  C   UNL     1     -44.901  58.879 -53.894  1.00  0.00     0.036 A 
HETATM   13  C   UNL     1     -44.353  59.209 -55.136  1.00  0.00     0.030 A 
HETATM   14  C   UNL     1     -43.370  58.402 -55.708  1.00  0.00     0.016 A 
ENDROOT
BRANCH   1  15
HETATM   15  N   UNL     1     -40.278  51.855 -52.771  1.00  0.00    -0.327 N 
HETATM   16  C   UNL     1     -39.890  51.737 -51.449  1.00  0.00     0.218 C 
HETATM   17  C   UNL     1     -39.478  50.331 -51.091  1.00  0.00     0.117 C 
HETATM   18  O   UNL     1     -39.831  52.633 -50.615  1.00  0.00    -0.274 OA
HETATM   19  H   UNL     1     -40.228  51.015 -53.333  1.00  0.00     0.169 HD
ENDBRANCH   1  15
BRANCH  12  20
HETATM   20  N   UNL     1     -45.891  59.747 -53.384  1.00  0.00    -0.327 N 
HETATM   21  C   UNL     1     -45.704  60.878 -52.611  1.00  0.00     0.218 C 
HETATM   22  C   UNL     1     -46.998  61.562 -52.242  1.00  0.00     0.117 C 
HETATM   23  O   UNL     1     -44.635  61.334 -52.221  1.00  0.00    -0.274 OA
HETATM   24  H   UNL     1     -46.847  59.506 -53.612  1.00  0.00     0.169 HD
ENDBRANCH  12  20
TORSDOF 2
ENDMDL
