MODEL 1
REMARK VINA RESULT:      -7.8      0.000      0.000
REMARK  6 active torsions:
REMARK  status: ('A' for Active; 'I' for Inactive)
REMARK    1  A    between atoms: C_4  and  C_5 
REMARK       I    between atoms: C_5  and  N_6 
REMARK    2  A    between atoms: N_6  and  C_7 
REMARK    3  A    between atoms: C_15  and  C_16 
REMARK       I    between atoms: C_16  and  N_17 
REMARK    4  A    between atoms: N_17  and  C_18 
REMARK    5  A    between atoms: C_18  and  C_19 
REMARK    6  A    between atoms: C_19  and  N_20 
ROOT
HETATM    1  C   UNL     1     -40.610  54.137 -51.902  1.00  0.00     0.093 A 
HETATM    2  S   UNL     1     -40.079  52.967 -50.794  1.00  0.00    -0.075 SA
HETATM    3  C   UNL     1     -39.937  51.788 -51.995  1.00  0.00    -0.008 A 
HETATM    4  C   UNL     1     -40.246  52.265 -53.258  1.00  0.00    -0.026 A 
HETATM    5  C   UNL     1     -40.213  51.328 -54.438  1.00  0.00     0.041 C 
HETATM    6  C   UNL     1     -40.255  49.851 -54.021  1.00  0.00     0.005 C 
HETATM    7  C   UNL     1     -39.254  49.562 -52.897  1.00  0.00     0.005 C 
HETATM    8  C   UNL     1     -39.582  50.375 -51.640  1.00  0.00     0.047 C 
HETATM    9  C   UNL     1     -40.588  53.682 -53.221  1.00  0.00     0.073 A 
ENDROOT
BRANCH   1  10
HETATM   10  N   UNL     1     -41.077  55.368 -51.450  1.00  0.00    -0.316 N 
HETATM   11  C   UNL     1     -42.381  55.833 -51.543  1.00  0.00     0.256 C 
HETATM   12  O   UNL     1     -43.370  55.141 -51.761  1.00  0.00    -0.267 OA
HETATM   13  H   UNL     1     -40.361  55.973 -51.073  1.00  0.00     0.169 HD
BRANCH  11  14
HETATM   14  C   UNL     1     -42.591  57.303 -51.332  1.00  0.00     0.032 A 
HETATM   15  C   UNL     1     -43.825  57.950 -51.486  1.00  0.00     0.017 A 
HETATM   16  C   UNL     1     -43.937  59.323 -51.235  1.00  0.00     0.001 A 
HETATM   17  C   UNL     1     -42.823  60.058 -50.832  1.00  0.00     0.000 A 
HETATM   18  C   UNL     1     -41.591  59.428 -50.685  1.00  0.00     0.001 A 
HETATM   19  C   UNL     1     -41.476  58.060 -50.935  1.00  0.00     0.017 A 
ENDBRANCH  11  14
ENDBRANCH   1  10
BRANCH   9  20
HETATM   20  C   UNL     1     -40.909  54.586 -54.331  1.00  0.00     0.255 C 
HETATM   21  N   UNL     1     -42.049  54.316 -55.058  1.00  0.00    -0.355 N 
HETATM   22  H   UNL     1     -42.614  53.536 -54.747  1.00  0.00     0.162 HD
HETATM   23  O   UNL     1     -40.150  55.481 -54.713  1.00  0.00    -0.268 OA
BRANCH  21  24
HETATM   24  C   UNL     1     -42.711  55.283 -55.929  1.00  0.00     0.150 C 
BRANCH  24  25
HETATM   25  C   UNL     1     -43.520  56.407 -55.256  1.00  0.00     0.249 C 
BRANCH  25  26
HETATM   26  N   UNL     1     -44.649  55.860 -54.466  1.00  0.00    -0.078 N 
HETATM   27  H   UNL     1     -45.334  55.470 -55.138  1.00  0.00     0.274 HD
HETATM   28  H   UNL     1     -44.371  55.099 -53.836  1.00  0.00     0.274 HD
HETATM   29  H   UNL     1     -45.139  56.582 -53.925  1.00  0.00     0.274 HD
ENDBRANCH  25  26
ENDBRANCH  24  25
ENDBRANCH  21  24
ENDBRANCH   9  20
TORSDOF 6
ENDMDL
MODEL 2
REMARK VINA RESULT:      -7.2      1.816      6.694
REMARK  6 active torsions:
REMARK  status: ('A' for Active; 'I' for Inactive)
REMARK    1  A    between atoms: C_4  and  C_5 
REMARK       I    between atoms: C_5  and  N_6 
REMARK    2  A    between atoms: N_6  and  C_7 
REMARK    3  A    between atoms: C_15  and  C_16 
REMARK       I    between atoms: C_16  and  N_17 
REMARK    4  A    between atoms: N_17  and  C_18 
REMARK    5  A    between atoms: C_18  and  C_19 
REMARK    6  A    between atoms: C_19  and  N_20 
ROOT
HETATM    1  C   UNL     1     -41.799  56.884 -52.382  1.00  0.00     0.093 A 
HETATM    2  S   UNL     1     -41.183  57.562 -50.953  1.00  0.00    -0.075 SA
HETATM    3  C   UNL     1     -42.022  59.008 -51.191  1.00  0.00    -0.008 A 
HETATM    4  C   UNL     1     -42.814  58.992 -52.326  1.00  0.00    -0.026 A 
HETATM    5  C   UNL     1     -43.595  60.223 -52.709  1.00  0.00     0.041 C 
HETATM    6  C   UNL     1     -43.076  61.491 -52.017  1.00  0.00     0.005 C 
HETATM    7  C   UNL     1     -42.865  61.259 -50.516  1.00  0.00     0.005 C 
HETATM    8  C   UNL     1     -41.817  60.170 -50.264  1.00  0.00     0.047 C 
HETATM    9  C   UNL     1     -42.736  57.706 -53.009  1.00  0.00     0.073 A 
ENDROOT
BRANCH   1  10
HETATM   10  N   UNL     1     -41.308  55.668 -52.849  1.00  0.00    -0.316 N 
HETATM   11  C   UNL     1     -41.950  54.441 -52.767  1.00  0.00     0.256 C 
HETATM   12  O   UNL     1     -43.145  54.275 -52.548  1.00  0.00    -0.267 OA
HETATM   13  H   UNL     1     -40.373  55.715 -53.228  1.00  0.00     0.169 HD
BRANCH  11  14
HETATM   14  C   UNL     1     -41.107  53.221 -52.994  1.00  0.00     0.032 A 
HETATM   15  C   UNL     1     -41.082  52.496 -54.194  1.00  0.00     0.017 A 
HETATM   16  C   UNL     1     -40.238  51.387 -54.329  1.00  0.00     0.001 A 
HETATM   17  C   UNL     1     -39.418  50.993 -53.273  1.00  0.00     0.000 A 
HETATM   18  C   UNL     1     -39.441  51.700 -52.075  1.00  0.00     0.001 A 
HETATM   19  C   UNL     1     -40.281  52.805 -51.936  1.00  0.00     0.017 A 
ENDBRANCH  11  14
ENDBRANCH   1  10
BRANCH   9  20
HETATM   20  C   UNL     1     -43.460  57.245 -54.199  1.00  0.00     0.255 C 
HETATM   21  N   UNL     1     -42.832  57.388 -55.418  1.00  0.00    -0.355 N 
HETATM   22  H   UNL     1     -41.892  57.762 -55.405  1.00  0.00     0.162 HD
HETATM   23  O   UNL     1     -44.633  56.861 -54.169  1.00  0.00    -0.268 OA
BRANCH  21  24
HETATM   24  C   UNL     1     -43.222  56.670 -56.628  1.00  0.00     0.150 C 
BRANCH  24  25
HETATM   25  C   UNL     1     -42.817  55.189 -56.736  1.00  0.00     0.249 C 
BRANCH  25  26
HETATM   26  N   UNL     1     -43.652  54.337 -55.855  1.00  0.00    -0.078 N 
HETATM   27  H   UNL     1     -43.035  53.971 -55.107  1.00  0.00     0.274 HD
HETATM   28  H   UNL     1     -44.414  54.851 -55.398  1.00  0.00     0.274 HD
HETATM   29  H   UNL     1     -44.041  53.524 -56.346  1.00  0.00     0.274 HD
ENDBRANCH  25  26
ENDBRANCH  24  25
ENDBRANCH  21  24
ENDBRANCH   9  20
TORSDOF 6
ENDMDL
MODEL 3
REMARK VINA RESULT:      -7.2      2.249      7.310
REMARK  6 active torsions:
REMARK  status: ('A' for Active; 'I' for Inactive)
REMARK    1  A    between atoms: C_4  and  C_5 
REMARK       I    between atoms: C_5  and  N_6 
REMARK    2  A    between atoms: N_6  and  C_7 
REMARK    3  A    between atoms: C_15  and  C_16 
REMARK       I    between atoms: C_16  and  N_17 
REMARK    4  A    between atoms: N_17  and  C_18 
REMARK    5  A    between atoms: C_18  and  C_19 
REMARK    6  A    between atoms: C_19  and  N_20 
ROOT
HETATM    1  C   UNL     1     -42.332  55.388 -53.265  1.00  0.00     0.093 A 
HETATM    2  S   UNL     1     -43.229  55.526 -54.699  1.00  0.00    -0.075 SA
HETATM    3  C   UNL     1     -43.897  57.003 -54.225  1.00  0.00    -0.008 A 
HETATM    4  C   UNL     1     -43.426  57.439 -52.999  1.00  0.00    -0.026 A 
HETATM    5  C   UNL     1     -43.956  58.721 -52.408  1.00  0.00     0.041 C 
HETATM    6  C   UNL     1     -45.278  59.165 -53.051  1.00  0.00     0.005 C 
HETATM    7  C   UNL     1     -45.201  59.102 -54.580  1.00  0.00     0.005 C 
HETATM    8  C   UNL     1     -44.945  57.671 -55.066  1.00  0.00     0.047 C 
HETATM    9  C   UNL     1     -42.443  56.513 -52.447  1.00  0.00     0.073 A 
ENDROOT
BRANCH   1  10
HETATM   10  N   UNL     1     -41.650  54.209 -52.977  1.00  0.00    -0.316 N 
HETATM   11  C   UNL     1     -40.635  53.645 -53.735  1.00  0.00     0.256 C 
HETATM   12  O   UNL     1     -39.984  54.224 -54.599  1.00  0.00    -0.267 OA
HETATM   13  H   UNL     1     -41.989  53.721 -52.160  1.00  0.00     0.169 HD
BRANCH  11  14
HETATM   14  C   UNL     1     -40.294  52.212 -53.449  1.00  0.00     0.032 A 
HETATM   15  C   UNL     1     -40.333  51.190 -54.408  1.00  0.00     0.017 A 
HETATM   16  C   UNL     1     -39.966  49.884 -54.060  1.00  0.00     0.001 A 
HETATM   17  C   UNL     1     -39.562  49.589 -52.758  1.00  0.00     0.000 A 
HETATM   18  C   UNL     1     -39.528  50.594 -51.797  1.00  0.00     0.001 A 
HETATM   19  C   UNL     1     -39.894  51.896 -52.140  1.00  0.00     0.017 A 
ENDBRANCH  11  14
ENDBRANCH   1  10
BRANCH   9  20
HETATM   20  C   UNL     1     -41.654  56.626 -51.215  1.00  0.00     0.255 C 
HETATM   21  N   UNL     1     -41.986  55.788 -50.172  1.00  0.00    -0.355 N 
HETATM   22  H   UNL     1     -42.725  55.118 -50.342  1.00  0.00     0.162 HD
HETATM   23  O   UNL     1     -40.810  57.507 -51.033  1.00  0.00    -0.268 OA
BRANCH  21  24
HETATM   24  C   UNL     1     -41.107  55.501 -49.042  1.00  0.00     0.150 C 
BRANCH  24  25
HETATM   25  C   UNL     1     -40.752  54.027 -48.776  1.00  0.00     0.249 C 
BRANCH  25  26
HETATM   26  N   UNL     1     -40.224  53.839 -47.402  1.00  0.00    -0.078 N 
HETATM   27  H   UNL     1     -40.085  52.823 -47.263  1.00  0.00     0.274 HD
HETATM   28  H   UNL     1     -39.318  54.297 -47.252  1.00  0.00     0.274 HD
HETATM   29  H   UNL     1     -40.884  54.153 -46.681  1.00  0.00     0.274 HD
ENDBRANCH  25  26
ENDBRANCH  24  25
ENDBRANCH  21  24
ENDBRANCH   9  20
TORSDOF 6
ENDMDL
MODEL 4
REMARK VINA RESULT:      -7.1      2.418      6.887
REMARK  6 active torsions:
REMARK  status: ('A' for Active; 'I' for Inactive)
REMARK    1  A    between atoms: C_4  and  C_5 
REMARK       I    between atoms: C_5  and  N_6 
REMARK    2  A    between atoms: N_6  and  C_7 
REMARK    3  A    between atoms: C_15  and  C_16 
REMARK       I    between atoms: C_16  and  N_17 
REMARK    4  A    between atoms: N_17  and  C_18 
REMARK    5  A    between atoms: C_18  and  C_19 
REMARK    6  A    between atoms: C_19  and  N_20 
ROOT
HETATM    1  C   UNL     1     -43.364  56.753 -52.806  1.00  0.00     0.093 A 
HETATM    2  S   UNL     1     -44.156  56.977 -51.322  1.00  0.00    -0.075 SA
HETATM    3  C   UNL     1     -44.919  58.385 -51.858  1.00  0.00    -0.008 A 
HETATM    4  C   UNL     1     -44.626  58.688 -53.177  1.00  0.00    -0.026 A 
HETATM    5  C   UNL     1     -45.191  59.939 -53.799  1.00  0.00     0.041 C 
HETATM    6  C   UNL     1     -45.681  60.951 -52.751  1.00  0.00     0.005 C 
HETATM    7  C   UNL     1     -46.547  60.270 -51.685  1.00  0.00     0.005 C 
HETATM    8  C   UNL     1     -45.752  59.207 -50.920  1.00  0.00     0.047 C 
HETATM    9  C   UNL     1     -43.749  57.685 -53.770  1.00  0.00     0.073 A 
ENDROOT
BRANCH   1  10
HETATM   10  N   UNL     1     -42.389  55.768 -52.938  1.00  0.00    -0.316 N 
HETATM   11  C   UNL     1     -42.533  54.559 -53.602  1.00  0.00     0.256 C 
HETATM   12  O   UNL     1     -43.413  54.290 -54.413  1.00  0.00    -0.267 OA
HETATM   13  H   UNL     1     -41.529  55.965 -52.446  1.00  0.00     0.169 HD
BRANCH  11  14
HETATM   14  C   UNL     1     -41.503  53.505 -53.317  1.00  0.00     0.032 A 
HETATM   15  C   UNL     1     -41.054  52.571 -54.260  1.00  0.00     0.017 A 
HETATM   16  C   UNL     1     -40.064  51.643 -53.916  1.00  0.00     0.001 A 
HETATM   17  C   UNL     1     -39.519  51.638 -52.633  1.00  0.00     0.000 A 
HETATM   18  C   UNL     1     -39.963  52.555 -51.686  1.00  0.00     0.001 A 
HETATM   19  C   UNL     1     -40.951  53.481 -52.025  1.00  0.00     0.017 A 
ENDBRANCH  11  14
ENDBRANCH   1  10
BRANCH   9  20
HETATM   20  C   UNL     1     -43.254  57.587 -55.148  1.00  0.00     0.255 C 
HETATM   21  N   UNL     1     -44.075  56.976 -56.073  1.00  0.00    -0.355 N 
HETATM   22  H   UNL     1     -44.984  56.675 -55.747  1.00  0.00     0.162 HD
HETATM   23  O   UNL     1     -42.109  57.906 -55.479  1.00  0.00    -0.268 OA
BRANCH  21  24
HETATM   24  C   UNL     1     -43.923  57.114 -57.518  1.00  0.00     0.150 C 
BRANCH  24  25
HETATM   25  C   UNL     1     -43.216  55.972 -58.270  1.00  0.00     0.249 C 
BRANCH  25  26
HETATM   26  N   UNL     1     -44.193  54.998 -58.814  1.00  0.00    -0.078 N 
HETATM   27  H   UNL     1     -43.698  54.094 -58.921  1.00  0.00     0.274 HD
HETATM   28  H   UNL     1     -44.993  54.837 -58.191  1.00  0.00     0.274 HD
HETATM   29  H   UNL     1     -44.538  55.263 -59.744  1.00  0.00     0.274 HD
ENDBRANCH  25  26
ENDBRANCH  24  25
ENDBRANCH  21  24
ENDBRANCH   9  20
TORSDOF 6
ENDMDL
MODEL 5
REMARK VINA RESULT:      -7.0      2.420      7.091
REMARK  6 active torsions:
REMARK  status: ('A' for Active; 'I' for Inactive)
REMARK    1  A    between atoms: C_4  and  C_5 
REMARK       I    between atoms: C_5  and  N_6 
REMARK    2  A    between atoms: N_6  and  C_7 
REMARK    3  A    between atoms: C_15  and  C_16 
REMARK       I    between atoms: C_16  and  N_17 
REMARK    4  A    between atoms: N_17  and  C_18 
REMARK    5  A    between atoms: C_18  and  C_19 
REMARK    6  A    between atoms: C_19  and  N_20 
ROOT
HETATM    1  C   UNL     1     -42.693  55.063 -54.732  1.00  0.00     0.093 A 
HETATM    2  S   UNL     1     -42.608  55.265 -56.415  1.00  0.00    -0.075 SA
HETATM    3  C   UNL     1     -43.585  56.642 -56.373  1.00  0.00    -0.008 A 
HETATM    4  C   UNL     1     -43.957  57.000 -55.088  1.00  0.00    -0.026 A 
HETATM    5  C   UNL     1     -44.867  58.182 -54.877  1.00  0.00     0.041 C 
HETATM    6  C   UNL     1     -45.617  58.586 -56.155  1.00  0.00     0.005 C 
HETATM    7  C   UNL     1     -44.666  58.667 -57.355  1.00  0.00     0.005 C 
HETATM    8  C   UNL     1     -44.022  57.307 -57.645  1.00  0.00     0.047 C 
HETATM    9  C   UNL     1     -43.377  56.100 -54.097  1.00  0.00     0.073 A 
ENDROOT
BRANCH   1  10
HETATM   10  N   UNL     1     -42.177  53.915 -54.138  1.00  0.00    -0.316 N 
HETATM   11  C   UNL     1     -40.955  53.807 -53.490  1.00  0.00     0.256 C 
HETATM   12  O   UNL     1     -40.278  54.746 -53.083  1.00  0.00    -0.267 OA
HETATM   13  H   UNL     1     -42.750  53.091 -54.255  1.00  0.00     0.169 HD
BRANCH  11  14
HETATM   14  C   UNL     1     -40.438  52.420 -53.248  1.00  0.00     0.032 A 
HETATM   15  C   UNL     1     -39.930  51.975 -52.020  1.00  0.00     0.017 A 
HETATM   16  C   UNL     1     -39.499  50.650 -51.874  1.00  0.00     0.001 A 
HETATM   17  C   UNL     1     -39.570  49.765 -52.948  1.00  0.00     0.000 A 
HETATM   18  C   UNL     1     -40.065  50.198 -54.174  1.00  0.00     0.001 A 
HETATM   19  C   UNL     1     -40.494  51.517 -54.323  1.00  0.00     0.017 A 
ENDBRANCH  11  14
ENDBRANCH   1  10
BRANCH   9  20
HETATM   20  C   UNL     1     -43.460  56.158 -52.634  1.00  0.00     0.255 C 
HETATM   21  N   UNL     1     -43.900  55.027 -51.979  1.00  0.00    -0.355 N 
HETATM   22  H   UNL     1     -44.094  54.215 -52.551  1.00  0.00     0.162 HD
HETATM   23  O   UNL     1     -43.280  57.194 -51.989  1.00  0.00    -0.268 OA
BRANCH  21  24
HETATM   24  C   UNL     1     -43.699  54.776 -50.555  1.00  0.00     0.150 C 
BRANCH  24  25
HETATM   25  C   UNL     1     -42.249  54.620 -50.060  1.00  0.00     0.249 C 
BRANCH  25  26
HETATM   26  N   UNL     1     -41.675  55.926 -49.655  1.00  0.00    -0.078 N 
HETATM   27  H   UNL     1     -41.029  55.746 -48.865  1.00  0.00     0.274 HD
HETATM   28  H   UNL     1     -41.130  56.377 -50.399  1.00  0.00     0.274 HD
HETATM   29  H   UNL     1     -42.388  56.582 -49.315  1.00  0.00     0.274 HD
ENDBRANCH  25  26
ENDBRANCH  24  25
ENDBRANCH  21  24
ENDBRANCH   9  20
TORSDOF 6
ENDMDL
MODEL 6
REMARK VINA RESULT:      -6.9      2.606      5.191
REMARK  6 active torsions:
REMARK  status: ('A' for Active; 'I' for Inactive)
REMARK    1  A    between atoms: C_4  and  C_5 
REMARK       I    between atoms: C_5  and  N_6 
REMARK    2  A    between atoms: N_6  and  C_7 
REMARK    3  A    between atoms: C_15  and  C_16 
REMARK       I    between atoms: C_16  and  N_17 
REMARK    4  A    between atoms: N_17  and  C_18 
REMARK    5  A    between atoms: C_18  and  C_19 
REMARK    6  A    between atoms: C_19  and  N_20 
ROOT
HETATM    1  C   UNL     1     -41.233  55.106 -54.503  1.00  0.00     0.093 A 
HETATM    2  S   UNL     1     -40.619  53.532 -54.665  1.00  0.00    -0.075 SA
HETATM    3  C   UNL     1     -40.481  53.335 -52.994  1.00  0.00    -0.008 A 
HETATM    4  C   UNL     1     -40.933  54.433 -52.282  1.00  0.00    -0.026 A 
HETATM    5  C   UNL     1     -40.838  54.438 -50.778  1.00  0.00     0.041 C 
HETATM    6  C   UNL     1     -39.850  53.389 -50.245  1.00  0.00     0.005 C 
HETATM    7  C   UNL     1     -40.077  52.026 -50.907  1.00  0.00     0.005 C 
HETATM    8  C   UNL     1     -39.852  52.099 -52.421  1.00  0.00     0.047 C 
HETATM    9  C   UNL     1     -41.442  55.470 -53.172  1.00  0.00     0.073 A 
ENDROOT
BRANCH   1  10
HETATM   10  N   UNL     1     -41.403  55.911 -55.626  1.00  0.00    -0.316 N 
HETATM   11  C   UNL     1     -42.613  56.247 -56.215  1.00  0.00     0.256 C 
HETATM   12  O   UNL     1     -43.716  56.142 -55.688  1.00  0.00    -0.267 OA
HETATM   13  H   UNL     1     -40.541  56.215 -56.055  1.00  0.00     0.169 HD
BRANCH  11  14
HETATM   14  C   UNL     1     -42.555  56.810 -57.604  1.00  0.00     0.032 A 
HETATM   15  C   UNL     1     -42.144  58.116 -57.905  1.00  0.00     0.017 A 
HETATM   16  C   UNL     1     -42.089  58.548 -59.236  1.00  0.00     0.001 A 
HETATM   17  C   UNL     1     -42.443  57.685 -60.272  1.00  0.00     0.000 A 
HETATM   18  C   UNL     1     -42.860  56.389 -59.984  1.00  0.00     0.001 A 
HETATM   19  C   UNL     1     -42.917  55.956 -58.659  1.00  0.00     0.017 A 
ENDBRANCH  11  14
ENDBRANCH   1  10
BRANCH   9  20
HETATM   20  C   UNL     1     -42.069  56.753 -52.835  1.00  0.00     0.255 C 
HETATM   21  N   UNL     1     -43.430  56.753 -52.613  1.00  0.00    -0.355 N 
HETATM   22  H   UNL     1     -43.899  55.857 -52.654  1.00  0.00     0.162 HD
HETATM   23  O   UNL     1     -41.465  57.828 -52.868  1.00  0.00    -0.268 OA
BRANCH  21  24
HETATM   24  C   UNL     1     -44.146  57.822 -51.923  1.00  0.00     0.150 C 
BRANCH  24  25
HETATM   25  C   UNL     1     -44.858  58.875 -52.791  1.00  0.00     0.249 C 
BRANCH  25  26
HETATM   26  N   UNL     1     -44.951  58.434 -54.204  1.00  0.00    -0.078 N 
HETATM   27  H   UNL     1     -44.018  58.077 -54.477  1.00  0.00     0.274 HD
HETATM   28  H   UNL     1     -45.625  57.673 -54.347  1.00  0.00     0.274 HD
HETATM   29  H   UNL     1     -45.175  59.206 -54.843  1.00  0.00     0.274 HD
ENDBRANCH  25  26
ENDBRANCH  24  25
ENDBRANCH  21  24
ENDBRANCH   9  20
TORSDOF 6
ENDMDL
MODEL 7
REMARK VINA RESULT:      -6.9     15.443     17.710
REMARK  6 active torsions:
REMARK  status: ('A' for Active; 'I' for Inactive)
REMARK    1  A    between atoms: C_4  and  C_5 
REMARK       I    between atoms: C_5  and  N_6 
REMARK    2  A    between atoms: N_6  and  C_7 
REMARK    3  A    between atoms: C_15  and  C_16 
REMARK       I    between atoms: C_16  and  N_17 
REMARK    4  A    between atoms: N_17  and  C_18 
REMARK    5  A    between atoms: C_18  and  C_19 
REMARK    6  A    between atoms: C_19  and  N_20 
ROOT
HETATM    1  C   UNL     1     -34.222  40.443 -54.645  1.00  0.00     0.093 A 
HETATM    2  S   UNL     1     -35.226  40.936 -53.369  1.00  0.00    -0.075 SA
HETATM    3  C   UNL     1     -34.086  40.496 -52.204  1.00  0.00    -0.008 A 
HETATM    4  C   UNL     1     -32.913  40.009 -52.755  1.00  0.00    -0.026 A 
HETATM    5  C   UNL     1     -31.807  39.529 -51.850  1.00  0.00     0.041 C 
HETATM    6  C   UNL     1     -32.295  39.241 -50.423  1.00  0.00     0.005 C 
HETATM    7  C   UNL     1     -33.158  40.389 -49.889  1.00  0.00     0.005 C 
HETATM    8  C   UNL     1     -34.416  40.581 -50.743  1.00  0.00     0.047 C 
HETATM    9  C   UNL     1     -32.961  40.033 -54.212  1.00  0.00     0.073 A 
ENDROOT
BRANCH   1  10
HETATM   10  N   UNL     1     -34.712  40.406 -55.948  1.00  0.00    -0.316 N 
HETATM   11  C   UNL     1     -35.155  41.493 -56.686  1.00  0.00     0.256 C 
HETATM   12  O   UNL     1     -34.920  42.671 -56.433  1.00  0.00    -0.267 OA
HETATM   13  H   UNL     1     -34.784  39.478 -56.339  1.00  0.00     0.169 HD
BRANCH  11  14
HETATM   14  C   UNL     1     -35.969  41.193 -57.910  1.00  0.00     0.032 A 
HETATM   15  C   UNL     1     -36.749  42.141 -58.587  1.00  0.00     0.017 A 
HETATM   16  C   UNL     1     -37.451  41.779 -59.742  1.00  0.00     0.001 A 
HETATM   17  C   UNL     1     -37.384  40.474 -60.228  1.00  0.00     0.000 A 
HETATM   18  C   UNL     1     -36.621  39.523 -59.559  1.00  0.00     0.001 A 
HETATM   19  C   UNL     1     -35.920  39.879 -58.406  1.00  0.00     0.017 A 
ENDBRANCH  11  14
ENDBRANCH   1  10
BRANCH   9  20
HETATM   20  C   UNL     1     -31.916  39.674 -55.178  1.00  0.00     0.255 C 
HETATM   21  N   UNL     1     -31.233  38.496 -54.963  1.00  0.00    -0.355 N 
HETATM   22  H   UNL     1     -31.529  37.934 -54.175  1.00  0.00     0.162 HD
HETATM   23  O   UNL     1     -31.546  40.427 -56.082  1.00  0.00    -0.268 OA
BRANCH  21  24
HETATM   24  C   UNL     1     -30.447  37.808 -55.983  1.00  0.00     0.150 C 
BRANCH  24  25
HETATM   25  C   UNL     1     -29.044  38.361 -56.291  1.00  0.00     0.249 C 
BRANCH  25  26
HETATM   26  N   UNL     1     -29.077  39.313 -57.428  1.00  0.00    -0.078 N 
HETATM   27  H   UNL     1     -28.166  39.804 -57.445  1.00  0.00     0.274 HD
HETATM   28  H   UNL     1     -29.194  38.853 -58.338  1.00  0.00     0.274 HD
HETATM   29  H   UNL     1     -29.802  40.032 -57.318  1.00  0.00     0.274 HD
ENDBRANCH  25  26
ENDBRANCH  24  25
ENDBRANCH  21  24
ENDBRANCH   9  20
TORSDOF 6
ENDMDL
MODEL 8
REMARK VINA RESULT:      -6.9      2.693      5.570
REMARK  6 active torsions:
REMARK  status: ('A' for Active; 'I' for Inactive)
REMARK    1  A    between atoms: C_4  and  C_5 
REMARK       I    between atoms: C_5  and  N_6 
REMARK    2  A    between atoms: N_6  and  C_7 
REMARK    3  A    between atoms: C_15  and  C_16 
REMARK       I    between atoms: C_16  and  N_17 
REMARK    4  A    between atoms: N_17  and  C_18 
REMARK    5  A    between atoms: C_18  and  C_19 
REMARK    6  A    between atoms: C_19  and  N_20 
ROOT
HETATM    1  C   UNL     1     -41.316  55.352 -54.327  1.00  0.00     0.093 A 
HETATM    2  S   UNL     1     -40.837  53.728 -54.448  1.00  0.00    -0.075 SA
HETATM    3  C   UNL     1     -40.621  53.591 -52.779  1.00  0.00    -0.008 A 
HETATM    4  C   UNL     1     -40.946  54.751 -52.096  1.00  0.00    -0.026 A 
HETATM    5  C   UNL     1     -40.766  54.812 -50.601  1.00  0.00     0.041 C 
HETATM    6  C   UNL     1     -39.834  53.712 -50.072  1.00  0.00     0.005 C 
HETATM    7  C   UNL     1     -40.203  52.344 -50.657  1.00  0.00     0.005 C 
HETATM    8  C   UNL     1     -40.059  52.335 -52.183  1.00  0.00     0.047 C 
HETATM    9  C   UNL     1     -41.421  55.787 -53.006  1.00  0.00     0.073 A 
ENDROOT
BRANCH   1  10
HETATM   10  N   UNL     1     -41.487  56.119 -55.476  1.00  0.00    -0.316 N 
HETATM   11  C   UNL     1     -42.680  56.324 -56.153  1.00  0.00     0.256 C 
HETATM   12  O   UNL     1     -43.801  56.117 -55.701  1.00  0.00    -0.267 OA
HETATM   13  H   UNL     1     -40.631  56.502 -55.852  1.00  0.00     0.169 HD
BRANCH  11  14
HETATM   14  C   UNL     1     -42.580  56.871 -57.547  1.00  0.00     0.032 A 
HETATM   15  C   UNL     1     -42.137  58.165 -57.853  1.00  0.00     0.017 A 
HETATM   16  C   UNL     1     -42.045  58.580 -59.187  1.00  0.00     0.001 A 
HETATM   17  C   UNL     1     -42.394  57.713 -60.220  1.00  0.00     0.000 A 
HETATM   18  C   UNL     1     -42.843  56.429 -59.928  1.00  0.00     0.001 A 
HETATM   19  C   UNL     1     -42.938  56.012 -58.600  1.00  0.00     0.017 A 
ENDBRANCH  11  14
ENDBRANCH   1  10
BRANCH   9  20
HETATM   20  C   UNL     1     -41.927  57.129 -52.697  1.00  0.00     0.255 C 
HETATM   21  N   UNL     1     -41.052  58.015 -52.105  1.00  0.00    -0.355 N 
HETATM   22  H   UNL     1     -40.103  57.693 -51.965  1.00  0.00     0.162 HD
HETATM   23  O   UNL     1     -43.112  57.449 -52.823  1.00  0.00    -0.268 OA
BRANCH  21  24
HETATM   24  C   UNL     1     -41.252  59.461 -52.068  1.00  0.00     0.150 C 
BRANCH  24  25
HETATM   25  C   UNL     1     -41.770  60.072 -50.753  1.00  0.00     0.249 C 
BRANCH  25  26
HETATM   26  N   UNL     1     -41.215  59.364 -49.574  1.00  0.00    -0.078 N 
HETATM   27  H   UNL     1     -40.199  59.247 -49.737  1.00  0.00     0.274 HD
HETATM   28  H   UNL     1     -41.327  59.887 -48.699  1.00  0.00     0.274 HD
HETATM   29  H   UNL     1     -41.609  58.423 -49.458  1.00  0.00     0.274 HD
ENDBRANCH  25  26
ENDBRANCH  24  25
ENDBRANCH  21  24
ENDBRANCH   9  20
TORSDOF 6
ENDMDL
MODEL 9
REMARK VINA RESULT:      -6.7      1.712      2.259
REMARK  6 active torsions:
REMARK  status: ('A' for Active; 'I' for Inactive)
REMARK    1  A    between atoms: C_4  and  C_5 
REMARK       I    between atoms: C_5  and  N_6 
REMARK    2  A    between atoms: N_6  and  C_7 
REMARK    3  A    between atoms: C_15  and  C_16 
REMARK       I    between atoms: C_16  and  N_17 
REMARK    4  A    between atoms: N_17  and  C_18 
REMARK    5  A    between atoms: C_18  and  C_19 
REMARK    6  A    between atoms: C_19  and  N_20 
ROOT
HETATM    1  C   UNL     1     -42.044  55.064 -52.264  1.00  0.00     0.093 A 
HETATM    2  S   UNL     1     -40.948  54.436 -51.130  1.00  0.00    -0.075 SA
HETATM    3  C   UNL     1     -40.515  53.159 -52.147  1.00  0.00    -0.008 A 
HETATM    4  C   UNL     1     -41.154  53.206 -53.374  1.00  0.00    -0.026 A 
HETATM    5  C   UNL     1     -40.913  52.114 -54.384  1.00  0.00     0.041 C 
HETATM    6  C   UNL     1     -40.310  50.849 -53.753  1.00  0.00     0.005 C 
HETATM    7  C   UNL     1     -39.135  51.194 -52.832  1.00  0.00     0.005 C 
HETATM    8  C   UNL     1     -39.585  52.084 -51.668  1.00  0.00     0.047 C 
HETATM    9  C   UNL     1     -42.021  54.375 -53.476  1.00  0.00     0.073 A 
ENDROOT
BRANCH   1  10
HETATM   10  N   UNL     1     -42.894  56.108 -51.912  1.00  0.00    -0.316 N 
HETATM   11  C   UNL     1     -42.768  57.433 -52.302  1.00  0.00     0.256 C 
HETATM   12  O   UNL     1     -42.082  57.840 -53.234  1.00  0.00    -0.267 OA
HETATM   13  H   UNL     1     -43.629  55.848 -51.269  1.00  0.00     0.169 HD
BRANCH  11  14
HETATM   14  C   UNL     1     -43.563  58.444 -51.529  1.00  0.00     0.032 A 
HETATM   15  C   UNL     1     -43.065  59.689 -51.120  1.00  0.00     0.017 A 
HETATM   16  C   UNL     1     -43.889  60.585 -50.430  1.00  0.00     0.001 A 
HETATM   17  C   UNL     1     -45.210  60.247 -50.141  1.00  0.00     0.000 A 
HETATM   18  C   UNL     1     -45.713  59.012 -50.534  1.00  0.00     0.001 A 
HETATM   19  C   UNL     1     -44.894  58.115 -51.221  1.00  0.00     0.017 A 
ENDBRANCH  11  14
ENDBRANCH   1  10
BRANCH   9  20
HETATM   20  C   UNL     1     -42.820  54.837 -54.617  1.00  0.00     0.255 C 
HETATM   21  N   UNL     1     -42.169  55.562 -55.593  1.00  0.00    -0.355 N 
HETATM   22  H   UNL     1     -41.172  55.689 -55.478  1.00  0.00     0.162 HD
HETATM   23  O   UNL     1     -44.047  54.717 -54.675  1.00  0.00    -0.268 OA
BRANCH  21  24
HETATM   24  C   UNL     1     -42.694  55.777 -56.938  1.00  0.00     0.150 C 
BRANCH  24  25
HETATM   25  C   UNL     1     -42.992  57.227 -57.360  1.00  0.00     0.249 C 
BRANCH  25  26
HETATM   26  N   UNL     1     -42.751  58.174 -56.244  1.00  0.00    -0.078 N 
HETATM   27  H   UNL     1     -41.725  58.245 -56.118  1.00  0.00     0.274 HD
HETATM   28  H   UNL     1     -43.102  59.119 -56.433  1.00  0.00     0.274 HD
HETATM   29  H   UNL     1     -43.140  57.841 -55.354  1.00  0.00     0.274 HD
ENDBRANCH  25  26
ENDBRANCH  24  25
ENDBRANCH  21  24
ENDBRANCH   9  20
TORSDOF 6
ENDMDL
MODEL 10
REMARK VINA RESULT:      -6.6      3.132      7.302
REMARK  6 active torsions:
REMARK  status: ('A' for Active; 'I' for Inactive)
REMARK    1  A    between atoms: C_4  and  C_5 
REMARK       I    between atoms: C_5  and  N_6 
REMARK    2  A    between atoms: N_6  and  C_7 
REMARK    3  A    between atoms: C_15  and  C_16 
REMARK       I    between atoms: C_16  and  N_17 
REMARK    4  A    between atoms: N_17  and  C_18 
REMARK    5  A    between atoms: C_18  and  C_19 
REMARK    6  A    between atoms: C_19  and  N_20 
ROOT
HETATM    1  C   UNL     1     -42.520  56.243 -56.451  1.00  0.00     0.093 A 
HETATM    2  S   UNL     1     -42.980  56.050 -58.073  1.00  0.00    -0.075 SA
HETATM    3  C   UNL     1     -43.926  57.448 -58.048  1.00  0.00    -0.008 A 
HETATM    4  C   UNL     1     -43.879  58.109 -56.832  1.00  0.00    -0.026 A 
HETATM    5  C   UNL     1     -44.704  59.353 -56.626  1.00  0.00     0.041 C 
HETATM    6  C   UNL     1     -45.831  59.493 -57.661  1.00  0.00     0.005 C 
HETATM    7  C   UNL     1     -45.313  59.248 -59.083  1.00  0.00     0.005 C 
HETATM    8  C   UNL     1     -44.761  57.826 -59.235  1.00  0.00     0.047 C 
HETATM    9  C   UNL     1     -42.993  57.431 -55.893  1.00  0.00     0.073 A 
ENDROOT
BRANCH   1  10
HETATM   10  N   UNL     1     -41.814  55.236 -55.798  1.00  0.00    -0.316 N 
HETATM   11  C   UNL     1     -42.364  54.155 -55.125  1.00  0.00     0.256 C 
HETATM   12  O   UNL     1     -43.517  53.755 -55.240  1.00  0.00    -0.267 OA
HETATM   13  H   UNL     1     -40.812  55.367 -55.792  1.00  0.00     0.169 HD
BRANCH  11  14
HETATM   14  C   UNL     1     -41.454  53.403 -54.198  1.00  0.00     0.032 A 
HETATM   15  C   UNL     1     -40.575  52.392 -54.610  1.00  0.00     0.017 A 
HETATM   16  C   UNL     1     -39.737  51.765 -53.680  1.00  0.00     0.001 A 
HETATM   17  C   UNL     1     -39.772  52.139 -52.337  1.00  0.00     0.000 A 
HETATM   18  C   UNL     1     -40.647  53.134 -51.916  1.00  0.00     0.001 A 
HETATM   19  C   UNL     1     -41.484  53.761 -52.840  1.00  0.00     0.017 A 
ENDBRANCH  11  14
ENDBRANCH   1  10
BRANCH   9  20
HETATM   20  C   UNL     1     -42.608  57.826 -54.533  1.00  0.00     0.255 C 
HETATM   21  N   UNL     1     -41.640  58.800 -54.407  1.00  0.00    -0.355 N 
HETATM   22  H   UNL     1     -41.291  59.209 -55.264  1.00  0.00     0.162 HD
HETATM   23  O   UNL     1     -43.013  57.246 -53.522  1.00  0.00    -0.268 OA
BRANCH  21  24
HETATM   24  C   UNL     1     -41.404  59.565 -53.186  1.00  0.00     0.150 C 
BRANCH  24  25
HETATM   25  C   UNL     1     -40.375  59.007 -52.186  1.00  0.00     0.249 C 
BRANCH  25  26
HETATM   26  N   UNL     1     -40.990  58.003 -51.284  1.00  0.00    -0.078 N 
HETATM   27  H   UNL     1     -42.017  58.085 -51.388  1.00  0.00     0.274 HD
HETATM   28  H   UNL     1     -40.735  57.037 -51.520  1.00  0.00     0.274 HD
HETATM   29  H   UNL     1     -40.774  58.177 -50.296  1.00  0.00     0.274 HD
ENDBRANCH  25  26
ENDBRANCH  24  25
ENDBRANCH  21  24
ENDBRANCH   9  20
TORSDOF 6
ENDMDL
