MODEL 1
REMARK VINA RESULT:      -7.7      0.000      0.000
REMARK  5 active torsions:
REMARK  status: ('A' for Active; 'I' for Inactive)
REMARK    1  A    between atoms: C_5  and  C_6 
REMARK    2  A    between atoms: C_6  and  C_7 
REMARK       I    between atoms: C_7  and  N_8 
REMARK    3  A    between atoms: N_8  and  C_9 
REMARK    4  A    between atoms: C_12  and  O_13 
REMARK    5  A    between atoms: O_13  and  C_14 
ROOT
HETATM    1  C   UNL     1     -40.779  54.320 -52.811  1.00  0.00     0.076 A 
HETATM    2  C   UNL     1     -40.725  53.888 -54.136  1.00  0.00     0.039 A 
HETATM    3  C   UNL     1     -40.349  52.574 -54.425  1.00  0.00     0.025 A 
HETATM    4  C   UNL     1     -40.013  51.697 -53.386  1.00  0.00     0.044 A 
HETATM    5  C   UNL     1     -39.625  50.349 -53.682  1.00  0.00     0.099 C 
HETATM    6  N   UNL     1     -39.314  49.257 -53.923  1.00  0.00    -0.191 NA
HETATM    7  C   UNL     1     -40.047  52.144 -52.059  1.00  0.00     0.025 A 
HETATM    8  C   UNL     1     -40.420  53.460 -51.772  1.00  0.00     0.039 A 
ENDROOT
BRANCH   1   9
HETATM    9  O   UNL     1     -41.094  55.637 -52.587  1.00  0.00    -0.311 OA
BRANCH   9  10
HETATM   10  C   UNL     1     -42.079  56.220 -53.352  1.00  0.00     0.076 A 
HETATM   11  C   UNL     1     -41.663  57.279 -54.159  1.00  0.00     0.039 A 
HETATM   12  C   UNL     1     -42.563  57.912 -55.024  1.00  0.00     0.032 A 
HETATM   13  C   UNL     1     -43.890  57.490 -55.097  1.00  0.00     0.034 A 
HETATM   14  C   UNL     1     -44.302  56.425 -54.285  1.00  0.00     0.032 A 
HETATM   15  C   UNL     1     -43.401  55.783 -53.426  1.00  0.00     0.039 A 
BRANCH  13  16
HETATM   16  N   UNL     1     -44.854  58.057 -55.959  1.00  0.00    -0.327 N 
HETATM   17  C   UNL     1     -44.953  57.902 -57.332  1.00  0.00     0.227 C 
HETATM   18  O   UNL     1     -44.191  57.249 -58.043  1.00  0.00    -0.273 OA
HETATM   19  H   UNL     1     -45.556  58.633 -55.510  1.00  0.00     0.169 HD
BRANCH  17  20
HETATM   20  C   UNL     1     -46.168  58.615 -57.931  1.00  0.00     0.159 C 
BRANCH  20  21
HETATM   21  C   UNL     1     -46.674  57.939 -59.167  1.00  0.00     0.017 A 
HETATM   22  N   UNL     1     -46.686  56.568 -59.305  1.00  0.00    -0.369 N 
HETATM   23  C   UNL     1     -47.218  56.230 -60.520  1.00  0.00     0.088 A 
HETATM   24  H   UNL     1     -46.326  55.917 -58.611  1.00  0.00     0.165 HD
HETATM   25  C   UNL     1     -47.567  57.391 -61.169  1.00  0.00     0.019 A 
HETATM   26  C   UNL     1     -47.226  58.469 -60.318  1.00  0.00     0.027 A 
ENDBRANCH  20  21
ENDBRANCH  17  20
ENDBRANCH  13  16
ENDBRANCH   9  10
ENDBRANCH   1   9
TORSDOF 5
ENDMDL
MODEL 2
REMARK VINA RESULT:      -7.4      5.100      6.135
REMARK  5 active torsions:
REMARK  status: ('A' for Active; 'I' for Inactive)
REMARK    1  A    between atoms: C_5  and  C_6 
REMARK    2  A    between atoms: C_6  and  C_7 
REMARK       I    between atoms: C_7  and  N_8 
REMARK    3  A    between atoms: N_8  and  C_9 
REMARK    4  A    between atoms: C_12  and  O_13 
REMARK    5  A    between atoms: O_13  and  C_14 
ROOT
HETATM    1  C   UNL     1     -40.463  53.923 -51.500  1.00  0.00     0.076 A 
HETATM    2  C   UNL     1     -39.940  52.753 -50.949  1.00  0.00     0.039 A 
HETATM    3  C   UNL     1     -39.716  51.641 -51.764  1.00  0.00     0.025 A 
HETATM    4  C   UNL     1     -40.032  51.696 -53.127  1.00  0.00     0.044 A 
HETATM    5  C   UNL     1     -39.804  50.554 -53.964  1.00  0.00     0.099 C 
HETATM    6  N   UNL     1     -39.617  49.629 -54.639  1.00  0.00    -0.191 NA
HETATM    7  C   UNL     1     -40.578  52.867 -53.669  1.00  0.00     0.025 A 
HETATM    8  C   UNL     1     -40.805  53.978 -52.852  1.00  0.00     0.039 A 
ENDROOT
BRANCH   1   9
HETATM    9  O   UNL     1     -40.721  54.965 -50.643  1.00  0.00    -0.311 OA
BRANCH   9  10
HETATM   10  C   UNL     1     -41.652  55.909 -51.012  1.00  0.00     0.076 A 
HETATM   11  C   UNL     1     -42.985  55.543 -50.826  1.00  0.00     0.039 A 
HETATM   12  C   UNL     1     -44.018  56.443 -51.109  1.00  0.00     0.032 A 
HETATM   13  C   UNL     1     -43.731  57.724 -51.578  1.00  0.00     0.034 A 
HETATM   14  C   UNL     1     -42.390  58.089 -51.763  1.00  0.00     0.032 A 
HETATM   15  C   UNL     1     -41.354  57.192 -51.470  1.00  0.00     0.039 A 
BRANCH  13  16
HETATM   16  N   UNL     1     -44.710  58.700 -51.865  1.00  0.00    -0.327 N 
HETATM   17  C   UNL     1     -45.692  59.185 -51.016  1.00  0.00     0.227 C 
HETATM   18  O   UNL     1     -45.888  58.824 -49.856  1.00  0.00    -0.273 OA
HETATM   19  H   UNL     1     -44.676  59.092 -52.798  1.00  0.00     0.169 HD
BRANCH  17  20
HETATM   20  C   UNL     1     -46.543  60.289 -51.649  1.00  0.00     0.159 C 
BRANCH  20  21
HETATM   21  C   UNL     1     -46.233  61.641 -51.084  1.00  0.00     0.017 A 
HETATM   22  N   UNL     1     -46.289  61.906 -49.733  1.00  0.00    -0.369 N 
HETATM   23  C   UNL     1     -45.938  63.208 -49.503  1.00  0.00     0.088 A 
HETATM   24  H   UNL     1     -46.574  61.232 -49.026  1.00  0.00     0.165 HD
HETATM   25  C   UNL     1     -45.641  63.790 -50.713  1.00  0.00     0.019 A 
HETATM   26  C   UNL     1     -45.824  62.803 -51.711  1.00  0.00     0.027 A 
ENDBRANCH  20  21
ENDBRANCH  17  20
ENDBRANCH  13  16
ENDBRANCH   9  10
ENDBRANCH   1   9
TORSDOF 5
ENDMDL
MODEL 3
REMARK VINA RESULT:      -7.4      3.930      6.105
REMARK  5 active torsions:
REMARK  status: ('A' for Active; 'I' for Inactive)
REMARK    1  A    between atoms: C_5  and  C_6 
REMARK    2  A    between atoms: C_6  and  C_7 
REMARK       I    between atoms: C_7  and  N_8 
REMARK    3  A    between atoms: N_8  and  C_9 
REMARK    4  A    between atoms: C_12  and  O_13 
REMARK    5  A    between atoms: O_13  and  C_14 
ROOT
HETATM    1  C   UNL     1     -40.541  53.806 -53.871  1.00  0.00     0.076 A 
HETATM    2  C   UNL     1     -40.197  52.603 -54.486  1.00  0.00     0.039 A 
HETATM    3  C   UNL     1     -39.852  51.497 -53.706  1.00  0.00     0.025 A 
HETATM    4  C   UNL     1     -39.836  51.603 -52.309  1.00  0.00     0.044 A 
HETATM    5  C   UNL     1     -39.480  50.468 -51.507  1.00  0.00     0.099 C 
HETATM    6  N   UNL     1     -39.193  49.549 -50.860  1.00  0.00    -0.191 NA
HETATM    7  C   UNL     1     -40.161  52.821 -51.699  1.00  0.00     0.025 A 
HETATM    8  C   UNL     1     -40.503  53.928 -52.481  1.00  0.00     0.039 A 
ENDROOT
BRANCH   1   9
HETATM    9  O   UNL     1     -40.812  54.878 -54.686  1.00  0.00    -0.311 OA
BRANCH   9  10
HETATM   10  C   UNL     1     -41.677  55.849 -54.235  1.00  0.00     0.076 A 
HETATM   11  C   UNL     1     -43.034  55.559 -54.378  1.00  0.00     0.039 A 
HETATM   12  C   UNL     1     -44.007  56.444 -53.902  1.00  0.00     0.032 A 
HETATM   13  C   UNL     1     -43.636  57.631 -53.272  1.00  0.00     0.034 A 
HETATM   14  C   UNL     1     -42.271  57.919 -53.129  1.00  0.00     0.032 A 
HETATM   15  C   UNL     1     -41.295  57.028 -53.596  1.00  0.00     0.039 A 
BRANCH  13  16
HETATM   16  N   UNL     1     -44.551  58.567 -52.743  1.00  0.00    -0.327 N 
HETATM   17  C   UNL     1     -45.209  58.507 -51.524  1.00  0.00     0.227 C 
HETATM   18  O   UNL     1     -45.115  57.603 -50.695  1.00  0.00    -0.273 OA
HETATM   19  H   UNL     1     -44.734  59.376 -53.324  1.00  0.00     0.169 HD
BRANCH  17  20
HETATM   20  C   UNL     1     -46.082  59.734 -51.253  1.00  0.00     0.159 C 
BRANCH  20  21
HETATM   21  C   UNL     1     -45.488  60.639 -50.218  1.00  0.00     0.017 A 
HETATM   22  N   UNL     1     -45.360  60.265 -48.898  1.00  0.00    -0.369 N 
HETATM   23  C   UNL     1     -44.768  61.274 -48.188  1.00  0.00     0.088 A 
HETATM   24  H   UNL     1     -45.684  59.380 -48.517  1.00  0.00     0.165 HD
HETATM   25  C   UNL     1     -44.498  62.306 -49.057  1.00  0.00     0.019 A 
HETATM   26  C   UNL     1     -44.950  61.907 -50.337  1.00  0.00     0.027 A 
ENDBRANCH  20  21
ENDBRANCH  17  20
ENDBRANCH  13  16
ENDBRANCH   9  10
ENDBRANCH   1   9
TORSDOF 5
ENDMDL
MODEL 4
REMARK VINA RESULT:      -7.3     15.850     19.927
REMARK  5 active torsions:
REMARK  status: ('A' for Active; 'I' for Inactive)
REMARK    1  A    between atoms: C_5  and  C_6 
REMARK    2  A    between atoms: C_6  and  C_7 
REMARK       I    between atoms: C_7  and  N_8 
REMARK    3  A    between atoms: N_8  and  C_9 
REMARK    4  A    between atoms: C_12  and  O_13 
REMARK    5  A    between atoms: O_13  and  C_14 
ROOT
HETATM    1  C   UNL     1     -36.309  42.214 -54.864  1.00  0.00     0.076 A 
HETATM    2  C   UNL     1     -35.217  42.292 -55.729  1.00  0.00     0.039 A 
HETATM    3  C   UNL     1     -35.330  41.817 -57.036  1.00  0.00     0.025 A 
HETATM    4  C   UNL     1     -36.533  41.249 -57.474  1.00  0.00     0.044 A 
HETATM    5  C   UNL     1     -36.649  40.758 -58.817  1.00  0.00     0.099 C 
HETATM    6  N   UNL     1     -36.742  40.364 -59.904  1.00  0.00    -0.191 NA
HETATM    7  C   UNL     1     -37.618  41.153 -56.594  1.00  0.00     0.025 A 
HETATM    8  C   UNL     1     -37.503  41.626 -55.284  1.00  0.00     0.039 A 
ENDROOT
BRANCH   1   9
HETATM    9  O   UNL     1     -36.125  42.640 -53.572  1.00  0.00    -0.311 OA
BRANCH   9  10
HETATM   10  C   UNL     1     -35.503  41.795 -52.680  1.00  0.00     0.076 A 
HETATM   11  C   UNL     1     -34.670  42.413 -51.749  1.00  0.00     0.039 A 
HETATM   12  C   UNL     1     -34.031  41.664 -50.754  1.00  0.00     0.032 A 
HETATM   13  C   UNL     1     -34.222  40.285 -50.676  1.00  0.00     0.034 A 
HETATM   14  C   UNL     1     -35.062  39.668 -51.613  1.00  0.00     0.032 A 
HETATM   15  C   UNL     1     -35.710  40.418 -52.604  1.00  0.00     0.039 A 
BRANCH  13  16
HETATM   16  N   UNL     1     -33.636  39.459 -49.692  1.00  0.00    -0.327 N 
HETATM   17  C   UNL     1     -32.288  39.311 -49.409  1.00  0.00     0.227 C 
HETATM   18  O   UNL     1     -31.360  39.872 -49.993  1.00  0.00    -0.273 OA
HETATM   19  H   UNL     1     -34.285  38.925 -49.127  1.00  0.00     0.169 HD
BRANCH  17  20
HETATM   20  C   UNL     1     -32.021  38.374 -48.229  1.00  0.00     0.159 C 
BRANCH  20  21
HETATM   21  C   UNL     1     -31.284  39.054 -47.116  1.00  0.00     0.017 A 
HETATM   22  N   UNL     1     -30.492  40.162 -47.326  1.00  0.00    -0.369 N 
HETATM   23  C   UNL     1     -29.962  40.583 -46.136  1.00  0.00     0.088 A 
HETATM   24  H   UNL     1     -30.315  40.578 -48.237  1.00  0.00     0.165 HD
HETATM   25  C   UNL     1     -30.425  39.750 -45.145  1.00  0.00     0.019 A 
HETATM   26  C   UNL     1     -31.260  38.787 -45.760  1.00  0.00     0.027 A 
ENDBRANCH  20  21
ENDBRANCH  17  20
ENDBRANCH  13  16
ENDBRANCH   9  10
ENDBRANCH   1   9
TORSDOF 5
ENDMDL
MODEL 5
REMARK VINA RESULT:      -7.0      4.852      9.354
REMARK  5 active torsions:
REMARK  status: ('A' for Active; 'I' for Inactive)
REMARK    1  A    between atoms: C_5  and  C_6 
REMARK    2  A    between atoms: C_6  and  C_7 
REMARK       I    between atoms: C_7  and  N_8 
REMARK    3  A    between atoms: N_8  and  C_9 
REMARK    4  A    between atoms: C_12  and  O_13 
REMARK    5  A    between atoms: O_13  and  C_14 
ROOT
HETATM    1  C   UNL     1     -41.898  61.047 -60.382  1.00  0.00     0.076 A 
HETATM    2  C   UNL     1     -41.352  61.712 -61.479  1.00  0.00     0.039 A 
HETATM    3  C   UNL     1     -40.306  62.618 -61.293  1.00  0.00     0.025 A 
HETATM    4  C   UNL     1     -39.818  62.871 -60.005  1.00  0.00     0.044 A 
HETATM    5  C   UNL     1     -38.745  63.803 -59.813  1.00  0.00     0.099 C 
HETATM    6  N   UNL     1     -37.876  64.556 -59.660  1.00  0.00    -0.191 NA
HETATM    7  C   UNL     1     -40.387  62.217 -58.905  1.00  0.00     0.025 A 
HETATM    8  C   UNL     1     -41.436  61.312 -59.092  1.00  0.00     0.039 A 
ENDROOT
BRANCH   1   9
HETATM    9  O   UNL     1     -42.964  60.214 -60.613  1.00  0.00    -0.311 OA
BRANCH   9  10
HETATM   10  C   UNL     1     -43.126  59.108 -59.809  1.00  0.00     0.076 A 
HETATM   11  C   UNL     1     -42.329  58.010 -60.131  1.00  0.00     0.039 A 
HETATM   12  C   UNL     1     -42.363  56.850 -59.348  1.00  0.00     0.032 A 
HETATM   13  C   UNL     1     -43.193  56.776 -58.230  1.00  0.00     0.034 A 
HETATM   14  C   UNL     1     -43.992  57.882 -57.910  1.00  0.00     0.032 A 
HETATM   15  C   UNL     1     -43.951  59.048 -58.687  1.00  0.00     0.039 A 
BRANCH  13  16
HETATM   16  N   UNL     1     -43.270  55.655 -57.375  1.00  0.00    -0.327 N 
HETATM   17  C   UNL     1     -42.630  55.476 -56.159  1.00  0.00     0.227 C 
HETATM   18  O   UNL     1     -41.859  56.271 -55.623  1.00  0.00    -0.273 OA
HETATM   19  H   UNL     1     -43.874  54.905 -57.691  1.00  0.00     0.169 HD
BRANCH  17  20
HETATM   20  C   UNL     1     -42.999  54.157 -55.475  1.00  0.00     0.159 C 
BRANCH  20  21
HETATM   21  C   UNL     1     -42.023  53.778 -54.404  1.00  0.00     0.017 A 
HETATM   22  N   UNL     1     -42.023  54.376 -53.162  1.00  0.00    -0.369 N 
HETATM   23  C   UNL     1     -41.044  53.822 -52.383  1.00  0.00     0.088 A 
HETATM   24  H   UNL     1     -42.646  55.132 -52.887  1.00  0.00     0.165 HD
HETATM   25  C   UNL     1     -40.413  52.848 -53.121  1.00  0.00     0.019 A 
HETATM   26  C   UNL     1     -41.029  52.818 -54.394  1.00  0.00     0.027 A 
ENDBRANCH  20  21
ENDBRANCH  17  20
ENDBRANCH  13  16
ENDBRANCH   9  10
ENDBRANCH   1   9
TORSDOF 5
ENDMDL
MODEL 6
REMARK VINA RESULT:      -6.9      4.449      6.656
REMARK  5 active torsions:
REMARK  status: ('A' for Active; 'I' for Inactive)
REMARK    1  A    between atoms: C_5  and  C_6 
REMARK    2  A    between atoms: C_6  and  C_7 
REMARK       I    between atoms: C_7  and  N_8 
REMARK    3  A    between atoms: N_8  and  C_9 
REMARK    4  A    between atoms: C_12  and  O_13 
REMARK    5  A    between atoms: O_13  and  C_14 
ROOT
HETATM    1  C   UNL     1     -40.914  54.142 -53.908  1.00  0.00     0.076 A 
HETATM    2  C   UNL     1     -41.106  54.123 -52.526  1.00  0.00     0.039 A 
HETATM    3  C   UNL     1     -40.642  53.041 -51.776  1.00  0.00     0.025 A 
HETATM    4  C   UNL     1     -40.000  51.971 -52.411  1.00  0.00     0.044 A 
HETATM    5  C   UNL     1     -39.525  50.858 -51.641  1.00  0.00     0.099 C 
HETATM    6  N   UNL     1     -39.139  49.960 -51.016  1.00  0.00    -0.191 NA
HETATM    7  C   UNL     1     -39.831  51.987 -53.802  1.00  0.00     0.025 A 
HETATM    8  C   UNL     1     -40.298  53.069 -54.553  1.00  0.00     0.039 A 
ENDROOT
BRANCH   1   9
HETATM    9  O   UNL     1     -41.444  55.200 -54.605  1.00  0.00    -0.311 OA
BRANCH   9  10
HETATM   10  C   UNL     1     -41.787  56.341 -53.915  1.00  0.00     0.076 A 
HETATM   11  C   UNL     1     -40.759  57.267 -53.738  1.00  0.00     0.039 A 
HETATM   12  C   UNL     1     -41.002  58.491 -53.104  1.00  0.00     0.032 A 
HETATM   13  C   UNL     1     -42.280  58.806 -52.644  1.00  0.00     0.034 A 
HETATM   14  C   UNL     1     -43.310  57.874 -52.825  1.00  0.00     0.032 A 
HETATM   15  C   UNL     1     -43.070  56.652 -53.469  1.00  0.00     0.039 A 
BRANCH  13  16
HETATM   16  N   UNL     1     -42.616  60.026 -52.016  1.00  0.00    -0.327 N 
HETATM   17  C   UNL     1     -42.223  60.465 -50.762  1.00  0.00     0.227 C 
HETATM   18  O   UNL     1     -41.519  59.845 -49.966  1.00  0.00    -0.273 OA
HETATM   19  H   UNL     1     -43.204  60.648 -52.557  1.00  0.00     0.169 HD
BRANCH  17  20
HETATM   20  C   UNL     1     -42.729  61.873 -50.434  1.00  0.00     0.159 C 
BRANCH  20  21
HETATM   21  C   UNL     1     -43.968  61.851 -49.592  1.00  0.00     0.017 A 
HETATM   22  N   UNL     1     -44.344  60.744 -48.863  1.00  0.00    -0.369 N 
HETATM   23  C   UNL     1     -45.497  61.014 -48.176  1.00  0.00     0.088 A 
HETATM   24  H   UNL     1     -43.846  59.858 -48.864  1.00  0.00     0.165 HD
HETATM   25  C   UNL     1     -45.863  62.310 -48.451  1.00  0.00     0.019 A 
HETATM   26  C   UNL     1     -44.900  62.840 -49.342  1.00  0.00     0.027 A 
ENDBRANCH  20  21
ENDBRANCH  17  20
ENDBRANCH  13  16
ENDBRANCH   9  10
ENDBRANCH   1   9
TORSDOF 5
ENDMDL
MODEL 7
REMARK VINA RESULT:      -6.9      2.701      9.208
REMARK  5 active torsions:
REMARK  status: ('A' for Active; 'I' for Inactive)
REMARK    1  A    between atoms: C_5  and  C_6 
REMARK    2  A    between atoms: C_6  and  C_7 
REMARK       I    between atoms: C_7  and  N_8 
REMARK    3  A    between atoms: N_8  and  C_9 
REMARK    4  A    between atoms: C_12  and  O_13 
REMARK    5  A    between atoms: O_13  and  C_14 
ROOT
HETATM    1  C   UNL     1     -44.285  56.672 -59.358  1.00  0.00     0.076 A 
HETATM    2  C   UNL     1     -44.676  55.454 -59.914  1.00  0.00     0.039 A 
HETATM    3  C   UNL     1     -45.833  55.384 -60.692  1.00  0.00     0.025 A 
HETATM    4  C   UNL     1     -46.608  56.532 -60.899  1.00  0.00     0.044 A 
HETATM    5  C   UNL     1     -47.798  56.461 -61.696  1.00  0.00     0.099 C 
HETATM    6  N   UNL     1     -48.760  56.401 -62.343  1.00  0.00    -0.191 NA
HETATM    7  C   UNL     1     -46.223  57.747 -60.319  1.00  0.00     0.025 A 
HETATM    8  C   UNL     1     -45.065  57.815 -59.538  1.00  0.00     0.039 A 
ENDROOT
BRANCH   1   9
HETATM    9  O   UNL     1     -43.174  56.672 -58.552  1.00  0.00    -0.311 OA
BRANCH   9  10
HETATM   10  C   UNL     1     -43.331  56.417 -57.208  1.00  0.00     0.076 A 
HETATM   11  C   UNL     1     -42.877  55.171 -56.776  1.00  0.00     0.039 A 
HETATM   12  C   UNL     1     -42.930  54.823 -55.422  1.00  0.00     0.032 A 
HETATM   13  C   UNL     1     -43.434  55.719 -54.480  1.00  0.00     0.034 A 
HETATM   14  C   UNL     1     -43.888  56.971 -54.919  1.00  0.00     0.032 A 
HETATM   15  C   UNL     1     -43.827  57.325 -56.273  1.00  0.00     0.039 A 
BRANCH  13  16
HETATM   16  N   UNL     1     -43.501  55.457 -53.095  1.00  0.00    -0.327 N 
HETATM   17  C   UNL     1     -42.451  55.422 -52.191  1.00  0.00     0.227 C 
HETATM   18  O   UNL     1     -41.262  55.597 -52.456  1.00  0.00    -0.273 OA
HETATM   19  H   UNL     1     -44.429  55.287 -52.726  1.00  0.00     0.169 HD
BRANCH  17  20
HETATM   20  C   UNL     1     -42.906  55.168 -50.752  1.00  0.00     0.159 C 
BRANCH  20  21
HETATM   21  C   UNL     1     -41.828  54.551 -49.914  1.00  0.00     0.017 A 
HETATM   22  N   UNL     1     -41.240  53.348 -50.239  1.00  0.00    -0.369 N 
HETATM   23  C   UNL     1     -40.279  53.039 -49.315  1.00  0.00     0.088 A 
HETATM   24  H   UNL     1     -41.508  52.773 -51.034  1.00  0.00     0.165 HD
HETATM   25  C   UNL     1     -40.234  54.057 -48.391  1.00  0.00     0.019 A 
HETATM   26  C   UNL     1     -41.209  55.012 -48.767  1.00  0.00     0.027 A 
ENDBRANCH  20  21
ENDBRANCH  17  20
ENDBRANCH  13  16
ENDBRANCH   9  10
ENDBRANCH   1   9
TORSDOF 5
ENDMDL
MODEL 8
REMARK VINA RESULT:      -6.8      4.157      8.877
REMARK  5 active torsions:
REMARK  status: ('A' for Active; 'I' for Inactive)
REMARK    1  A    between atoms: C_5  and  C_6 
REMARK    2  A    between atoms: C_6  and  C_7 
REMARK       I    between atoms: C_7  and  N_8 
REMARK    3  A    between atoms: N_8  and  C_9 
REMARK    4  A    between atoms: C_12  and  O_13 
REMARK    5  A    between atoms: O_13  and  C_14 
ROOT
HETATM    1  C   UNL     1     -44.863  59.732 -50.735  1.00  0.00     0.076 A 
HETATM    2  C   UNL     1     -43.491  59.901 -50.550  1.00  0.00     0.039 A 
HETATM    3  C   UNL     1     -42.931  61.177 -50.631  1.00  0.00     0.025 A 
HETATM    4  C   UNL     1     -43.743  62.283 -50.913  1.00  0.00     0.044 A 
HETATM    5  C   UNL     1     -43.167  63.593 -50.999  1.00  0.00     0.099 C 
HETATM    6  N   UNL     1     -42.700  64.654 -51.065  1.00  0.00    -0.191 NA
HETATM    7  C   UNL     1     -45.116  62.103 -51.121  1.00  0.00     0.025 A 
HETATM    8  C   UNL     1     -45.676  60.824 -51.042  1.00  0.00     0.039 A 
ENDROOT
BRANCH   1   9
HETATM    9  O   UNL     1     -45.352  58.450 -50.705  1.00  0.00    -0.311 OA
BRANCH   9  10
HETATM   10  C   UNL     1     -44.695  57.474 -51.421  1.00  0.00     0.076 A 
HETATM   11  C   UNL     1     -44.677  57.654 -52.804  1.00  0.00     0.039 A 
HETATM   12  C   UNL     1     -43.988  56.760 -53.631  1.00  0.00     0.032 A 
HETATM   13  C   UNL     1     -43.304  55.675 -53.084  1.00  0.00     0.034 A 
HETATM   14  C   UNL     1     -43.325  55.498 -51.693  1.00  0.00     0.032 A 
HETATM   15  C   UNL     1     -44.005  56.399 -50.863  1.00  0.00     0.039 A 
BRANCH  13  16
HETATM   16  N   UNL     1     -42.566  54.740 -53.842  1.00  0.00    -0.327 N 
HETATM   17  C   UNL     1     -41.229  54.810 -54.198  1.00  0.00     0.227 C 
HETATM   18  O   UNL     1     -40.454  55.726 -53.922  1.00  0.00    -0.273 OA
HETATM   19  H   UNL     1     -43.080  53.923 -54.148  1.00  0.00     0.169 HD
BRANCH  17  20
HETATM   20  C   UNL     1     -40.748  53.581 -54.973  1.00  0.00     0.159 C 
BRANCH  20  21
HETATM   21  C   UNL     1     -40.282  52.483 -54.068  1.00  0.00     0.017 A 
HETATM   22  N   UNL     1     -40.004  52.694 -52.735  1.00  0.00    -0.369 N 
HETATM   23  C   UNL     1     -39.622  51.517 -52.151  1.00  0.00     0.088 A 
HETATM   24  H   UNL     1     -40.054  53.599 -52.274  1.00  0.00     0.165 HD
HETATM   25  C   UNL     1     -39.664  50.532 -53.110  1.00  0.00     0.019 A 
HETATM   26  C   UNL     1     -40.082  51.138 -54.318  1.00  0.00     0.027 A 
ENDBRANCH  20  21
ENDBRANCH  17  20
ENDBRANCH  13  16
ENDBRANCH   9  10
ENDBRANCH   1   9
TORSDOF 5
ENDMDL
MODEL 9
REMARK VINA RESULT:      -6.8      3.142      3.811
REMARK  5 active torsions:
REMARK  status: ('A' for Active; 'I' for Inactive)
REMARK    1  A    between atoms: C_5  and  C_6 
REMARK    2  A    between atoms: C_6  and  C_7 
REMARK       I    between atoms: C_7  and  N_8 
REMARK    3  A    between atoms: N_8  and  C_9 
REMARK    4  A    between atoms: C_12  and  O_13 
REMARK    5  A    between atoms: O_13  and  C_14 
ROOT
HETATM    1  C   UNL     1     -41.230  54.120 -52.240  1.00  0.00     0.076 A 
HETATM    2  C   UNL     1     -41.723  53.804 -53.506  1.00  0.00     0.039 A 
HETATM    3  C   UNL     1     -41.283  52.649 -54.154  1.00  0.00     0.025 A 
HETATM    4  C   UNL     1     -40.337  51.818 -53.541  1.00  0.00     0.044 A 
HETATM    5  C   UNL     1     -39.883  50.632 -54.208  1.00  0.00     0.099 C 
HETATM    6  N   UNL     1     -39.519  49.671 -54.748  1.00  0.00    -0.191 NA
HETATM    7  C   UNL     1     -39.829  52.153 -52.280  1.00  0.00     0.025 A 
HETATM    8  C   UNL     1     -40.268  53.312 -51.633  1.00  0.00     0.039 A 
ENDROOT
BRANCH   1   9
HETATM    9  O   UNL     1     -41.650  55.298 -51.674  1.00  0.00    -0.311 OA
BRANCH   9  10
HETATM   10  C   UNL     1     -42.012  56.337 -52.502  1.00  0.00     0.076 A 
HETATM   11  C   UNL     1     -40.960  57.114 -52.986  1.00  0.00     0.039 A 
HETATM   12  C   UNL     1     -41.200  58.161 -53.883  1.00  0.00     0.032 A 
HETATM   13  C   UNL     1     -42.498  58.442 -54.310  1.00  0.00     0.034 A 
HETATM   14  C   UNL     1     -43.552  57.659 -53.821  1.00  0.00     0.032 A 
HETATM   15  C   UNL     1     -43.312  56.603 -52.931  1.00  0.00     0.039 A 
BRANCH  13  16
HETATM   16  N   UNL     1     -42.824  59.463 -55.229  1.00  0.00    -0.327 N 
HETATM   17  C   UNL     1     -42.603  59.469 -56.597  1.00  0.00     0.227 C 
HETATM   18  O   UNL     1     -42.058  58.577 -57.246  1.00  0.00    -0.273 OA
HETATM   19  H   UNL     1     -43.282  60.276 -54.835  1.00  0.00     0.169 HD
BRANCH  17  20
HETATM   20  C   UNL     1     -43.148  60.722 -57.288  1.00  0.00     0.159 C 
BRANCH  20  21
HETATM   21  C   UNL     1     -42.134  61.366 -58.183  1.00  0.00     0.017 A 
HETATM   22  N   UNL     1     -41.116  62.156 -57.694  1.00  0.00    -0.369 N 
HETATM   23  C   UNL     1     -40.332  62.590 -58.729  1.00  0.00     0.088 A 
HETATM   24  H   UNL     1     -40.992  62.394 -56.713  1.00  0.00     0.165 HD
HETATM   25  C   UNL     1     -40.838  62.067 -59.895  1.00  0.00     0.019 A 
HETATM   26  C   UNL     1     -41.972  61.294 -59.553  1.00  0.00     0.027 A 
ENDBRANCH  20  21
ENDBRANCH  17  20
ENDBRANCH  13  16
ENDBRANCH   9  10
ENDBRANCH   1   9
TORSDOF 5
ENDMDL
MODEL 10
REMARK VINA RESULT:      -6.7     15.726     19.001
REMARK  5 active torsions:
REMARK  status: ('A' for Active; 'I' for Inactive)
REMARK    1  A    between atoms: C_5  and  C_6 
REMARK    2  A    between atoms: C_6  and  C_7 
REMARK       I    between atoms: C_7  and  N_8 
REMARK    3  A    between atoms: N_8  and  C_9 
REMARK    4  A    between atoms: C_12  and  O_13 
REMARK    5  A    between atoms: O_13  and  C_14 
ROOT
HETATM    1  C   UNL     1     -31.570  38.920 -47.525  1.00  0.00     0.076 A 
HETATM    2  C   UNL     1     -31.670  38.238 -46.312  1.00  0.00     0.039 A 
HETATM    3  C   UNL     1     -30.975  38.702 -45.194  1.00  0.00     0.025 A 
HETATM    4  C   UNL     1     -30.166  39.841 -45.294  1.00  0.00     0.044 A 
HETATM    5  C   UNL     1     -29.450  40.317 -44.146  1.00  0.00     0.099 C 
HETATM    6  N   UNL     1     -28.873  40.701 -43.216  1.00  0.00    -0.191 NA
HETATM    7  C   UNL     1     -30.051  40.508 -46.521  1.00  0.00     0.025 A 
HETATM    8  C   UNL     1     -30.746  40.041 -47.640  1.00  0.00     0.039 A 
ENDROOT
BRANCH   1   9
HETATM    9  O   UNL     1     -32.224  38.387 -48.607  1.00  0.00    -0.311 OA
BRANCH   9  10
HETATM   10  C   UNL     1     -32.845  39.240 -49.491  1.00  0.00     0.076 A 
HETATM   11  C   UNL     1     -32.021  39.792 -50.472  1.00  0.00     0.039 A 
HETATM   12  C   UNL     1     -32.551  40.627 -51.462  1.00  0.00     0.032 A 
HETATM   13  C   UNL     1     -33.914  40.918 -51.486  1.00  0.00     0.034 A 
HETATM   14  C   UNL     1     -34.739  40.360 -50.499  1.00  0.00     0.032 A 
HETATM   15  C   UNL     1     -34.212  39.515 -49.513  1.00  0.00     0.039 A 
BRANCH  13  16
HETATM   16  N   UNL     1     -34.533  41.730 -52.461  1.00  0.00    -0.327 N 
HETATM   17  C   UNL     1     -35.129  41.322 -53.644  1.00  0.00     0.227 C 
HETATM   18  O   UNL     1     -35.201  40.165 -54.056  1.00  0.00    -0.273 OA
HETATM   19  H   UNL     1     -34.547  42.722 -52.259  1.00  0.00     0.169 HD
BRANCH  17  20
HETATM   20  C   UNL     1     -35.757  42.476 -54.430  1.00  0.00     0.159 C 
BRANCH  20  21
HETATM   21  C   UNL     1     -36.108  42.086 -55.832  1.00  0.00     0.017 A 
HETATM   22  N   UNL     1     -35.218  41.441 -56.663  1.00  0.00    -0.369 N 
HETATM   23  C   UNL     1     -35.812  41.190 -57.870  1.00  0.00     0.088 A 
HETATM   24  H   UNL     1     -34.259  41.214 -56.413  1.00  0.00     0.165 HD
HETATM   25  C   UNL     1     -37.101  41.666 -57.818  1.00  0.00     0.019 A 
HETATM   26  C   UNL     1     -37.290  42.229 -56.534  1.00  0.00     0.027 A 
ENDBRANCH  20  21
ENDBRANCH  17  20
ENDBRANCH  13  16
ENDBRANCH   9  10
ENDBRANCH   1   9
TORSDOF 5
ENDMDL
