MODEL 1
REMARK VINA RESULT:      -8.2      0.000      0.000
REMARK  5 active torsions:
REMARK  status: ('A' for Active; 'I' for Inactive)
REMARK    1  A    between atoms: C_3  and  N_4 
REMARK       I    between atoms: N_4  and  C_5 
REMARK    2  A    between atoms: C_5  and  C_6 
REMARK    3  A    between atoms: C_6  and  N_7 
REMARK    4  A    between atoms: C_6  and  C_16 
REMARK       I    between atoms: N_7  and  C_8 
REMARK    5  A    between atoms: C_8  and  C_9 
ROOT
HETATM    1  C   UNL     1     -42.437  56.396 -53.622  1.00  0.00     0.210 C 
ENDROOT
BRANCH   1   2
HETATM    2  C   UNL     1     -42.335  54.908 -53.154  1.00  0.00     0.249 C 
HETATM    3  N   UNL     1     -41.041  54.476 -52.912  1.00  0.00    -0.324 N 
HETATM    4  H   UNL     1     -40.350  55.226 -52.942  1.00  0.00     0.169 HD
HETATM    5  O   UNL     1     -43.360  54.289 -52.867  1.00  0.00    -0.270 OA
BRANCH   3   6
HETATM    6  C   UNL     1     -40.627  53.291 -52.255  1.00  0.00     0.046 A 
HETATM    7  C   UNL     1     -40.698  53.085 -50.861  1.00  0.00    -0.035 A 
HETATM    8  C   UNL     1     -41.320  54.042 -49.882  1.00  0.00     0.050 C 
HETATM    9  C   UNL     1     -40.199  51.883 -50.317  1.00  0.00     0.009 A 
HETATM   10  C   UNL     1     -39.700  50.872 -51.131  1.00  0.00     0.001 A 
HETATM   11  C   UNL     1     -39.689  51.043 -52.506  1.00  0.00     0.009 A 
HETATM   12  C   UNL     1     -40.143  52.241 -53.083  1.00  0.00    -0.035 A 
HETATM   13  C   UNL     1     -40.073  52.359 -54.586  1.00  0.00     0.050 C 
ENDBRANCH   3   6
ENDBRANCH   1   2
BRANCH   1  14
HETATM   14  N   UNL     1     -42.316  56.569 -55.068  1.00  0.00    -0.338 N 
HETATM   15  C   UNL     1     -43.307  56.958 -55.932  1.00  0.00     0.273 C 
HETATM   16  O   UNL     1     -44.422  57.319 -55.566  1.00  0.00    -0.266 OA
HETATM   17  H   UNL     1     -41.465  56.249 -55.522  1.00  0.00     0.164 HD
BRANCH  15  18
HETATM   18  C   UNL     1     -42.908  56.888 -57.345  1.00  0.00     0.145 A 
HETATM   19  N   UNL     1     -42.125  57.832 -57.912  1.00  0.00    -0.170 NA
HETATM   20  N   UNL     1     -41.977  57.414 -59.182  1.00  0.00    -0.289 N 
HETATM   21  H   UNL     1     -41.413  57.975 -59.813  1.00  0.00     0.188 HD
HETATM   22  C   UNL     1     -42.627  56.248 -59.452  1.00  0.00     0.112 A 
HETATM   23  C   UNL     1     -43.242  55.877 -58.281  1.00  0.00     0.058 A 
ENDBRANCH  15  18
ENDBRANCH   1  14
BRANCH   1  24
HETATM   24  C   UNL     1     -41.581  57.340 -52.772  1.00  0.00    -0.026 A 
HETATM   25  C   UNL     1     -40.588  58.168 -53.320  1.00  0.00     0.010 A 
HETATM   26  C   UNL     1     -39.828  59.019 -52.510  1.00  0.00     0.001 A 
HETATM   27  C   UNL     1     -40.066  59.080 -51.140  1.00  0.00     0.000 A 
HETATM   28  C   UNL     1     -41.072  58.301 -50.580  1.00  0.00     0.001 A 
HETATM   29  C   UNL     1     -41.826  57.448 -51.389  1.00  0.00     0.010 A 
ENDBRANCH   1  24
TORSDOF 5
ENDMDL
MODEL 2
REMARK VINA RESULT:      -8.0      0.321      1.732
REMARK  5 active torsions:
REMARK  status: ('A' for Active; 'I' for Inactive)
REMARK    1  A    between atoms: C_3  and  N_4 
REMARK       I    between atoms: N_4  and  C_5 
REMARK    2  A    between atoms: C_5  and  C_6 
REMARK    3  A    between atoms: C_6  and  N_7 
REMARK    4  A    between atoms: C_6  and  C_16 
REMARK       I    between atoms: N_7  and  C_8 
REMARK    5  A    between atoms: C_8  and  C_9 
ROOT
HETATM    1  C   UNL     1     -42.503  56.446 -53.828  1.00  0.00     0.210 C 
ENDROOT
BRANCH   1   2
HETATM    2  C   UNL     1     -42.367  54.965 -53.344  1.00  0.00     0.249 C 
HETATM    3  N   UNL     1     -41.068  54.577 -53.059  1.00  0.00    -0.324 N 
HETATM    4  H   UNL     1     -40.401  55.348 -53.075  1.00  0.00     0.169 HD
HETATM    5  O   UNL     1     -43.380  54.315 -53.083  1.00  0.00    -0.270 OA
BRANCH   3   6
HETATM    6  C   UNL     1     -40.636  53.411 -52.381  1.00  0.00     0.046 A 
HETATM    7  C   UNL     1     -40.132  52.257 -53.019  1.00  0.00    -0.035 A 
HETATM    8  C   UNL     1     -39.878  52.134 -54.495  1.00  0.00     0.050 C 
HETATM    9  C   UNL     1     -39.788  51.134 -52.237  1.00  0.00     0.009 A 
HETATM   10  C   UNL     1     -39.874  51.163 -50.850  1.00  0.00     0.001 A 
HETATM   11  C   UNL     1     -40.305  52.318 -50.215  1.00  0.00     0.009 A 
HETATM   12  C   UNL     1     -40.692  53.444 -50.960  1.00  0.00    -0.035 A 
HETATM   13  C   UNL     1     -41.176  54.651 -50.195  1.00  0.00     0.050 C 
ENDBRANCH   3   6
ENDBRANCH   1   2
BRANCH   1  14
HETATM   14  N   UNL     1     -42.321  56.614 -55.267  1.00  0.00    -0.338 N 
HETATM   15  C   UNL     1     -43.265  57.041 -56.167  1.00  0.00     0.273 C 
HETATM   16  O   UNL     1     -44.378  57.444 -55.842  1.00  0.00    -0.266 OA
HETATM   17  H   UNL     1     -41.467  56.263 -55.691  1.00  0.00     0.164 HD
BRANCH  15  18
HETATM   18  C   UNL     1     -42.816  56.957 -57.565  1.00  0.00     0.145 A 
HETATM   19  N   UNL     1     -42.014  57.895 -58.113  1.00  0.00    -0.170 NA
HETATM   20  N   UNL     1     -41.821  57.464 -59.373  1.00  0.00    -0.289 N 
HETATM   21  H   UNL     1     -41.235  58.018 -59.989  1.00  0.00     0.188 HD
HETATM   22  C   UNL     1     -42.463  56.296 -59.654  1.00  0.00     0.112 A 
HETATM   23  C   UNL     1     -43.119  55.937 -58.501  1.00  0.00     0.058 A 
ENDBRANCH  15  18
ENDBRANCH   1  14
BRANCH   1  24
HETATM   24  C   UNL     1     -41.722  57.425 -52.946  1.00  0.00    -0.026 A 
HETATM   25  C   UNL     1     -40.604  58.139 -53.408  1.00  0.00     0.010 A 
HETATM   26  C   UNL     1     -39.919  59.028 -52.572  1.00  0.00     0.001 A 
HETATM   27  C   UNL     1     -40.355  59.242 -51.268  1.00  0.00     0.000 A 
HETATM   28  C   UNL     1     -41.484  58.579 -50.801  1.00  0.00     0.001 A 
HETATM   29  C   UNL     1     -42.165  57.688 -51.635  1.00  0.00     0.010 A 
ENDBRANCH   1  24
TORSDOF 5
ENDMDL
MODEL 3
REMARK VINA RESULT:      -7.8      2.081      2.995
REMARK  5 active torsions:
REMARK  status: ('A' for Active; 'I' for Inactive)
REMARK    1  A    between atoms: C_3  and  N_4 
REMARK       I    between atoms: N_4  and  C_5 
REMARK    2  A    between atoms: C_5  and  C_6 
REMARK    3  A    between atoms: C_6  and  N_7 
REMARK    4  A    between atoms: C_6  and  C_16 
REMARK       I    between atoms: N_7  and  C_8 
REMARK    5  A    between atoms: C_8  and  C_9 
ROOT
HETATM    1  C   UNL     1     -43.673  56.597 -54.117  1.00  0.00     0.210 C 
ENDROOT
BRANCH   1   2
HETATM    2  C   UNL     1     -42.463  56.004 -53.323  1.00  0.00     0.249 C 
HETATM    3  N   UNL     1     -42.606  54.669 -52.981  1.00  0.00    -0.324 N 
HETATM    4  H   UNL     1     -43.418  54.225 -53.410  1.00  0.00     0.169 HD
HETATM    5  O   UNL     1     -41.430  56.664 -53.209  1.00  0.00    -0.270 OA
BRANCH   3   6
HETATM    6  C   UNL     1     -41.615  53.784 -52.490  1.00  0.00     0.046 A 
HETATM    7  C   UNL     1     -40.704  53.076 -53.303  1.00  0.00    -0.035 A 
HETATM    8  C   UNL     1     -40.580  53.235 -54.793  1.00  0.00     0.050 C 
HETATM    9  C   UNL     1     -39.800  52.177 -52.701  1.00  0.00     0.009 A 
HETATM   10  C   UNL     1     -39.742  52.024 -51.320  1.00  0.00     0.001 A 
HETATM   11  C   UNL     1     -40.589  52.768 -50.513  1.00  0.00     0.009 A 
HETATM   12  C   UNL     1     -41.529  53.646 -51.078  1.00  0.00    -0.035 A 
HETATM   13  C   UNL     1     -42.433  54.398 -50.132  1.00  0.00     0.050 C 
ENDBRANCH   3   6
ENDBRANCH   1   2
BRANCH   1  14
HETATM   14  N   UNL     1     -43.384  56.860 -55.524  1.00  0.00    -0.338 N 
HETATM   15  C   UNL     1     -43.104  55.928 -56.491  1.00  0.00     0.273 C 
HETATM   16  O   UNL     1     -43.170  54.717 -56.304  1.00  0.00    -0.266 OA
HETATM   17  H   UNL     1     -43.236  57.823 -55.814  1.00  0.00     0.164 HD
BRANCH  15  18
HETATM   18  C   UNL     1     -42.705  56.524 -57.775  1.00  0.00     0.145 A 
HETATM   19  N   UNL     1     -42.073  57.715 -57.841  1.00  0.00    -0.170 NA
HETATM   20  N   UNL     1     -41.870  57.904 -59.158  1.00  0.00    -0.289 N 
HETATM   21  H   UNL     1     -41.398  58.752 -59.456  1.00  0.00     0.188 HD
HETATM   22  C   UNL     1     -42.342  56.890 -59.933  1.00  0.00     0.112 A 
HETATM   23  C   UNL     1     -42.890  55.974 -59.068  1.00  0.00     0.058 A 
ENDBRANCH  15  18
ENDBRANCH   1  14
BRANCH   1  24
HETATM   24  C   UNL     1     -44.369  57.734 -53.363  1.00  0.00    -0.026 A 
HETATM   25  C   UNL     1     -44.844  58.891 -54.001  1.00  0.00     0.010 A 
HETATM   26  C   UNL     1     -45.477  59.908 -53.278  1.00  0.00     0.001 A 
HETATM   27  C   UNL     1     -45.672  59.775 -51.906  1.00  0.00     0.000 A 
HETATM   28  C   UNL     1     -45.247  58.622 -51.258  1.00  0.00     0.001 A 
HETATM   29  C   UNL     1     -44.611  57.609 -51.981  1.00  0.00     0.010 A 
ENDBRANCH   1  24
TORSDOF 5
ENDMDL
MODEL 4
REMARK VINA RESULT:      -7.6      2.368      5.096
REMARK  5 active torsions:
REMARK  status: ('A' for Active; 'I' for Inactive)
REMARK    1  A    between atoms: C_3  and  N_4 
REMARK       I    between atoms: N_4  and  C_5 
REMARK    2  A    between atoms: C_5  and  C_6 
REMARK    3  A    between atoms: C_6  and  N_7 
REMARK    4  A    between atoms: C_6  and  C_16 
REMARK       I    between atoms: N_7  and  C_8 
REMARK    5  A    between atoms: C_8  and  C_9 
ROOT
HETATM    1  C   UNL     1     -42.672  56.704 -54.189  1.00  0.00     0.210 C 
ENDROOT
BRANCH   1   2
HETATM    2  C   UNL     1     -42.477  55.240 -53.674  1.00  0.00     0.249 C 
HETATM    3  N   UNL     1     -41.213  54.979 -53.170  1.00  0.00    -0.324 N 
HETATM    4  H   UNL     1     -40.632  55.812 -53.081  1.00  0.00     0.169 HD
HETATM    5  O   UNL     1     -43.452  54.494 -53.581  1.00  0.00    -0.270 OA
BRANCH   3   6
HETATM    6  C   UNL     1     -40.791  53.856 -52.416  1.00  0.00     0.046 A 
HETATM    7  C   UNL     1     -40.911  53.745 -51.014  1.00  0.00    -0.035 A 
HETATM    8  C   UNL     1     -41.598  54.748 -50.130  1.00  0.00     0.050 C 
HETATM    9  C   UNL     1     -40.399  52.601 -50.369  1.00  0.00     0.009 A 
HETATM   10  C   UNL     1     -39.840  51.552 -51.090  1.00  0.00     0.001 A 
HETATM   11  C   UNL     1     -39.780  51.627 -52.473  1.00  0.00     0.009 A 
HETATM   12  C   UNL     1     -40.246  52.767 -53.149  1.00  0.00    -0.035 A 
HETATM   13  C   UNL     1     -40.119  52.782 -54.653  1.00  0.00     0.050 C 
ENDBRANCH   3   6
ENDBRANCH   1   2
BRANCH   1  14
HETATM   14  N   UNL     1     -43.383  57.569 -53.251  1.00  0.00    -0.338 N 
HETATM   15  C   UNL     1     -42.899  58.068 -52.068  1.00  0.00     0.273 C 
HETATM   16  O   UNL     1     -41.737  57.925 -51.698  1.00  0.00    -0.266 OA
HETATM   17  H   UNL     1     -44.378  57.724 -53.395  1.00  0.00     0.164 HD
BRANCH  15  18
HETATM   18  C   UNL     1     -43.914  58.780 -51.278  1.00  0.00     0.145 A 
HETATM   19  N   UNL     1     -45.004  58.153 -50.787  1.00  0.00    -0.170 NA
HETATM   20  N   UNL     1     -45.667  59.119 -50.126  1.00  0.00    -0.289 N 
HETATM   21  H   UNL     1     -46.537  58.877 -49.662  1.00  0.00     0.188 HD
HETATM   22  C   UNL     1     -45.050  60.332 -50.171  1.00  0.00     0.112 A 
HETATM   23  C   UNL     1     -43.907  60.150 -50.911  1.00  0.00     0.058 A 
ENDBRANCH  15  18
ENDBRANCH   1  14
BRANCH   1  24
HETATM   24  C   UNL     1     -43.168  56.755 -55.637  1.00  0.00    -0.026 A 
HETATM   25  C   UNL     1     -44.039  57.751 -56.109  1.00  0.00     0.010 A 
HETATM   26  C   UNL     1     -44.467  57.765 -57.441  1.00  0.00     0.001 A 
HETATM   27  C   UNL     1     -44.010  56.802 -58.334  1.00  0.00     0.000 A 
HETATM   28  C   UNL     1     -43.114  55.830 -57.902  1.00  0.00     0.001 A 
HETATM   29  C   UNL     1     -42.691  55.814 -56.571  1.00  0.00     0.010 A 
ENDBRANCH   1  24
TORSDOF 5
ENDMDL
MODEL 5
REMARK VINA RESULT:      -7.6      2.613      5.581
REMARK  5 active torsions:
REMARK  status: ('A' for Active; 'I' for Inactive)
REMARK    1  A    between atoms: C_3  and  N_4 
REMARK       I    between atoms: N_4  and  C_5 
REMARK    2  A    between atoms: C_5  and  C_6 
REMARK    3  A    between atoms: C_6  and  N_7 
REMARK    4  A    between atoms: C_6  and  C_16 
REMARK       I    between atoms: N_7  and  C_8 
REMARK    5  A    between atoms: C_8  and  C_9 
ROOT
HETATM    1  C   UNL     1     -41.699  56.280 -55.374  1.00  0.00     0.210 C 
ENDROOT
BRANCH   1   2
HETATM    2  C   UNL     1     -42.239  57.432 -54.464  1.00  0.00     0.249 C 
HETATM    3  N   UNL     1     -43.597  57.359 -54.201  1.00  0.00    -0.324 N 
HETATM    4  H   UNL     1     -44.027  56.493 -54.525  1.00  0.00     0.169 HD
HETATM    5  O   UNL     1     -41.444  58.195 -53.914  1.00  0.00    -0.270 OA
BRANCH   3   6
HETATM    6  C   UNL     1     -44.337  58.085 -53.236  1.00  0.00     0.046 A 
HETATM    7  C   UNL     1     -44.491  57.694 -51.889  1.00  0.00    -0.035 A 
HETATM    8  C   UNL     1     -43.808  56.514 -51.254  1.00  0.00     0.050 C 
HETATM    9  C   UNL     1     -45.303  58.470 -51.036  1.00  0.00     0.009 A 
HETATM   10  C   UNL     1     -45.900  59.646 -51.476  1.00  0.00     0.001 A 
HETATM   11  C   UNL     1     -45.697  60.069 -52.780  1.00  0.00     0.009 A 
HETATM   12  C   UNL     1     -44.926  59.304 -53.671  1.00  0.00    -0.035 A 
HETATM   13  C   UNL     1     -44.776  59.821 -55.081  1.00  0.00     0.050 C 
ENDBRANCH   3   6
ENDBRANCH   1   2
BRANCH   1  14
HETATM   14  N   UNL     1     -42.560  55.976 -56.514  1.00  0.00    -0.338 N 
HETATM   15  C   UNL     1     -42.735  56.746 -57.636  1.00  0.00     0.273 C 
HETATM   16  O   UNL     1     -42.088  57.762 -57.868  1.00  0.00    -0.266 OA
HETATM   17  H   UNL     1     -43.204  55.194 -56.437  1.00  0.00     0.164 HD
BRANCH  15  18
HETATM   18  C   UNL     1     -43.786  56.239 -58.531  1.00  0.00     0.145 A 
HETATM   19  N   UNL     1     -44.938  56.915 -58.731  1.00  0.00    -0.170 NA
HETATM   20  N   UNL     1     -45.618  56.151 -59.605  1.00  0.00    -0.289 N 
HETATM   21  H   UNL     1     -46.533  56.465 -59.911  1.00  0.00     0.188 HD
HETATM   22  C   UNL     1     -44.954  55.020 -59.972  1.00  0.00     0.112 A 
HETATM   23  C   UNL     1     -43.759  55.045 -59.294  1.00  0.00     0.058 A 
ENDBRANCH  15  18
ENDBRANCH   1  14
BRANCH   1  24
HETATM   24  C   UNL     1     -41.223  55.069 -54.567  1.00  0.00    -0.026 A 
HETATM   25  C   UNL     1     -41.429  54.948 -53.183  1.00  0.00     0.010 A 
HETATM   26  C   UNL     1     -40.981  53.823 -52.481  1.00  0.00     0.001 A 
HETATM   27  C   UNL     1     -40.344  52.785 -53.153  1.00  0.00     0.000 A 
HETATM   28  C   UNL     1     -40.166  52.862 -54.529  1.00  0.00     0.001 A 
HETATM   29  C   UNL     1     -40.608  53.988 -55.229  1.00  0.00     0.010 A 
ENDBRANCH   1  24
TORSDOF 5
ENDMDL
MODEL 6
REMARK VINA RESULT:      -7.5      2.852      5.969
REMARK  5 active torsions:
REMARK  status: ('A' for Active; 'I' for Inactive)
REMARK    1  A    between atoms: C_3  and  N_4 
REMARK       I    between atoms: N_4  and  C_5 
REMARK    2  A    between atoms: C_5  and  C_6 
REMARK    3  A    between atoms: C_6  and  N_7 
REMARK    4  A    between atoms: C_6  and  C_16 
REMARK       I    between atoms: N_7  and  C_8 
REMARK    5  A    between atoms: C_8  and  C_9 
ROOT
HETATM    1  C   UNL     1     -43.062  56.256 -55.460  1.00  0.00     0.210 C 
ENDROOT
BRANCH   1   2
HETATM    2  C   UNL     1     -44.191  56.793 -54.519  1.00  0.00     0.249 C 
HETATM    3  N   UNL     1     -43.790  57.815 -53.675  1.00  0.00    -0.324 N 
HETATM    4  H   UNL     1     -42.854  58.165 -53.878  1.00  0.00     0.169 HD
HETATM    5  O   UNL     1     -45.353  56.425 -54.695  1.00  0.00    -0.270 OA
BRANCH   3   6
HETATM    6  C   UNL     1     -44.605  58.669 -52.893  1.00  0.00     0.046 A 
HETATM    7  C   UNL     1     -45.197  59.860 -53.365  1.00  0.00    -0.035 A 
HETATM    8  C   UNL     1     -45.139  60.341 -54.789  1.00  0.00     0.050 C 
HETATM    9  C   UNL     1     -45.941  60.659 -52.473  1.00  0.00     0.009 A 
HETATM   10  C   UNL     1     -46.159  60.266 -51.158  1.00  0.00     0.001 A 
HETATM   11  C   UNL     1     -45.636  59.064 -50.707  1.00  0.00     0.009 A 
HETATM   12  C   UNL     1     -44.858  58.258 -51.555  1.00  0.00    -0.035 A 
HETATM   13  C   UNL     1     -44.302  56.978 -50.980  1.00  0.00     0.050 C 
ENDBRANCH   3   6
ENDBRANCH   1   2
BRANCH   1  14
HETATM   14  N   UNL     1     -43.521  55.941 -56.810  1.00  0.00    -0.338 N 
HETATM   15  C   UNL     1     -43.157  56.581 -57.968  1.00  0.00     0.273 C 
HETATM   16  O   UNL     1     -42.296  57.454 -58.018  1.00  0.00    -0.266 OA
HETATM   17  H   UNL     1     -44.283  55.278 -56.919  1.00  0.00     0.164 HD
BRANCH  15  18
HETATM   18  C   UNL     1     -43.911  56.126 -59.146  1.00  0.00     0.145 A 
HETATM   19  N   UNL     1     -44.441  56.996 -60.032  1.00  0.00    -0.170 NA
HETATM   20  N   UNL     1     -45.027  56.209 -60.952  1.00  0.00    -0.289 N 
HETATM   21  H   UNL     1     -45.499  56.650 -61.735  1.00  0.00     0.188 HD
HETATM   22  C   UNL     1     -44.896  54.878 -60.695  1.00  0.00     0.112 A 
HETATM   23  C   UNL     1     -44.175  54.787 -59.529  1.00  0.00     0.058 A 
ENDBRANCH  15  18
ENDBRANCH   1  14
BRANCH   1  24
HETATM   24  C   UNL     1     -42.201  55.182 -54.789  1.00  0.00    -0.026 A 
HETATM   25  C   UNL     1     -42.553  54.575 -53.572  1.00  0.00     0.010 A 
HETATM   26  C   UNL     1     -41.740  53.594 -52.992  1.00  0.00     0.001 A 
HETATM   27  C   UNL     1     -40.576  53.180 -53.632  1.00  0.00     0.000 A 
HETATM   28  C   UNL     1     -40.228  53.736 -54.857  1.00  0.00     0.001 A 
HETATM   29  C   UNL     1     -41.037  54.719 -55.433  1.00  0.00     0.010 A 
ENDBRANCH   1  24
TORSDOF 5
ENDMDL
MODEL 7
REMARK VINA RESULT:      -7.4      2.150      5.701
REMARK  5 active torsions:
REMARK  status: ('A' for Active; 'I' for Inactive)
REMARK    1  A    between atoms: C_3  and  N_4 
REMARK       I    between atoms: N_4  and  C_5 
REMARK    2  A    between atoms: C_5  and  C_6 
REMARK    3  A    between atoms: C_6  and  N_7 
REMARK    4  A    between atoms: C_6  and  C_16 
REMARK       I    between atoms: N_7  and  C_8 
REMARK    5  A    between atoms: C_8  and  C_9 
ROOT
HETATM    1  C   UNL     1     -41.535  56.206 -54.592  1.00  0.00     0.210 C 
ENDROOT
BRANCH   1   2
HETATM    2  C   UNL     1     -42.228  57.098 -53.511  1.00  0.00     0.249 C 
HETATM    3  N   UNL     1     -41.556  58.277 -53.229  1.00  0.00    -0.324 N 
HETATM    4  H   UNL     1     -40.778  58.461 -53.862  1.00  0.00     0.169 HD
HETATM    5  O   UNL     1     -43.360  56.810 -53.121  1.00  0.00    -0.270 OA
BRANCH   3   6
HETATM    6  C   UNL     1     -42.028  59.395 -52.500  1.00  0.00     0.046 A 
HETATM    7  C   UNL     1     -42.838  60.417 -53.041  1.00  0.00    -0.035 A 
HETATM    8  C   UNL     1     -43.407  60.415 -54.432  1.00  0.00     0.050 C 
HETATM    9  C   UNL     1     -43.196  61.512 -52.228  1.00  0.00     0.009 A 
HETATM   10  C   UNL     1     -42.824  61.575 -50.891  1.00  0.00     0.001 A 
HETATM   11  C   UNL     1     -42.084  60.541 -50.337  1.00  0.00     0.009 A 
HETATM   12  C   UNL     1     -41.677  59.451 -51.123  1.00  0.00    -0.035 A 
HETATM   13  C   UNL     1     -40.851  58.381 -50.452  1.00  0.00     0.050 C 
ENDBRANCH   3   6
ENDBRANCH   1   2
BRANCH   1  14
HETATM   14  N   UNL     1     -42.288  56.100 -55.839  1.00  0.00    -0.338 N 
HETATM   15  C   UNL     1     -42.556  57.114 -56.723  1.00  0.00     0.273 C 
HETATM   16  O   UNL     1     -42.092  58.245 -56.617  1.00  0.00    -0.266 OA
HETATM   17  H   UNL     1     -42.785  55.234 -56.030  1.00  0.00     0.164 HD
BRANCH  15  18
HETATM   18  C   UNL     1     -43.469  56.717 -57.805  1.00  0.00     0.145 A 
HETATM   19  N   UNL     1     -44.623  57.377 -58.042  1.00  0.00    -0.170 NA
HETATM   20  N   UNL     1     -45.156  56.734 -59.097  1.00  0.00    -0.289 N 
HETATM   21  H   UNL     1     -46.045  57.062 -59.463  1.00  0.00     0.188 HD
HETATM   22  C   UNL     1     -44.397  55.695 -59.543  1.00  0.00     0.112 A 
HETATM   23  C   UNL     1     -43.292  55.655 -58.728  1.00  0.00     0.058 A 
ENDBRANCH  15  18
ENDBRANCH   1  14
BRANCH   1  24
HETATM   24  C   UNL     1     -41.019  54.883 -54.019  1.00  0.00    -0.026 A 
HETATM   25  C   UNL     1     -40.942  54.630 -52.640  1.00  0.00     0.010 A 
HETATM   26  C   UNL     1     -40.467  53.406 -52.155  1.00  0.00     0.001 A 
HETATM   27  C   UNL     1     -40.088  52.401 -53.039  1.00  0.00     0.000 A 
HETATM   28  C   UNL     1     -40.194  52.612 -54.409  1.00  0.00     0.001 A 
HETATM   29  C   UNL     1     -40.663  53.836 -54.893  1.00  0.00     0.010 A 
ENDBRANCH   1  24
TORSDOF 5
ENDMDL
MODEL 8
REMARK VINA RESULT:      -7.4      2.315      5.334
REMARK  5 active torsions:
REMARK  status: ('A' for Active; 'I' for Inactive)
REMARK    1  A    between atoms: C_3  and  N_4 
REMARK       I    between atoms: N_4  and  C_5 
REMARK    2  A    between atoms: C_5  and  C_6 
REMARK    3  A    between atoms: C_6  and  N_7 
REMARK    4  A    between atoms: C_6  and  C_16 
REMARK       I    between atoms: N_7  and  C_8 
REMARK    5  A    between atoms: C_8  and  C_9 
ROOT
HETATM    1  C   UNL     1     -42.246  56.966 -54.300  1.00  0.00     0.210 C 
ENDROOT
BRANCH   1   2
HETATM    2  C   UNL     1     -42.171  55.508 -53.740  1.00  0.00     0.249 C 
HETATM    3  N   UNL     1     -40.956  55.182 -53.162  1.00  0.00    -0.324 N 
HETATM    4  H   UNL     1     -40.328  55.979 -53.062  1.00  0.00     0.169 HD
HETATM    5  O   UNL     1     -43.195  54.826 -53.683  1.00  0.00    -0.270 OA
BRANCH   3   6
HETATM    6  C   UNL     1     -40.646  54.056 -52.360  1.00  0.00     0.046 A 
HETATM    7  C   UNL     1     -40.308  52.783 -52.868  1.00  0.00    -0.035 A 
HETATM    8  C   UNL     1     -40.120  52.463 -54.325  1.00  0.00     0.050 C 
HETATM    9  C   UNL     1     -40.077  51.723 -51.967  1.00  0.00     0.009 A 
HETATM   10  C   UNL     1     -40.113  51.920 -50.591  1.00  0.00     0.001 A 
HETATM   11  C   UNL     1     -40.379  53.184 -50.088  1.00  0.00     0.009 A 
HETATM   12  C   UNL     1     -40.650  54.257 -50.953  1.00  0.00    -0.035 A 
HETATM   13  C   UNL     1     -40.959  55.595 -50.324  1.00  0.00     0.050 C 
ENDBRANCH   3   6
ENDBRANCH   1   2
BRANCH   1  14
HETATM   14  N   UNL     1     -42.689  57.952 -53.318  1.00  0.00    -0.338 N 
HETATM   15  C   UNL     1     -41.914  58.569 -52.369  1.00  0.00     0.273 C 
HETATM   16  O   UNL     1     -40.696  58.436 -52.299  1.00  0.00    -0.266 OA
HETATM   17  H   UNL     1     -43.687  58.119 -53.217  1.00  0.00     0.164 HD
BRANCH  15  18
HETATM   18  C   UNL     1     -42.689  59.396 -51.432  1.00  0.00     0.145 A 
HETATM   19  N   UNL     1     -43.955  59.081 -51.084  1.00  0.00    -0.170 NA
HETATM   20  N   UNL     1     -44.307  60.050 -50.219  1.00  0.00    -0.289 N 
HETATM   21  H   UNL     1     -45.237  60.021 -49.814  1.00  0.00     0.188 HD
HETATM   22  C   UNL     1     -43.324  60.967 -50.000  1.00  0.00     0.112 A 
HETATM   23  C   UNL     1     -42.258  60.573 -50.771  1.00  0.00     0.058 A 
ENDBRANCH  15  18
ENDBRANCH   1  14
BRANCH   1  24
HETATM   24  C   UNL     1     -42.939  57.037 -55.664  1.00  0.00    -0.026 A 
HETATM   25  C   UNL     1     -42.577  56.217 -56.745  1.00  0.00     0.010 A 
HETATM   26  C   UNL     1     -43.236  56.309 -57.976  1.00  0.00     0.001 A 
HETATM   27  C   UNL     1     -44.291  57.202 -58.140  1.00  0.00     0.000 A 
HETATM   28  C   UNL     1     -44.695  57.995 -57.073  1.00  0.00     0.001 A 
HETATM   29  C   UNL     1     -44.032  57.906 -55.846  1.00  0.00     0.010 A 
ENDBRANCH   1  24
TORSDOF 5
ENDMDL
MODEL 9
REMARK VINA RESULT:      -7.3      2.175      7.001
REMARK  5 active torsions:
REMARK  status: ('A' for Active; 'I' for Inactive)
REMARK    1  A    between atoms: C_3  and  N_4 
REMARK       I    between atoms: N_4  and  C_5 
REMARK    2  A    between atoms: C_5  and  C_6 
REMARK    3  A    between atoms: C_6  and  N_7 
REMARK    4  A    between atoms: C_6  and  C_16 
REMARK       I    between atoms: N_7  and  C_8 
REMARK    5  A    between atoms: C_8  and  C_9 
ROOT
HETATM    1  C   UNL     1     -41.803  54.994 -53.513  1.00  0.00     0.210 C 
ENDROOT
BRANCH   1   2
HETATM    2  C   UNL     1     -41.619  55.442 -55.000  1.00  0.00     0.249 C 
HETATM    3  N   UNL     1     -42.593  56.316 -55.456  1.00  0.00    -0.324 N 
HETATM    4  H   UNL     1     -43.215  56.650 -54.719  1.00  0.00     0.169 HD
HETATM    5  O   UNL     1     -40.581  55.155 -55.597  1.00  0.00    -0.270 OA
BRANCH   3   6
HETATM    6  C   UNL     1     -42.585  57.086 -56.644  1.00  0.00     0.046 A 
HETATM    7  C   UNL     1     -42.884  56.578 -57.927  1.00  0.00    -0.035 A 
HETATM    8  C   UNL     1     -43.358  55.179 -58.206  1.00  0.00     0.050 C 
HETATM    9  C   UNL     1     -42.785  57.432 -59.044  1.00  0.00     0.009 A 
HETATM   10  C   UNL     1     -42.462  58.777 -58.902  1.00  0.00     0.001 A 
HETATM   11  C   UNL     1     -42.233  59.296 -57.638  1.00  0.00     0.009 A 
HETATM   12  C   UNL     1     -42.286  58.469 -56.503  1.00  0.00    -0.035 A 
HETATM   13  C   UNL     1     -41.997  59.106 -55.166  1.00  0.00     0.050 C 
ENDBRANCH   3   6
ENDBRANCH   1   2
BRANCH   1  14
HETATM   14  N   UNL     1     -41.671  56.084 -52.549  1.00  0.00    -0.338 N 
HETATM   15  C   UNL     1     -42.645  56.981 -52.189  1.00  0.00     0.273 C 
HETATM   16  O   UNL     1     -43.809  56.906 -52.570  1.00  0.00    -0.266 OA
HETATM   17  H   UNL     1     -40.744  56.306 -52.195  1.00  0.00     0.164 HD
BRANCH  15  18
HETATM   18  C   UNL     1     -42.153  58.051 -51.309  1.00  0.00     0.145 A 
HETATM   19  N   UNL     1     -42.887  59.154 -51.050  1.00  0.00    -0.170 NA
HETATM   20  N   UNL     1     -42.116  59.872 -50.213  1.00  0.00    -0.289 N 
HETATM   21  H   UNL     1     -42.469  60.761 -49.873  1.00  0.00     0.188 HD
HETATM   22  C   UNL     1     -40.924  59.278 -49.926  1.00  0.00     0.112 A 
HETATM   23  C   UNL     1     -40.914  58.093 -50.621  1.00  0.00     0.058 A 
ENDBRANCH  15  18
ENDBRANCH   1  14
BRANCH   1  24
HETATM   24  C   UNL     1     -41.017  53.723 -53.181  1.00  0.00    -0.026 A 
HETATM   25  C   UNL     1     -40.390  53.517 -51.942  1.00  0.00     0.010 A 
HETATM   26  C   UNL     1     -39.682  52.339 -51.676  1.00  0.00     0.001 A 
HETATM   27  C   UNL     1     -39.612  51.332 -52.633  1.00  0.00     0.000 A 
HETATM   28  C   UNL     1     -40.260  51.494 -53.852  1.00  0.00     0.001 A 
HETATM   29  C   UNL     1     -40.962  52.672 -54.119  1.00  0.00     0.010 A 
ENDBRANCH   1  24
TORSDOF 5
ENDMDL
MODEL 10
REMARK VINA RESULT:      -7.3      2.367      6.895
REMARK  5 active torsions:
REMARK  status: ('A' for Active; 'I' for Inactive)
REMARK    1  A    between atoms: C_3  and  N_4 
REMARK       I    between atoms: N_4  and  C_5 
REMARK    2  A    between atoms: C_5  and  C_6 
REMARK    3  A    between atoms: C_6  and  N_7 
REMARK    4  A    between atoms: C_6  and  C_16 
REMARK       I    between atoms: N_7  and  C_8 
REMARK    5  A    between atoms: C_8  and  C_9 
ROOT
HETATM    1  C   UNL     1     -42.946  54.374 -54.552  1.00  0.00     0.210 C 
ENDROOT
BRANCH   1   2
HETATM    2  C   UNL     1     -42.507  54.903 -55.957  1.00  0.00     0.249 C 
HETATM    3  N   UNL     1     -43.538  55.443 -56.708  1.00  0.00    -0.324 N 
HETATM    4  H   UNL     1     -44.409  55.544 -56.188  1.00  0.00     0.169 HD
HETATM    5  O   UNL     1     -41.309  54.973 -56.232  1.00  0.00    -0.270 OA
BRANCH   3   6
HETATM    6  C   UNL     1     -43.440  56.215 -57.892  1.00  0.00     0.046 A 
HETATM    7  C   UNL     1     -43.002  57.556 -57.937  1.00  0.00    -0.035 A 
HETATM    8  C   UNL     1     -42.474  58.326 -56.758  1.00  0.00     0.050 C 
HETATM    9  C   UNL     1     -43.005  58.239 -59.171  1.00  0.00     0.009 A 
HETATM   10  C   UNL     1     -43.367  57.601 -60.351  1.00  0.00     0.001 A 
HETATM   11  C   UNL     1     -43.734  56.265 -60.322  1.00  0.00     0.009 A 
HETATM   12  C   UNL     1     -43.780  55.560 -59.108  1.00  0.00    -0.035 A 
HETATM   13  C   UNL     1     -44.216  54.116 -59.158  1.00  0.00     0.050 C 
ENDBRANCH   3   6
ENDBRANCH   1   2
BRANCH   1  14
HETATM   14  N   UNL     1     -43.588  55.385 -53.716  1.00  0.00    -0.338 N 
HETATM   15  C   UNL     1     -43.042  56.576 -53.306  1.00  0.00     0.273 C 
HETATM   16  O   UNL     1     -41.954  56.991 -53.692  1.00  0.00    -0.266 OA
HETATM   17  H   UNL     1     -44.471  55.153 -53.270  1.00  0.00     0.164 HD
BRANCH  15  18
HETATM   18  C   UNL     1     -43.886  57.302 -52.345  1.00  0.00     0.145 A 
HETATM   19  N   UNL     1     -43.935  56.960 -51.040  1.00  0.00    -0.170 NA
HETATM   20  N   UNL     1     -44.788  57.850 -50.501  1.00  0.00    -0.289 N 
HETATM   21  H   UNL     1     -44.985  57.790 -49.507  1.00  0.00     0.188 HD
HETATM   22  C   UNL     1     -45.285  58.743 -51.401  1.00  0.00     0.112 A 
HETATM   23  C   UNL     1     -44.720  58.417 -52.610  1.00  0.00     0.058 A 
ENDBRANCH  15  18
ENDBRANCH   1  14
BRANCH   1  24
HETATM   24  C   UNL     1     -41.851  53.551 -53.867  1.00  0.00    -0.026 A 
HETATM   25  C   UNL     1     -41.416  53.805 -52.556  1.00  0.00     0.010 A 
HETATM   26  C   UNL     1     -40.414  53.028 -51.963  1.00  0.00     0.001 A 
HETATM   27  C   UNL     1     -39.848  51.964 -52.658  1.00  0.00     0.000 A 
HETATM   28  C   UNL     1     -40.292  51.666 -53.942  1.00  0.00     0.001 A 
HETATM   29  C   UNL     1     -41.288  52.446 -54.535  1.00  0.00     0.010 A 
ENDBRANCH   1  24
TORSDOF 5
ENDMDL
