MODEL 1
REMARK VINA RESULT:      -8.2      0.000      0.000
REMARK  10 active torsions:
REMARK  status: ('A' for Active; 'I' for Inactive)
REMARK    1  A    between atoms: C_2  and  N_3 
REMARK    2  A    between atoms: N_3  and  C_5 
REMARK    3  A    between atoms: N_3  and  C_34 
REMARK    4  A    between atoms: C_5  and  C_6 
REMARK    5  A    between atoms: C_6  and  C_7 
REMARK    6  A    between atoms: C_7  and  N_8 
REMARK       I    between atoms: N_8  and  C_9 
REMARK    7  A    between atoms: C_9  and  C_10 
REMARK    8  A    between atoms: N_16  and  C_17 
REMARK    9  A    between atoms: C_17  and  C_18 
REMARK       I    between atoms: C_18  and  N_19 
REMARK   10  A    between atoms: N_19  and  C_20 
ROOT
HETATM    1  C   UNL     1     -43.559  59.440 -54.773  1.00  0.00     0.081 A 
HETATM    2  S   UNL     1     -42.141  60.266 -54.277  1.00  0.00    -0.063 SA
HETATM    3  C   UNL     1     -41.807  59.117 -53.073  1.00  0.00     0.116 A 
HETATM    4  C   UNL     1     -42.762  58.123 -53.026  1.00  0.00     0.075 A 
HETATM    5  C   UNL     1     -42.626  57.119 -51.978  1.00  0.00     0.262 A 
HETATM    6  O   UNL     1     -43.433  56.205 -51.824  1.00  0.00    -0.267 OA
HETATM    7  N   UNL     1     -41.535  57.318 -51.138  1.00  0.00    -0.299 N 
HETATM    8  C   UNL     1     -40.626  58.338 -51.355  1.00  0.00     0.214 A 
HETATM    9  N   UNL     1     -40.719  59.243 -52.276  1.00  0.00    -0.235 NA
HETATM   10  C   UNL     1     -43.771  58.273 -54.048  1.00  0.00    -0.021 A 
HETATM   11  C   UNL     1     -44.923  57.338 -54.255  1.00  0.00     0.051 C 
ENDROOT
BRANCH   1  12
HETATM   12  C   UNL     1     -44.331  59.989 -55.872  1.00  0.00     0.259 C 
HETATM   13  N   UNL     1     -43.828  59.704 -57.129  1.00  0.00    -0.356 N 
HETATM   14  H   UNL     1     -42.934  59.224 -57.177  1.00  0.00     0.162 HD
HETATM   15  O   UNL     1     -45.371  60.630 -55.738  1.00  0.00    -0.267 OA
BRANCH  13  16
HETATM   16  C   UNL     1     -44.442  60.192 -58.343  1.00  0.00     0.124 C 
BRANCH  16  17
HETATM   17  C   UNL     1     -44.747  59.061 -59.328  1.00  0.00     0.047 C 
BRANCH  17  18
HETATM   18  C   UNL     1     -45.612  57.969 -58.703  1.00  0.00     0.236 C 
BRANCH  18  19
HETATM   19  N   UNL     1     -44.988  56.582 -58.809  1.00  0.00    -0.072 N 
HETATM   20  H   UNL     1     -45.341  56.077 -57.984  1.00  0.00     0.279 HD
BRANCH  19  21
HETATM   21  C   UNL     1     -43.473  56.546 -58.678  1.00  0.00     0.230 C 
HETATM   22  C   UNL     1     -43.034  56.176 -57.273  1.00  0.00     0.034 C 
ENDBRANCH  19  21
BRANCH  19  23
HETATM   23  C   UNL     1     -45.438  55.763 -60.006  1.00  0.00     0.230 C 
HETATM   24  C   UNL     1     -44.897  54.347 -59.950  1.00  0.00     0.034 C 
ENDBRANCH  19  23
ENDBRANCH  18  19
ENDBRANCH  17  18
ENDBRANCH  16  17
ENDBRANCH  13  16
ENDBRANCH   1  12
BRANCH   7  25
HETATM   25  C   UNL     1     -41.368  56.434 -49.998  1.00  0.00     0.236 C 
BRANCH  25  26
HETATM   26  C   UNL     1     -40.545  55.192 -50.356  1.00  0.00     0.240 C 
HETATM   27  N   UNL     1     -40.866  54.699 -51.612  1.00  0.00    -0.326 N 
HETATM   28  H   UNL     1     -41.437  55.288 -52.208  1.00  0.00     0.169 HD
HETATM   29  O   UNL     1     -39.776  54.684 -49.546  1.00  0.00    -0.271 OA
BRANCH  27  30
HETATM   30  C   UNL     1     -40.464  53.474 -52.187  1.00  0.00     0.036 A 
HETATM   31  C   UNL     1     -40.050  52.361 -51.457  1.00  0.00     0.053 A 
HETATM   32  C   UNL     1     -39.713  51.168 -52.114  1.00  0.00     0.042 A 
HETATM   33 CL   UNL     1     -39.227  49.823 -51.143  1.00  0.00    -0.084 Cl
HETATM   34  C   UNL     1     -39.780  51.070 -53.512  1.00  0.00    -0.040 A 
HETATM   35  C   UNL     1     -39.444  49.799 -54.241  1.00  0.00     0.050 C 
HETATM   36  C   UNL     1     -40.189  52.194 -54.239  1.00  0.00     0.011 A 
HETATM   37  C   UNL     1     -40.528  53.381 -53.583  1.00  0.00     0.030 A 
ENDBRANCH  27  30
ENDBRANCH  25  26
ENDBRANCH   7  25
TORSDOF 10
ENDMDL
MODEL 2
REMARK VINA RESULT:      -7.7      4.440      7.424
REMARK  10 active torsions:
REMARK  status: ('A' for Active; 'I' for Inactive)
REMARK    1  A    between atoms: C_2  and  N_3 
REMARK    2  A    between atoms: N_3  and  C_5 
REMARK    3  A    between atoms: N_3  and  C_34 
REMARK    4  A    between atoms: C_5  and  C_6 
REMARK    5  A    between atoms: C_6  and  C_7 
REMARK    6  A    between atoms: C_7  and  N_8 
REMARK       I    between atoms: N_8  and  C_9 
REMARK    7  A    between atoms: C_9  and  C_10 
REMARK    8  A    between atoms: N_16  and  C_17 
REMARK    9  A    between atoms: C_17  and  C_18 
REMARK       I    between atoms: C_18  and  N_19 
REMARK   10  A    between atoms: N_19  and  C_20 
ROOT
HETATM    1  C   UNL     1     -44.700  61.116 -51.503  1.00  0.00     0.081 A 
HETATM    2  S   UNL     1     -45.806  60.659 -52.730  1.00  0.00    -0.063 SA
HETATM    3  C   UNL     1     -44.793  59.412 -53.277  1.00  0.00     0.116 A 
HETATM    4  C   UNL     1     -43.619  59.345 -52.558  1.00  0.00     0.075 A 
HETATM    5  C   UNL     1     -42.631  58.362 -52.986  1.00  0.00     0.262 A 
HETATM    6  O   UNL     1     -41.539  58.234 -52.437  1.00  0.00    -0.267 OA
HETATM    7  N   UNL     1     -43.012  57.622 -54.101  1.00  0.00    -0.299 N 
HETATM    8  C   UNL     1     -44.259  57.768 -54.679  1.00  0.00     0.214 A 
HETATM    9  N   UNL     1     -45.157  58.629 -54.321  1.00  0.00    -0.235 NA
HETATM   10  C   UNL     1     -43.570  60.308 -51.483  1.00  0.00    -0.021 A 
HETATM   11  C   UNL     1     -42.431  60.459 -50.522  1.00  0.00     0.051 C 
ENDROOT
BRANCH   1  12
HETATM   12  C   UNL     1     -45.057  62.216 -50.626  1.00  0.00     0.259 C 
HETATM   13  N   UNL     1     -46.085  61.939 -49.743  1.00  0.00    -0.356 N 
HETATM   14  H   UNL     1     -46.555  61.044 -49.839  1.00  0.00     0.162 HD
HETATM   15  O   UNL     1     -44.491  63.307 -50.615  1.00  0.00    -0.267 OA
BRANCH  13  16
HETATM   16  C   UNL     1     -46.599  62.919 -48.814  1.00  0.00     0.124 C 
BRANCH  16  17
HETATM   17  C   UNL     1     -46.640  62.386 -47.379  1.00  0.00     0.047 C 
BRANCH  17  18
HETATM   18  C   UNL     1     -45.242  62.132 -46.819  1.00  0.00     0.236 C 
BRANCH  18  19
HETATM   19  N   UNL     1     -45.035  60.689 -46.373  1.00  0.00    -0.072 N 
HETATM   20  H   UNL     1     -44.321  60.320 -47.017  1.00  0.00     0.279 HD
BRANCH  19  21
HETATM   21  C   UNL     1     -46.240  59.779 -46.555  1.00  0.00     0.230 C 
HETATM   22  C   UNL     1     -46.575  59.019 -45.284  1.00  0.00     0.034 C 
ENDBRANCH  19  21
BRANCH  19  23
HETATM   23  C   UNL     1     -44.447  60.522 -44.983  1.00  0.00     0.230 C 
HETATM   24  C   UNL     1     -44.340  61.849 -44.258  1.00  0.00     0.034 C 
ENDBRANCH  19  23
ENDBRANCH  18  19
ENDBRANCH  17  18
ENDBRANCH  16  17
ENDBRANCH  13  16
ENDBRANCH   1  12
BRANCH   7  25
HETATM   25  C   UNL     1     -42.056  56.689 -54.672  1.00  0.00     0.236 C 
BRANCH  25  26
HETATM   26  C   UNL     1     -42.123  55.318 -53.991  1.00  0.00     0.240 C 
HETATM   27  N   UNL     1     -40.882  54.904 -53.530  1.00  0.00    -0.326 N 
HETATM   28  H   UNL     1     -40.139  55.594 -53.518  1.00  0.00     0.169 HD
HETATM   29  O   UNL     1     -43.164  54.668 -53.970  1.00  0.00    -0.271 OA
BRANCH  27  30
HETATM   30  C   UNL     1     -40.524  53.631 -53.037  1.00  0.00     0.036 A 
HETATM   31  C   UNL     1     -40.235  52.530 -53.841  1.00  0.00     0.053 A 
HETATM   32  C   UNL     1     -39.842  51.314 -53.262  1.00  0.00     0.042 A 
HETATM   33 CL   UNL     1     -39.480  49.996 -54.322  1.00  0.00    -0.084 Cl
HETATM   34  C   UNL     1     -39.736  51.177 -51.869  1.00  0.00    -0.040 A 
HETATM   35  C   UNL     1     -39.299  49.893 -51.223  1.00  0.00     0.050 C 
HETATM   36  C   UNL     1     -40.036  52.286 -51.068  1.00  0.00     0.011 A 
HETATM   37  C   UNL     1     -40.425  53.497 -51.646  1.00  0.00     0.030 A 
ENDBRANCH  27  30
ENDBRANCH  25  26
ENDBRANCH   7  25
TORSDOF 10
ENDMDL
MODEL 3
REMARK VINA RESULT:      -7.5      5.498      8.507
REMARK  10 active torsions:
REMARK  status: ('A' for Active; 'I' for Inactive)
REMARK    1  A    between atoms: C_2  and  N_3 
REMARK    2  A    between atoms: N_3  and  C_5 
REMARK    3  A    between atoms: N_3  and  C_34 
REMARK    4  A    between atoms: C_5  and  C_6 
REMARK    5  A    between atoms: C_6  and  C_7 
REMARK    6  A    between atoms: C_7  and  N_8 
REMARK       I    between atoms: N_8  and  C_9 
REMARK    7  A    between atoms: C_9  and  C_10 
REMARK    8  A    between atoms: N_16  and  C_17 
REMARK    9  A    between atoms: C_17  and  C_18 
REMARK       I    between atoms: C_18  and  N_19 
REMARK   10  A    between atoms: N_19  and  C_20 
ROOT
HETATM    1  C   UNL     1     -44.621  61.002 -50.153  1.00  0.00     0.081 A 
HETATM    2  S   UNL     1     -42.914  61.049 -50.009  1.00  0.00    -0.063 SA
HETATM    3  C   UNL     1     -42.695  60.261 -51.496  1.00  0.00     0.116 A 
HETATM    4  C   UNL     1     -43.895  59.944 -52.096  1.00  0.00     0.075 A 
HETATM    5  C   UNL     1     -43.839  59.194 -53.344  1.00  0.00     0.262 A 
HETATM    6  O   UNL     1     -44.845  58.833 -53.950  1.00  0.00    -0.267 OA
HETATM    7  N   UNL     1     -42.548  58.876 -53.758  1.00  0.00    -0.299 N 
HETATM    8  C   UNL     1     -41.434  59.321 -53.071  1.00  0.00     0.214 A 
HETATM    9  N   UNL     1     -41.453  59.990 -51.962  1.00  0.00    -0.235 NA
HETATM   10  C   UNL     1     -45.035  60.415 -51.342  1.00  0.00    -0.021 A 
HETATM   11  C   UNL     1     -46.464  60.235 -51.753  1.00  0.00     0.051 C 
ENDROOT
BRANCH   1  12
HETATM   12  C   UNL     1     -45.421  61.589 -49.094  1.00  0.00     0.259 C 
HETATM   13  N   UNL     1     -45.333  62.966 -49.002  1.00  0.00    -0.356 N 
HETATM   14  H   UNL     1     -44.665  63.434 -49.607  1.00  0.00     0.162 HD
HETATM   15  O   UNL     1     -46.155  60.951 -48.344  1.00  0.00    -0.267 OA
BRANCH  13  16
HETATM   16  C   UNL     1     -46.033  63.726 -47.990  1.00  0.00     0.124 C 
BRANCH  16  17
HETATM   17  C   UNL     1     -45.144  64.030 -46.782  1.00  0.00     0.047 C 
BRANCH  17  18
HETATM   18  C   UNL     1     -45.595  63.279 -45.531  1.00  0.00     0.236 C 
BRANCH  18  19
HETATM   19  N   UNL     1     -44.789  63.652 -44.291  1.00  0.00    -0.072 N 
HETATM   20  H   UNL     1     -43.963  64.145 -44.660  1.00  0.00     0.279 HD
BRANCH  19  21
HETATM   21  C   UNL     1     -44.231  62.475 -43.506  1.00  0.00     0.230 C 
HETATM   22  C   UNL     1     -43.058  62.880 -42.633  1.00  0.00     0.034 C 
ENDBRANCH  19  21
BRANCH  19  23
HETATM   23  C   UNL     1     -45.464  64.643 -43.358  1.00  0.00     0.230 C 
HETATM   24  C   UNL     1     -46.968  64.661 -43.556  1.00  0.00     0.034 C 
ENDBRANCH  19  23
ENDBRANCH  18  19
ENDBRANCH  17  18
ENDBRANCH  16  17
ENDBRANCH  13  16
ENDBRANCH   1  12
BRANCH   7  25
HETATM   25  C   UNL     1     -42.384  58.039 -54.933  1.00  0.00     0.236 C 
BRANCH  25  26
HETATM   26  C   UNL     1     -42.409  56.548 -54.580  1.00  0.00     0.240 C 
HETATM   27  N   UNL     1     -41.194  56.113 -54.071  1.00  0.00    -0.326 N 
HETATM   28  H   UNL     1     -40.517  56.824 -53.818  1.00  0.00     0.169 HD
HETATM   29  O   UNL     1     -43.388  55.852 -54.829  1.00  0.00    -0.271 OA
BRANCH  27  30
HETATM   30  C   UNL     1     -40.786  54.784 -53.826  1.00  0.00     0.036 A 
HETATM   31  C   UNL     1     -40.717  54.205 -52.561  1.00  0.00     0.053 A 
HETATM   32  C   UNL     1     -40.345  52.860 -52.417  1.00  0.00     0.042 A 
HETATM   33 CL   UNL     1     -40.298  52.202 -50.818  1.00  0.00    -0.084 Cl
HETATM   34  C   UNL     1     -40.032  52.073 -53.536  1.00  0.00    -0.040 A 
HETATM   35  C   UNL     1     -39.650  50.625 -53.413  1.00  0.00     0.050 C 
HETATM   36  C   UNL     1     -40.097  52.665 -54.803  1.00  0.00     0.011 A 
HETATM   37  C   UNL     1     -40.471  54.003 -54.945  1.00  0.00     0.030 A 
ENDBRANCH  27  30
ENDBRANCH  25  26
ENDBRANCH   7  25
TORSDOF 10
ENDMDL
MODEL 4
REMARK VINA RESULT:      -7.3      2.520      7.750
REMARK  10 active torsions:
REMARK  status: ('A' for Active; 'I' for Inactive)
REMARK    1  A    between atoms: C_2  and  N_3 
REMARK    2  A    between atoms: N_3  and  C_5 
REMARK    3  A    between atoms: N_3  and  C_34 
REMARK    4  A    between atoms: C_5  and  C_6 
REMARK    5  A    between atoms: C_6  and  C_7 
REMARK    6  A    between atoms: C_7  and  N_8 
REMARK       I    between atoms: N_8  and  C_9 
REMARK    7  A    between atoms: C_9  and  C_10 
REMARK    8  A    between atoms: N_16  and  C_17 
REMARK    9  A    between atoms: C_17  and  C_18 
REMARK       I    between atoms: C_18  and  N_19 
REMARK   10  A    between atoms: N_19  and  C_20 
ROOT
HETATM    1  C   UNL     1     -41.827  57.670 -51.643  1.00  0.00     0.081 A 
HETATM    2  S   UNL     1     -40.711  58.489 -52.654  1.00  0.00    -0.063 SA
HETATM    3  C   UNL     1     -41.946  59.339 -53.450  1.00  0.00     0.116 A 
HETATM    4  C   UNL     1     -43.196  59.001 -52.976  1.00  0.00     0.075 A 
HETATM    5  C   UNL     1     -44.345  59.608 -53.636  1.00  0.00     0.262 A 
HETATM    6  O   UNL     1     -45.505  59.357 -53.316  1.00  0.00    -0.267 OA
HETATM    7  N   UNL     1     -44.013  60.450 -54.693  1.00  0.00    -0.299 N 
HETATM    8  C   UNL     1     -42.698  60.736 -55.010  1.00  0.00     0.214 A 
HETATM    9  N   UNL     1     -41.658  60.215 -54.442  1.00  0.00    -0.235 NA
HETATM   10  C   UNL     1     -43.139  58.058 -51.883  1.00  0.00    -0.021 A 
HETATM   11  C   UNL     1     -44.333  57.522 -51.155  1.00  0.00     0.051 C 
ENDROOT
BRANCH   1  12
HETATM   12  C   UNL     1     -41.312  56.737 -50.659  1.00  0.00     0.259 C 
HETATM   13  N   UNL     1     -41.123  55.450 -51.129  1.00  0.00    -0.356 N 
HETATM   14  H   UNL     1     -41.437  55.246 -52.073  1.00  0.00     0.162 HD
HETATM   15  O   UNL     1     -41.022  57.036 -49.503  1.00  0.00    -0.267 OA
BRANCH  13  16
HETATM   16  C   UNL     1     -40.647  54.374 -50.288  1.00  0.00     0.124 C 
BRANCH  16  17
HETATM   17  C   UNL     1     -40.920  52.999 -50.902  1.00  0.00     0.047 C 
BRANCH  17  18
HETATM   18  C   UNL     1     -40.095  52.758 -52.165  1.00  0.00     0.236 C 
BRANCH  18  19
HETATM   19  N   UNL     1     -40.954  52.612 -53.416  1.00  0.00    -0.072 N 
HETATM   20  H   UNL     1     -41.878  52.326 -53.062  1.00  0.00     0.279 HD
BRANCH  19  21
HETATM   21  C   UNL     1     -40.530  51.498 -54.362  1.00  0.00     0.230 C 
HETATM   22  C   UNL     1     -39.541  50.549 -53.713  1.00  0.00     0.034 C 
ENDBRANCH  19  21
BRANCH  19  23
HETATM   23  C   UNL     1     -41.198  53.899 -54.185  1.00  0.00     0.230 C 
HETATM   24  C   UNL     1     -40.155  54.111 -55.265  1.00  0.00     0.034 C 
ENDBRANCH  19  23
ENDBRANCH  18  19
ENDBRANCH  17  18
ENDBRANCH  16  17
ENDBRANCH  13  16
ENDBRANCH   1  12
BRANCH   7  25
HETATM   25  C   UNL     1     -45.088  61.023 -55.484  1.00  0.00     0.236 C 
BRANCH  25  26
HETATM   26  C   UNL     1     -45.154  60.407 -56.886  1.00  0.00     0.240 C 
HETATM   27  N   UNL     1     -45.339  59.033 -56.843  1.00  0.00    -0.326 N 
HETATM   28  H   UNL     1     -45.591  58.628 -55.948  1.00  0.00     0.169 HD
HETATM   29  O   UNL     1     -44.965  61.087 -57.889  1.00  0.00    -0.271 OA
BRANCH  27  30
HETATM   30  C   UNL     1     -45.252  58.116 -57.912  1.00  0.00     0.036 A 
HETATM   31  C   UNL     1     -44.072  57.497 -58.322  1.00  0.00     0.053 A 
HETATM   32  C   UNL     1     -44.090  56.561 -59.366  1.00  0.00     0.042 A 
HETATM   33 CL   UNL     1     -42.591  55.818 -59.808  1.00  0.00    -0.084 Cl
HETATM   34  C   UNL     1     -45.286  56.231 -60.022  1.00  0.00    -0.040 A 
HETATM   35  C   UNL     1     -45.336  55.218 -61.131  1.00  0.00     0.050 C 
HETATM   36  C   UNL     1     -46.465  56.863 -59.610  1.00  0.00     0.011 A 
HETATM   37  C   UNL     1     -46.447  57.793 -58.567  1.00  0.00     0.030 A 
ENDBRANCH  27  30
ENDBRANCH  25  26
ENDBRANCH   7  25
TORSDOF 10
ENDMDL
MODEL 5
REMARK VINA RESULT:      -7.2      4.242      5.150
REMARK  10 active torsions:
REMARK  status: ('A' for Active; 'I' for Inactive)
REMARK    1  A    between atoms: C_2  and  N_3 
REMARK    2  A    between atoms: N_3  and  C_5 
REMARK    3  A    between atoms: N_3  and  C_34 
REMARK    4  A    between atoms: C_5  and  C_6 
REMARK    5  A    between atoms: C_6  and  C_7 
REMARK    6  A    between atoms: C_7  and  N_8 
REMARK       I    between atoms: N_8  and  C_9 
REMARK    7  A    between atoms: C_9  and  C_10 
REMARK    8  A    between atoms: N_16  and  C_17 
REMARK    9  A    between atoms: C_17  and  C_18 
REMARK       I    between atoms: C_18  and  N_19 
REMARK   10  A    between atoms: N_19  and  C_20 
ROOT
HETATM    1  C   UNL     1     -45.417  61.120 -54.002  1.00  0.00     0.081 A 
HETATM    2  S   UNL     1     -44.096  60.685 -55.003  1.00  0.00    -0.063 SA
HETATM    3  C   UNL     1     -43.601  59.458 -53.940  1.00  0.00     0.116 A 
HETATM    4  C   UNL     1     -44.410  59.381 -52.826  1.00  0.00     0.075 A 
HETATM    5  C   UNL     1     -44.039  58.415 -51.799  1.00  0.00     0.262 A 
HETATM    6  O   UNL     1     -44.669  58.280 -50.753  1.00  0.00    -0.267 OA
HETATM    7  N   UNL     1     -42.879  57.700 -52.085  1.00  0.00    -0.299 N 
HETATM    8  C   UNL     1     -42.208  57.851 -53.284  1.00  0.00     0.214 A 
HETATM    9  N   UNL     1     -42.513  58.699 -54.214  1.00  0.00    -0.235 NA
HETATM   10  C   UNL     1     -45.508  60.318 -52.870  1.00  0.00    -0.021 A 
HETATM   11  C   UNL     1     -46.559  60.453 -51.811  1.00  0.00     0.051 C 
ENDROOT
BRANCH   1  12
HETATM   12  C   UNL     1     -46.289  62.195 -54.435  1.00  0.00     0.259 C 
HETATM   13  N   UNL     1     -47.472  61.779 -55.019  1.00  0.00    -0.356 N 
HETATM   14  H   UNL     1     -47.591  60.783 -55.175  1.00  0.00     0.162 HD
HETATM   15  O   UNL     1     -46.047  63.390 -54.281  1.00  0.00    -0.267 OA
BRANCH  13  16
HETATM   16  C   UNL     1     -48.452  62.705 -55.541  1.00  0.00     0.124 C 
BRANCH  16  17
HETATM   17  C   UNL     1     -49.831  62.499 -54.909  1.00  0.00     0.047 C 
BRANCH  17  18
HETATM   18  C   UNL     1     -50.787  61.759 -55.842  1.00  0.00     0.236 C 
BRANCH  18  19
HETATM   19  N   UNL     1     -52.227  62.248 -55.726  1.00  0.00    -0.072 N 
HETATM   20  H   UNL     1     -52.444  62.631 -56.657  1.00  0.00     0.279 HD
BRANCH  19  21
HETATM   21  C   UNL     1     -52.439  63.406 -54.762  1.00  0.00     0.230 C 
HETATM   22  C   UNL     1     -53.352  63.026 -53.612  1.00  0.00     0.034 C 
ENDBRANCH  19  21
BRANCH  19  23
HETATM   23  C   UNL     1     -53.260  61.161 -55.487  1.00  0.00     0.230 C 
HETATM   24  C   UNL     1     -52.718  59.789 -55.838  1.00  0.00     0.034 C 
ENDBRANCH  19  23
ENDBRANCH  18  19
ENDBRANCH  17  18
ENDBRANCH  16  17
ENDBRANCH  13  16
ENDBRANCH   1  12
BRANCH   7  25
HETATM   25  C   UNL     1     -42.364  56.787 -51.080  1.00  0.00     0.236 C 
BRANCH  25  26
HETATM   26  C   UNL     1     -42.322  55.342 -51.590  1.00  0.00     0.240 C 
HETATM   27  N   UNL     1     -41.030  54.842 -51.632  1.00  0.00    -0.326 N 
HETATM   28  H   UNL     1     -40.309  55.381 -51.166  1.00  0.00     0.169 HD
HETATM   29  O   UNL     1     -43.337  54.780 -51.989  1.00  0.00    -0.271 OA
BRANCH  27  30
HETATM   30  C   UNL     1     -40.588  53.638 -52.224  1.00  0.00     0.036 A 
HETATM   31  C   UNL     1     -40.168  52.518 -51.508  1.00  0.00     0.053 A 
HETATM   32  C   UNL     1     -39.790  51.348 -52.182  1.00  0.00     0.042 A 
HETATM   33 CL   UNL     1     -39.299  49.991 -51.228  1.00  0.00    -0.084 Cl
HETATM   34  C   UNL     1     -39.822  51.279 -53.583  1.00  0.00    -0.040 A 
HETATM   35  C   UNL     1     -39.441  50.031 -54.331  1.00  0.00     0.050 C 
HETATM   36  C   UNL     1     -40.237  52.410 -54.295  1.00  0.00     0.011 A 
HETATM   37  C   UNL     1     -40.616  53.575 -53.623  1.00  0.00     0.030 A 
ENDBRANCH  27  30
ENDBRANCH  25  26
ENDBRANCH   7  25
TORSDOF 10
ENDMDL
MODEL 6
REMARK VINA RESULT:      -7.1      4.067      9.702
REMARK  10 active torsions:
REMARK  status: ('A' for Active; 'I' for Inactive)
REMARK    1  A    between atoms: C_2  and  N_3 
REMARK    2  A    between atoms: N_3  and  C_5 
REMARK    3  A    between atoms: N_3  and  C_34 
REMARK    4  A    between atoms: C_5  and  C_6 
REMARK    5  A    between atoms: C_6  and  C_7 
REMARK    6  A    between atoms: C_7  and  N_8 
REMARK       I    between atoms: N_8  and  C_9 
REMARK    7  A    between atoms: C_9  and  C_10 
REMARK    8  A    between atoms: N_16  and  C_17 
REMARK    9  A    between atoms: C_17  and  C_18 
REMARK       I    between atoms: C_18  and  N_19 
REMARK   10  A    between atoms: N_19  and  C_20 
ROOT
HETATM    1  C   UNL     1     -42.629  56.467 -53.627  1.00  0.00     0.081 A 
HETATM    2  S   UNL     1     -42.328  58.134 -53.890  1.00  0.00    -0.063 SA
HETATM    3  C   UNL     1     -42.557  57.983 -55.565  1.00  0.00     0.116 A 
HETATM    4  C   UNL     1     -42.840  56.686 -55.935  1.00  0.00     0.075 A 
HETATM    5  C   UNL     1     -42.980  56.416 -57.360  1.00  0.00     0.262 A 
HETATM    6  O   UNL     1     -43.204  55.292 -57.806  1.00  0.00    -0.267 OA
HETATM    7  N   UNL     1     -42.783  57.529 -58.172  1.00  0.00    -0.299 N 
HETATM    8  C   UNL     1     -42.563  58.787 -57.640  1.00  0.00     0.214 A 
HETATM    9  N   UNL     1     -42.435  59.058 -56.381  1.00  0.00    -0.235 NA
HETATM   10  C   UNL     1     -42.933  55.793 -54.803  1.00  0.00    -0.021 A 
HETATM   11  C   UNL     1     -43.246  54.331 -54.892  1.00  0.00     0.051 C 
ENDROOT
BRANCH   1  12
HETATM   12  C   UNL     1     -42.582  55.962 -52.267  1.00  0.00     0.259 C 
HETATM   13  N   UNL     1     -41.320  55.603 -51.829  1.00  0.00    -0.356 N 
HETATM   14  H   UNL     1     -40.563  55.635 -52.505  1.00  0.00     0.162 HD
HETATM   15  O   UNL     1     -43.557  55.879 -51.523  1.00  0.00    -0.267 OA
BRANCH  13  16
HETATM   16  C   UNL     1     -41.080  55.050 -50.515  1.00  0.00     0.124 C 
BRANCH  16  17
HETATM   17  C   UNL     1     -40.866  53.535 -50.558  1.00  0.00     0.047 C 
BRANCH  17  18
HETATM   18  C   UNL     1     -40.462  53.049 -51.948  1.00  0.00     0.236 C 
BRANCH  18  19
HETATM   19  N   UNL     1     -39.583  51.803 -51.910  1.00  0.00    -0.072 N 
HETATM   20  H   UNL     1     -38.627  52.166 -51.784  1.00  0.00     0.279 HD
BRANCH  19  21
HETATM   21  C   UNL     1     -39.537  51.007 -53.205  1.00  0.00     0.230 C 
HETATM   22  C   UNL     1     -40.365  51.655 -54.299  1.00  0.00     0.034 C 
ENDBRANCH  19  21
BRANCH  19  23
HETATM   23  C   UNL     1     -39.823  50.882 -50.726  1.00  0.00     0.230 C 
HETATM   24  C   UNL     1     -39.864  49.427 -51.150  1.00  0.00     0.034 C 
ENDBRANCH  19  23
ENDBRANCH  18  19
ENDBRANCH  17  18
ENDBRANCH  16  17
ENDBRANCH  13  16
ENDBRANCH   1  12
BRANCH   7  25
HETATM   25  C   UNL     1     -42.797  57.347 -59.612  1.00  0.00     0.236 C 
BRANCH  25  26
HETATM   26  C   UNL     1     -43.971  58.081 -60.269  1.00  0.00     0.240 C 
HETATM   27  N   UNL     1     -45.179  57.441 -60.040  1.00  0.00    -0.326 N 
HETATM   28  H   UNL     1     -45.189  56.705 -59.343  1.00  0.00     0.169 HD
HETATM   29  O   UNL     1     -43.788  59.065 -60.980  1.00  0.00    -0.271 OA
BRANCH  27  30
HETATM   30  C   UNL     1     -46.427  57.710 -60.643  1.00  0.00     0.036 A 
HETATM   31  C   UNL     1     -47.028  58.967 -60.677  1.00  0.00     0.053 A 
HETATM   32  C   UNL     1     -48.250  59.150 -61.341  1.00  0.00     0.042 A 
HETATM   33 CL   UNL     1     -48.928  60.742 -61.359  1.00  0.00    -0.084 Cl
HETATM   34  C   UNL     1     -48.894  58.079 -61.979  1.00  0.00    -0.040 A 
HETATM   35  C   UNL     1     -50.194  58.250 -62.713  1.00  0.00     0.050 C 
HETATM   36  C   UNL     1     -48.288  56.818 -61.933  1.00  0.00     0.011 A 
HETATM   37  C   UNL     1     -47.069  56.637 -61.274  1.00  0.00     0.030 A 
ENDBRANCH  27  30
ENDBRANCH  25  26
ENDBRANCH   7  25
TORSDOF 10
ENDMDL
MODEL 7
REMARK VINA RESULT:      -7.1     16.094     20.875
REMARK  10 active torsions:
REMARK  status: ('A' for Active; 'I' for Inactive)
REMARK    1  A    between atoms: C_2  and  N_3 
REMARK    2  A    between atoms: N_3  and  C_5 
REMARK    3  A    between atoms: N_3  and  C_34 
REMARK    4  A    between atoms: C_5  and  C_6 
REMARK    5  A    between atoms: C_6  and  C_7 
REMARK    6  A    between atoms: C_7  and  N_8 
REMARK       I    between atoms: N_8  and  C_9 
REMARK    7  A    between atoms: C_9  and  C_10 
REMARK    8  A    between atoms: N_16  and  C_17 
REMARK    9  A    between atoms: C_17  and  C_18 
REMARK       I    between atoms: C_18  and  N_19 
REMARK   10  A    between atoms: N_19  and  C_20 
ROOT
HETATM    1  C   UNL     1     -34.001  38.397 -48.803  1.00  0.00     0.081 A 
HETATM    2  S   UNL     1     -35.616  37.909 -49.105  1.00  0.00    -0.063 SA
HETATM    3  C   UNL     1     -35.826  39.095 -50.300  1.00  0.00     0.116 A 
HETATM    4  C   UNL     1     -34.698  39.871 -50.465  1.00  0.00     0.075 A 
HETATM    5  C   UNL     1     -34.782  40.977 -51.410  1.00  0.00     0.262 A 
HETATM    6  O   UNL     1     -33.849  41.749 -51.615  1.00  0.00    -0.267 OA
HETATM    7  N   UNL     1     -36.027  41.112 -52.017  1.00  0.00    -0.299 N 
HETATM    8  C   UNL     1     -37.049  40.209 -51.789  1.00  0.00     0.214 A 
HETATM    9  N   UNL     1     -37.004  39.217 -50.957  1.00  0.00    -0.235 NA
HETATM   10  C   UNL     1     -33.602  39.443 -49.626  1.00  0.00    -0.021 A 
HETATM   11  C   UNL     1     -32.247  40.081 -49.600  1.00  0.00     0.051 C 
ENDROOT
BRANCH   1  12
HETATM   12  C   UNL     1     -33.237  37.678 -47.801  1.00  0.00     0.259 C 
HETATM   13  N   UNL     1     -33.705  37.821 -46.507  1.00  0.00    -0.356 N 
HETATM   14  H   UNL     1     -34.469  38.472 -46.355  1.00  0.00     0.162 HD
HETATM   15  O   UNL     1     -32.269  36.961 -48.047  1.00  0.00    -0.267 OA
BRANCH  13  16
HETATM   16  C   UNL     1     -33.056  37.205 -45.371  1.00  0.00     0.124 C 
BRANCH  16  17
HETATM   17  C   UNL     1     -32.804  38.206 -44.240  1.00  0.00     0.047 C 
BRANCH  17  18
HETATM   18  C   UNL     1     -31.418  38.839 -44.329  1.00  0.00     0.236 C 
BRANCH  18  19
HETATM   19  N   UNL     1     -30.612  38.337 -45.523  1.00  0.00    -0.072 N 
HETATM   20  H   UNL     1     -31.255  37.706 -46.021  1.00  0.00     0.279 HD
BRANCH  19  21
HETATM   21  C   UNL     1     -29.407  37.478 -45.171  1.00  0.00     0.230 C 
HETATM   22  C   UNL     1     -29.048  37.580 -43.700  1.00  0.00     0.034 C 
ENDBRANCH  19  21
BRANCH  19  23
HETATM   23  C   UNL     1     -30.229  39.402 -46.536  1.00  0.00     0.230 C 
HETATM   24  C   UNL     1     -29.839  40.702 -45.860  1.00  0.00     0.034 C 
ENDBRANCH  19  23
ENDBRANCH  18  19
ENDBRANCH  17  18
ENDBRANCH  16  17
ENDBRANCH  13  16
ENDBRANCH   1  12
BRANCH   7  25
HETATM   25  C   UNL     1     -36.249  42.245 -52.897  1.00  0.00     0.236 C 
BRANCH  25  26
HETATM   26  C   UNL     1     -36.009  41.882 -54.366  1.00  0.00     0.240 C 
HETATM   27  N   UNL     1     -37.189  41.848 -55.094  1.00  0.00    -0.326 N 
HETATM   28  H   UNL     1     -38.016  42.233 -54.653  1.00  0.00     0.169 HD
HETATM   29  O   UNL     1     -34.892  41.575 -54.771  1.00  0.00    -0.271 OA
BRANCH  27  30
HETATM   30  C   UNL     1     -37.380  41.366 -56.407  1.00  0.00     0.036 A 
HETATM   31  C   UNL     1     -37.285  42.152 -57.554  1.00  0.00     0.053 A 
HETATM   32  C   UNL     1     -37.444  41.575 -58.823  1.00  0.00     0.042 A 
HETATM   33 CL   UNL     1     -37.293  42.607 -60.203  1.00  0.00    -0.084 Cl
HETATM   34  C   UNL     1     -37.707  40.204 -58.966  1.00  0.00    -0.040 A 
HETATM   35  C   UNL     1     -37.864  39.556 -60.313  1.00  0.00     0.050 C 
HETATM   36  C   UNL     1     -37.810  39.423 -57.809  1.00  0.00     0.011 A 
HETATM   37  C   UNL     1     -37.647  39.998 -56.545  1.00  0.00     0.030 A 
ENDBRANCH  27  30
ENDBRANCH  25  26
ENDBRANCH   7  25
TORSDOF 10
ENDMDL
MODEL 8
REMARK VINA RESULT:      -7.1      4.002      9.067
REMARK  10 active torsions:
REMARK  status: ('A' for Active; 'I' for Inactive)
REMARK    1  A    between atoms: C_2  and  N_3 
REMARK    2  A    between atoms: N_3  and  C_5 
REMARK    3  A    between atoms: N_3  and  C_34 
REMARK    4  A    between atoms: C_5  and  C_6 
REMARK    5  A    between atoms: C_6  and  C_7 
REMARK    6  A    between atoms: C_7  and  N_8 
REMARK       I    between atoms: N_8  and  C_9 
REMARK    7  A    between atoms: C_9  and  C_10 
REMARK    8  A    between atoms: N_16  and  C_17 
REMARK    9  A    between atoms: C_17  and  C_18 
REMARK       I    between atoms: C_18  and  N_19 
REMARK   10  A    between atoms: N_19  and  C_20 
ROOT
HETATM    1  C   UNL     1     -43.153  56.897 -51.609  1.00  0.00     0.081 A 
HETATM    2  S   UNL     1     -44.743  57.517 -51.451  1.00  0.00    -0.063 SA
HETATM    3  C   UNL     1     -44.395  58.855 -52.435  1.00  0.00     0.116 A 
HETATM    4  C   UNL     1     -43.087  58.853 -52.869  1.00  0.00     0.075 A 
HETATM    5  C   UNL     1     -42.645  59.996 -53.659  1.00  0.00     0.262 A 
HETATM    6  O   UNL     1     -41.494  60.114 -54.073  1.00  0.00    -0.267 OA
HETATM    7  N   UNL     1     -43.625  60.965 -53.854  1.00  0.00    -0.299 N 
HETATM    8  C   UNL     1     -44.920  60.790 -53.401  1.00  0.00     0.214 A 
HETATM    9  N   UNL     1     -45.342  59.787 -52.699  1.00  0.00    -0.235 NA
HETATM   10  C   UNL     1     -42.358  57.685 -52.431  1.00  0.00    -0.021 A 
HETATM   11  C   UNL     1     -40.925  57.399 -52.762  1.00  0.00     0.051 C 
ENDROOT
BRANCH   1  12
HETATM   12  C   UNL     1     -42.827  55.652 -50.938  1.00  0.00     0.259 C 
HETATM   13  N   UNL     1     -41.916  55.776 -49.904  1.00  0.00    -0.356 N 
HETATM   14  H   UNL     1     -41.492  56.688 -49.761  1.00  0.00     0.162 HD
HETATM   15  O   UNL     1     -43.324  54.563 -51.214  1.00  0.00    -0.267 OA
BRANCH  13  16
HETATM   16  C   UNL     1     -41.445  54.642 -49.140  1.00  0.00     0.124 C 
BRANCH  16  17
HETATM   17  C   UNL     1     -40.162  54.047 -49.726  1.00  0.00     0.047 C 
BRANCH  17  18
HETATM   18  C   UNL     1     -40.402  52.683 -50.370  1.00  0.00     0.236 C 
BRANCH  18  19
HETATM   19  N   UNL     1     -39.787  52.567 -51.761  1.00  0.00    -0.072 N 
HETATM   20  H   UNL     1     -38.860  53.008 -51.670  1.00  0.00     0.279 HD
BRANCH  19  21
HETATM   21  C   UNL     1     -40.497  53.359 -52.848  1.00  0.00     0.230 C 
HETATM   22  C   UNL     1     -40.430  52.661 -54.194  1.00  0.00     0.034 C 
ENDBRANCH  19  21
BRANCH  19  23
HETATM   23  C   UNL     1     -39.513  51.148 -52.229  1.00  0.00     0.230 C 
HETATM   24  C   UNL     1     -39.540  50.165 -51.075  1.00  0.00     0.034 C 
ENDBRANCH  19  23
ENDBRANCH  18  19
ENDBRANCH  17  18
ENDBRANCH  16  17
ENDBRANCH  13  16
ENDBRANCH   1  12
BRANCH   7  25
HETATM   25  C   UNL     1     -43.259  62.192 -54.538  1.00  0.00     0.236 C 
BRANCH  25  26
HETATM   26  C   UNL     1     -43.311  62.032 -56.061  1.00  0.00     0.240 C 
HETATM   27  N   UNL     1     -42.047  61.883 -56.613  1.00  0.00    -0.326 N 
HETATM   28  H   UNL     1     -41.280  61.710 -55.973  1.00  0.00     0.169 HD
HETATM   29  O   UNL     1     -44.369  62.128 -56.675  1.00  0.00    -0.271 OA
BRANCH  27  30
HETATM   30  C   UNL     1     -41.692  61.909 -57.979  1.00  0.00     0.036 A 
HETATM   31  C   UNL     1     -42.010  60.906 -58.893  1.00  0.00     0.053 A 
HETATM   32  C   UNL     1     -41.656  61.040 -60.243  1.00  0.00     0.042 A 
HETATM   33 CL   UNL     1     -42.099  59.764 -61.323  1.00  0.00    -0.084 Cl
HETATM   34  C   UNL     1     -40.975  62.178 -60.702  1.00  0.00    -0.040 A 
HETATM   35  C   UNL     1     -40.601  62.356 -62.147  1.00  0.00     0.050 C 
HETATM   36  C   UNL     1     -40.653  63.177 -59.777  1.00  0.00     0.011 A 
HETATM   37  C   UNL     1     -41.009  63.044 -58.432  1.00  0.00     0.030 A 
ENDBRANCH  27  30
ENDBRANCH  25  26
ENDBRANCH   7  25
TORSDOF 10
ENDMDL
MODEL 9
REMARK VINA RESULT:      -7.0      4.326      9.342
REMARK  10 active torsions:
REMARK  status: ('A' for Active; 'I' for Inactive)
REMARK    1  A    between atoms: C_2  and  N_3 
REMARK    2  A    between atoms: N_3  and  C_5 
REMARK    3  A    between atoms: N_3  and  C_34 
REMARK    4  A    between atoms: C_5  and  C_6 
REMARK    5  A    between atoms: C_6  and  C_7 
REMARK    6  A    between atoms: C_7  and  N_8 
REMARK       I    between atoms: N_8  and  C_9 
REMARK    7  A    between atoms: C_9  and  C_10 
REMARK    8  A    between atoms: N_16  and  C_17 
REMARK    9  A    between atoms: C_17  and  C_18 
REMARK       I    between atoms: C_18  and  N_19 
REMARK   10  A    between atoms: N_19  and  C_20 
ROOT
HETATM    1  C   UNL     1     -43.062  56.027 -52.759  1.00  0.00     0.081 A 
HETATM    2  S   UNL     1     -43.579  55.332 -54.238  1.00  0.00    -0.063 SA
HETATM    3  C   UNL     1     -43.463  56.815 -55.056  1.00  0.00     0.116 A 
HETATM    4  C   UNL     1     -43.055  57.835 -54.225  1.00  0.00     0.075 A 
HETATM    5  C   UNL     1     -42.994  59.175 -54.795  1.00  0.00     0.262 A 
HETATM    6  O   UNL     1     -42.672  60.163 -54.140  1.00  0.00    -0.267 OA
HETATM    7  N   UNL     1     -43.384  59.242 -56.130  1.00  0.00    -0.299 N 
HETATM    8  C   UNL     1     -43.712  58.109 -56.850  1.00  0.00     0.214 A 
HETATM    9  N   UNL     1     -43.774  56.907 -56.371  1.00  0.00    -0.235 NA
HETATM   10  C   UNL     1     -42.771  57.379 -52.883  1.00  0.00    -0.021 A 
HETATM   11  C   UNL     1     -42.292  58.256 -51.767  1.00  0.00     0.051 C 
ENDROOT
BRANCH   1  12
HETATM   12  C   UNL     1     -42.944  55.168 -51.595  1.00  0.00     0.259 C 
HETATM   13  N   UNL     1     -41.658  54.732 -51.329  1.00  0.00    -0.356 N 
HETATM   14  H   UNL     1     -40.935  54.968 -52.002  1.00  0.00     0.162 HD
HETATM   15  O   UNL     1     -43.880  54.858 -50.862  1.00  0.00    -0.267 OA
BRANCH  13  16
HETATM   16  C   UNL     1     -41.348  53.844 -50.231  1.00  0.00     0.124 C 
BRANCH  16  17
HETATM   17  C   UNL     1     -40.545  52.623 -50.687  1.00  0.00     0.047 C 
BRANCH  17  18
HETATM   18  C   UNL     1     -39.769  52.893 -51.974  1.00  0.00     0.236 C 
BRANCH  18  19
HETATM   19  N   UNL     1     -40.221  52.013 -53.135  1.00  0.00    -0.072 N 
HETATM   20  H   UNL     1     -41.247  51.987 -53.054  1.00  0.00     0.279 HD
BRANCH  19  21
HETATM   21  C   UNL     1     -39.780  50.559 -53.052  1.00  0.00     0.230 C 
HETATM   22  C   UNL     1     -39.631  49.932 -54.426  1.00  0.00     0.034 C 
ENDBRANCH  19  21
BRANCH  19  23
HETATM   23  C   UNL     1     -39.941  52.576 -54.518  1.00  0.00     0.230 C 
HETATM   24  C   UNL     1     -40.338  54.036 -54.617  1.00  0.00     0.034 C 
ENDBRANCH  19  23
ENDBRANCH  18  19
ENDBRANCH  17  18
ENDBRANCH  16  17
ENDBRANCH  13  16
ENDBRANCH   1  12
BRANCH   7  25
HETATM   25  C   UNL     1     -43.459  60.547 -56.764  1.00  0.00     0.236 C 
BRANCH  25  26
HETATM   26  C   UNL     1     -42.150  60.912 -57.472  1.00  0.00     0.240 C 
HETATM   27  N   UNL     1     -42.335  61.894 -58.434  1.00  0.00    -0.326 N 
HETATM   28  H   UNL     1     -43.225  62.379 -58.435  1.00  0.00     0.169 HD
HETATM   29  O   UNL     1     -41.110  60.306 -57.238  1.00  0.00    -0.271 OA
BRANCH  27  30
HETATM   30  C   UNL     1     -41.412  62.335 -59.407  1.00  0.00     0.036 A 
HETATM   31  C   UNL     1     -40.279  63.097 -59.127  1.00  0.00     0.053 A 
HETATM   32  C   UNL     1     -39.391  63.450 -60.155  1.00  0.00     0.042 A 
HETATM   33 CL   UNL     1     -37.997  64.381 -59.731  1.00  0.00    -0.084 Cl
HETATM   34  C   UNL     1     -39.624  63.050 -61.479  1.00  0.00    -0.040 A 
HETATM   35  C   UNL     1     -38.680  63.397 -62.596  1.00  0.00     0.050 C 
HETATM   36  C   UNL     1     -40.768  62.291 -61.753  1.00  0.00     0.011 A 
HETATM   37  C   UNL     1     -41.650  61.938 -60.729  1.00  0.00     0.030 A 
ENDBRANCH  27  30
ENDBRANCH  25  26
ENDBRANCH   7  25
TORSDOF 10
ENDMDL
MODEL 10
REMARK VINA RESULT:      -7.0      1.781      2.227
REMARK  10 active torsions:
REMARK  status: ('A' for Active; 'I' for Inactive)
REMARK    1  A    between atoms: C_2  and  N_3 
REMARK    2  A    between atoms: N_3  and  C_5 
REMARK    3  A    between atoms: N_3  and  C_34 
REMARK    4  A    between atoms: C_5  and  C_6 
REMARK    5  A    between atoms: C_6  and  C_7 
REMARK    6  A    between atoms: C_7  and  N_8 
REMARK       I    between atoms: N_8  and  C_9 
REMARK    7  A    between atoms: C_9  and  C_10 
REMARK    8  A    between atoms: N_16  and  C_17 
REMARK    9  A    between atoms: C_17  and  C_18 
REMARK       I    between atoms: C_18  and  N_19 
REMARK   10  A    between atoms: N_19  and  C_20 
ROOT
HETATM    1  C   UNL     1     -43.369  59.664 -56.220  1.00  0.00     0.081 A 
HETATM    2  S   UNL     1     -41.758  60.018 -55.757  1.00  0.00    -0.063 SA
HETATM    3  C   UNL     1     -41.831  58.961 -54.431  1.00  0.00     0.116 A 
HETATM    4  C   UNL     1     -43.064  58.354 -54.320  1.00  0.00     0.075 A 
HETATM    5  C   UNL     1     -43.276  57.481 -53.172  1.00  0.00     0.262 A 
HETATM    6  O   UNL     1     -44.344  56.912 -52.957  1.00  0.00    -0.267 OA
HETATM    7  N   UNL     1     -42.183  57.395 -52.315  1.00  0.00    -0.299 N 
HETATM    8  C   UNL     1     -40.984  58.023 -52.599  1.00  0.00     0.214 A 
HETATM    9  N   UNL     1     -40.766  58.802 -53.610  1.00  0.00    -0.235 NA
HETATM   10  C   UNL     1     -43.963  58.721 -55.390  1.00  0.00    -0.021 A 
HETATM   11  C   UNL     1     -45.361  58.207 -55.545  1.00  0.00     0.051 C 
ENDROOT
BRANCH   1  12
HETATM   12  C   UNL     1     -43.909  60.317 -57.398  1.00  0.00     0.259 C 
HETATM   13  N   UNL     1     -43.135  60.187 -58.537  1.00  0.00    -0.356 N 
HETATM   14  H   UNL     1     -42.231  59.734 -58.437  1.00  0.00     0.162 HD
HETATM   15  O   UNL     1     -44.981  60.917 -57.429  1.00  0.00    -0.267 OA
BRANCH  13  16
HETATM   16  C   UNL     1     -43.494  60.795 -59.798  1.00  0.00     0.124 C 
BRANCH  16  17
HETATM   17  C   UNL     1     -43.908  59.754 -60.841  1.00  0.00     0.047 C 
BRANCH  17  18
HETATM   18  C   UNL     1     -44.833  58.689 -60.257  1.00  0.00     0.236 C 
BRANCH  18  19
HETATM   19  N   UNL     1     -46.246  59.205 -60.002  1.00  0.00    -0.072 N 
HETATM   20  H   UNL     1     -46.108  60.108 -59.526  1.00  0.00     0.279 HD
BRANCH  19  21
HETATM   21  C   UNL     1     -47.071  58.370 -59.035  1.00  0.00     0.230 C 
HETATM   22  C   UNL     1     -47.802  59.232 -58.023  1.00  0.00     0.034 C 
ENDBRANCH  19  21
BRANCH  19  23
HETATM   23  C   UNL     1     -47.050  59.525 -61.250  1.00  0.00     0.230 C 
HETATM   24  C   UNL     1     -48.058  58.436 -61.560  1.00  0.00     0.034 C 
ENDBRANCH  19  23
ENDBRANCH  18  19
ENDBRANCH  17  18
ENDBRANCH  16  17
ENDBRANCH  13  16
ENDBRANCH   1  12
BRANCH   7  25
HETATM   25  C   UNL     1     -42.325  56.634 -51.086  1.00  0.00     0.236 C 
BRANCH  25  26
HETATM   26  C   UNL     1     -42.195  55.127 -51.330  1.00  0.00     0.240 C 
HETATM   27  N   UNL     1     -40.940  54.784 -51.812  1.00  0.00    -0.326 N 
HETATM   28  H   UNL     1     -40.219  55.495 -51.772  1.00  0.00     0.169 HD
HETATM   29  O   UNL     1     -43.153  54.374 -51.187  1.00  0.00    -0.271 OA
BRANCH  27  30
HETATM   30  C   UNL     1     -40.525  53.538 -52.331  1.00  0.00     0.036 A 
HETATM   31  C   UNL     1     -40.081  52.472 -51.551  1.00  0.00     0.053 A 
HETATM   32  C   UNL     1     -39.732  51.253 -52.151  1.00  0.00     0.042 A 
HETATM   33 CL   UNL     1     -39.208  49.967 -51.120  1.00  0.00    -0.084 Cl
HETATM   34  C   UNL     1     -39.817  51.081 -53.541  1.00  0.00    -0.040 A 
HETATM   35  C   UNL     1     -39.468  49.781 -54.209  1.00  0.00     0.050 C 
HETATM   36  C   UNL     1     -40.256  52.160 -54.318  1.00  0.00     0.011 A 
HETATM   37  C   UNL     1     -40.606  53.373 -53.719  1.00  0.00     0.030 A 
ENDBRANCH  27  30
ENDBRANCH  25  26
ENDBRANCH   7  25
TORSDOF 10
ENDMDL
